untitled-dbase-1197673_153
  -OEChem-02092406493D

 55 58  0     1  0  0  0  0  0999 V2000
   12.1899   16.1133   21.6663 C   0  0  0  0  0  0  0  0  0  0  0  0
    9.2027   16.3189   22.1513 C   0  0  0  0  0  0  0  0  0  0  0  0
    5.9577   13.3589   25.3007 C   0  0  0  0  0  0  0  0  0  0  0  0
    8.5825    9.9694   24.4994 C   0  0  0  0  0  0  0  0  0  0  0  0
    6.3206   12.2051   26.2293 C   0  0  0  0  0  0  0  0  0  0  0  0
    9.6077   10.0199   23.3615 C   0  0  0  0  0  0  0  0  0  0  0  0
    6.5493   13.2694   23.8759 C   0  0  1  0  0  0  0  0  0  0  0  0
    7.3743   10.8980   24.2899 C   0  0  1  0  0  0  0  0  0  0  0  0
    6.4381   10.8570   25.5273 C   0  0  2  0  0  0  0  0  0  0  0  0
    6.9182   14.6614   23.2997 C   0  0  2  0  0  0  0  0  0  0  0  0
    8.9993   12.9930   24.4406 C   0  0  2  0  0  0  0  0  0  0  0  0
    8.1882   15.2047   23.9763 C   0  0  1  0  0  0  0  0  0  0  0  0
    7.7681   12.3192   23.7845 C   0  0  2  0  0  0  0  0  0  0  0  0
   10.1581   11.4352   23.1040 C   0  0  2  0  0  0  0  0  0  0  0  0
    5.0473   10.3334   25.1388 C   0  0  0  0  0  0  0  0  0  0  0  0
    5.7561   15.6577   23.3596 C   0  0  0  0  0  0  0  0  0  0  0  0
   11.6055   11.3467   22.6202 C   0  0  0  0  0  0  0  0  0  0  0  0
   11.3246   17.2031   21.0832 C   0  0  0  0  0  0  0  0  0  0  0  0
   10.1312   17.5023   21.9825 C   0  0  0  0  0  0  0  0  0  0  0  0
   12.2993   15.8953   22.8660 O   0  0  0  0  0  0  0  0  0  0  0  0
    9.0618   15.4076   21.3479 O   0  0  0  0  0  0  0  0  0  0  0  0
    9.2570   14.2716   23.8399 O   0  0  0  0  0  0  0  0  0  0  0  0
   10.1714   12.1809   24.3213 O   0  0  0  0  0  0  0  0  0  0  0  0
    8.0143   12.1024   22.3666 O   0  0  0  0  0  0  0  0  0  0  0  0
    9.4475   12.1299   22.0745 O   0  0  0  0  0  0  0  0  0  0  0  0
   12.8205   15.3813   20.7151 O   0  0  0  0  0  0  0  0  0  0  0  0
    8.5496   16.4337   23.3488 O   0  0  0  0  0  0  0  0  0  0  0  0
    4.8583   13.4105   25.2385 H   0  0  0  0  0  0  0  0  0  0  0  0
    6.2597   14.2987   25.7882 H   0  0  0  0  0  0  0  0  0  0  0  0
    8.2102    8.9517   24.5316 H   0  0  0  0  0  0  0  0  0  0  0  0
    9.0747   10.1400   25.4390 H   0  0  0  0  0  0  0  0  0  0  0  0
    7.2608   12.4477   26.7433 H   0  0  0  0  0  0  0  0  0  0  0  0
    5.5528   12.1454   27.0145 H   0  0  0  0  0  0  0  0  0  0  0  0
   10.4249    9.3491   23.6066 H   0  0  0  0  0  0  0  0  0  0  0  0
    9.1088    9.6471   22.4722 H   0  0  0  0  0  0  0  0  0  0  0  0
    5.7496   12.8756   23.2104 H   0  0  0  0  0  0  0  0  0  0  0  0
    6.8489   10.3733   23.5109 H   0  0  0  0  0  0  0  0  0  0  0  0
    6.8352   10.0936   26.2434 H   0  0  0  0  0  0  0  0  0  0  0  0
    7.1481   14.5164   22.2355 H   0  0  0  0  0  0  0  0  0  0  0  0
    8.8763   13.1546   25.5126 H   0  0  0  0  0  0  0  0  0  0  0  0
    8.0179   15.4125   25.0373 H   0  0  0  0  0  0  0  0  0  0  0  0
    4.5807   11.0205   24.4365 H   0  0  0  0  0  0  0  0  0  0  0  0
    4.4259   10.2514   26.0276 H   0  0  0  0  0  0  0  0  0  0  0  0
    5.1416    9.3542   24.6746 H   0  0  0  0  0  0  0  0  0  0  0  0
    5.4844   15.8400   24.3967 H   0  0  0  0  0  0  0  0  0  0  0  0
    4.8984   15.2505   22.8294 H   0  0  0  0  0  0  0  0  0  0  0  0
    6.0543   16.5949   22.8957 H   0  0  0  0  0  0  0  0  0  0  0  0
   11.9900   12.3471   22.4396 H   0  0  0  0  0  0  0  0  0  0  0  0
   11.6459   10.7725   21.6983 H   0  0  0  0  0  0  0  0  0  0  0  0
   12.2124   10.8576   23.3775 H   0  0  0  0  0  0  0  0  0  0  0  0
   11.9590   18.0954   21.0118 H   0  0  0  0  0  0  0  0  0  0  0  0
   11.0440   16.9503   20.0552 H   0  0  0  0  0  0  0  0  0  0  0  0
   10.4597   17.8316   22.9745 H   0  0  0  0  0  0  0  0  0  0  0  0
    9.5412   18.3029   21.5208 H   0  0  0  0  0  0  0  0  0  0  0  0
   13.3810   14.6516   21.0550 H   0  0  0  0  0  0  0  0  0  0  0  0
  1 18  1  0  0  0  0
  1 20  2  0  0  0  0
  1 26  1  0  0  0  0
  2 19  1  0  0  0  0
  2 21  2  0  0  0  0
  2 27  1  0  0  0  0
  3  5  1  0  0  0  0
  3  7  1  1  0  0  0
  4  6  1  0  0  0  0
  4  8  1  1  0  0  0
  5  9  1  0  0  0  0
  6 14  1  0  0  0  0
  7 10  1  0  0  0  0
  7 13  1  0  0  0  0
  8  9  1  0  0  0  0
  8 13  1  0  0  0  0
  9 15  1  6  0  0  0
 10 12  1  0  0  0  0
 10 16  1  1  0  0  0
 11 13  1  0  0  0  0
 11 22  1  6  0  0  0
 11 23  1  0  0  0  0
 12 22  1  0  0  0  0
 12 27  1  6  0  0  0
 13 24  1  6  0  0  0
 14 17  1  1  0  0  0
 14 23  1  0  0  0  0
 14 25  1  0  0  0  0
 18 19  1  0  0  0  0
 24 25  1  0  0  0  0
  3 28  1  0  0  0  0
  3 29  1  0  0  0  0
  4 30  1  0  0  0  0
  4 31  1  0  0  0  0
  5 32  1  0  0  0  0
  5 33  1  0  0  0  0
  6 34  1  0  0  0  0
  6 35  1  0  0  0  0
  7 36  1  0  0  0  0
  8 37  1  0  0  0  0
  9 38  1  0  0  0  0
 10 39  1  0  0  0  0
 11 40  1  0  0  0  0
 12 41  1  0  0  0  0
 15 42  1  0  0  0  0
 15 43  1  0  0  0  0
 15 44  1  0  0  0  0
 16 45  1  0  0  0  0
 16 46  1  0  0  0  0
 16 47  1  0  0  0  0
 17 48  1  0  0  0  0
 17 49  1  0  0  0  0
 17 50  1  0  0  0  0
 18 51  1  0  0  0  0
 18 52  1  0  0  0  0
 19 53  1  0  0  0  0
 19 54  1  0  0  0  0
 26 55  1  0  0  0  0
M  END
> <idnumber>
Z2588040194

> <heavy_atoms>
27

> <LogS>
-3.929

> <LogP>
2.934

> <rotating_bonds>
5

> <PSA>
100.52

> <hb_acceptors>
7

> <hb_donors>
1

> <Collection>
Functional

> <link>
https://www.enaminestore.com/catalog/Z2588040194

> <ROCS_ShapeQuery>
x0446_0A_x1080_0A_x0929_0A_x0812_0A_x0719_0A_x1140_0A_x0528_0A_x0310_0A

> <ROCS_TanimotoCombo>
0.501 

> <ROCS_ShapeTanimoto>
0.282 

> <ROCS_ColorTanimoto>
0.219 

> <ROCS_RefTversky>
0.253 

> <ROCS_RefColorTversky>
0.254 

> <ROCS_RefTverskyCombo>
0.507 

> <ROCS_FitTversky>
1.682 

> <ROCS_FitColorTversky>
0.613 

> <ROCS_FitTverskyCombo>
2.295 

> <ROCS_ColorScore>
-9.148

> <ROCS_Overlap>
2993.129

> <ROCS_Rank>
1                   

$$$$
untitled-dbase-937504_149
  -OEChem-02092406493D

 41 45  0     0  0  0  0  0  0999 V2000
    8.6449   13.4310   22.4186 C   0  0  0  0  0  0  0  0  0  0  0  0
    8.0072   14.8162   21.0207 C   0  0  0  0  0  0  0  0  0  0  0  0
    4.8304   13.4062   23.0918 C   0  0  0  0  0  0  0  0  0  0  0  0
    5.9164   13.4602   23.8746 C   0  0  0  0  0  0  0  0  0  0  0  0
    4.3877   14.6597   22.4361 C   0  0  0  0  0  0  0  0  0  0  0  0
    6.2797   15.6686   23.5582 C   0  0  0  0  0  0  0  0  0  0  0  0
    6.3289   12.1998   24.5090 C   0  0  0  0  0  0  0  0  0  0  0  0
    6.5830   17.8588   24.8600 C   0  0  0  0  0  0  0  0  0  0  0  0
    7.8407   17.0632   25.0402 C   0  0  0  0  0  0  0  0  0  0  0  0
    9.9895   11.9707   24.3109 C   0  0  0  0  0  0  0  0  0  0  0  0
    9.2717   10.8289   22.7151 C   0  0  0  0  0  0  0  0  0  0  0  0
    8.0768   10.4730   24.8304 C   0  0  0  0  0  0  0  0  0  0  0  0
    7.0378   16.9218   23.7841 C   0  0  0  0  0  0  0  0  0  0  0  0
    9.4781   10.4905   24.2232 C   0  0  0  0  0  0  0  0  0  0  0  0
    8.7305   12.1862   23.3658 C   0  0  0  0  0  0  0  0  0  0  0  0
    7.1732   15.4846   20.0158 C   0  0  0  0  0  0  0  0  0  0  0  0
    7.6292   13.6514   21.6227 N   0  0  0  0  0  0  0  0  0  0  0  0
    9.1878   15.3116   21.4035 N   0  0  0  0  0  0  0  0  0  0  0  0
    6.6720   14.5749   24.1348 N   0  0  0  0  0  0  0  0  0  0  0  0
    5.1798   15.7536   22.7288 N   0  0  0  0  0  0  0  0  0  0  0  0
    7.5862   11.7147   24.2226 N   0  0  0  0  0  0  0  0  0  0  0  0
    3.4025   14.6815   21.7061 O   0  0  0  0  0  0  0  0  0  0  0  0
    5.5376   11.6481   25.2753 O   0  0  0  0  0  0  0  0  0  0  0  0
    9.6204   14.3745   22.3502 O   0  0  0  0  0  0  0  0  0  0  0  0
    4.2585   12.5041   22.9100 H   0  0  0  0  0  0  0  0  0  0  0  0
    5.7260   17.5901   25.4655 H   0  0  0  0  0  0  0  0  0  0  0  0
    6.6804   18.9204   24.6681 H   0  0  0  0  0  0  0  0  0  0  0  0
    8.7849   17.5895   24.9701 H   0  0  0  0  0  0  0  0  0  0  0  0
    7.8284   16.2617   25.7687 H   0  0  0  0  0  0  0  0  0  0  0  0
    9.9432   12.4386   25.2997 H   0  0  0  0  0  0  0  0  0  0  0  0
   10.9750   12.1695   23.8726 H   0  0  0  0  0  0  0  0  0  0  0  0
   10.1775   10.9099   22.1029 H   0  0  0  0  0  0  0  0  0  0  0  0
    8.5340   10.2255   22.1770 H   0  0  0  0  0  0  0  0  0  0  0  0
    7.4709    9.6226   24.4990 H   0  0  0  0  0  0  0  0  0  0  0  0
    8.0763   10.5580   25.9226 H   0  0  0  0  0  0  0  0  0  0  0  0
    7.4421   17.3551   22.8827 H   0  0  0  0  0  0  0  0  0  0  0  0
   10.1692    9.6890   24.4828 H   0  0  0  0  0  0  0  0  0  0  0  0
    6.4757   16.2054   20.4809 H   0  0  0  0  0  0  0  0  0  0  0  0
    7.7731   16.0429   19.2719 H   0  0  0  0  0  0  0  0  0  0  0  0
    6.5634   14.7705   19.4297 H   0  0  0  0  0  0  0  0  0  0  0  0
    4.9363   16.6483   22.3133 H   0  0  0  0  0  0  0  0  0  0  0  0
  1 15  1  0  0  0  0
  1 17  2  0  0  0  0
  1 24  1  0  0  0  0
  2 16  1  0  0  0  0
  2 17  1  0  0  0  0
  2 18  2  0  0  0  0
  3  4  2  0  0  0  0
  3  5  1  0  0  0  0
  4  7  1  0  0  0  0
  4 19  1  0  0  0  0
  5 20  1  0  0  0  0
  5 22  2  0  0  0  0
  6 13  1  0  0  0  0
  6 19  2  0  0  0  0
  6 20  1  0  0  0  0
  7 21  1  0  0  0  0
  7 23  2  0  0  0  0
  8  9  1  0  0  0  0
  8 13  1  0  0  0  0
  9 13  1  0  0  0  0
 10 14  1  0  0  0  0
 10 15  1  0  0  0  0
 11 14  1  0  0  0  0
 11 15  1  0  0  0  0
 12 14  1  0  0  0  0
 12 21  1  0  0  0  0
 15 21  1  0  0  0  0
 18 24  1  0  0  0  0
  3 25  1  0  0  0  0
  8 26  1  0  0  0  0
  8 27  1  0  0  0  0
  9 28  1  0  0  0  0
  9 29  1  0  0  0  0
 10 30  1  0  0  0  0
 10 31  1  0  0  0  0
 11 32  1  0  0  0  0
 11 33  1  0  0  0  0
 12 34  1  0  0  0  0
 12 35  1  0  0  0  0
 13 36  1  0  0  0  0
 14 37  1  0  0  0  0
 16 38  1  0  0  0  0
 16 39  1  0  0  0  0
 16 40  1  0  0  0  0
 20 41  1  0  0  0  0
M  END
> <idnumber>
Z2718121768

> <heavy_atoms>
24

> <LogS>
-2.622

> <LogP>
-1.329

> <rotating_bonds>
3

> <PSA>
100.69

> <hb_acceptors>
5

> <hb_donors>
1

> <Collection>
Advanced

> <link>
https://www.enaminestore.com/catalog/Z2718121768

> <ROCS_ShapeQuery>
x0446_0A_x1080_0A_x0929_0A_x0812_0A_x0719_0A_x1140_0A_x0528_0A_x0310_0A

> <ROCS_TanimotoCombo>
0.496 

> <ROCS_ShapeTanimoto>
0.225 

> <ROCS_ColorTanimoto>
0.271 

> <ROCS_RefTversky>
0.210 

> <ROCS_RefColorTversky>
0.308 

> <ROCS_RefTverskyCombo>
0.517 

> <ROCS_FitTversky>
1.466 

> <ROCS_FitColorTversky>
0.697 

> <ROCS_FitTverskyCombo>
2.164 

> <ROCS_ColorScore>
-11.094

> <ROCS_Overlap>
2477.671

> <ROCS_Rank>
2                   

$$$$
untitled-dbase-1167349_14
  -OEChem-02092406493D

 56 61  0     1  0  0  0  0  0999 V2000
    3.8429   11.0502   20.3017 C   0  0  0  0  0  0  0  0  0  0  0  0
    3.4357   11.2627   18.9796 C   0  0  0  0  0  0  0  0  0  0  0  0
   10.0126   17.3229   21.6270 C   0  0  0  0  0  0  0  0  0  0  0  0
    3.5222   13.6719   19.2839 C   0  0  0  0  0  0  0  0  0  0  0  0
    8.9944   16.5627   21.0413 C   0  0  0  0  0  0  0  0  0  0  0  0
    4.5871   13.6646   22.7454 C   0  0  0  0  0  0  0  0  0  0  0  0
    4.0945   12.1617   21.1304 C   0  0  0  0  0  0  0  0  0  0  0  0
    3.2785   12.5542   18.4806 C   0  0  0  0  0  0  0  0  0  0  0  0
    4.5099   12.3163   22.4826 C   0  0  0  0  0  0  0  0  0  0  0  0
    3.9287   13.4443   20.6034 C   0  0  0  0  0  0  0  0  0  0  0  0
   10.8889   16.3987   22.1481 C   0  0  0  0  0  0  0  0  0  0  0  0
   12.1768   14.0638   22.9253 C   0  0  0  0  0  0  0  0  0  0  0  0
   12.6476   15.4466   23.1851 C   0  0  0  0  0  0  0  0  0  0  0  0
   11.0196   13.9584   22.2511 C   0  0  0  0  0  0  0  0  0  0  0  0
   10.5108   12.6006   21.9689 C   0  0  0  0  0  0  0  0  0  0  0  0
    5.8726   11.6138   24.4516 C   0  0  0  0  0  0  0  0  0  0  0  0
    9.0956   10.4119   25.2295 C   0  0  0  0  0  0  0  0  0  0  0  0
    9.5921    9.8053   23.9033 C   0  0  0  0  0  0  0  0  0  0  0  0
    9.2462   12.6733   24.1772 C   0  0  0  0  0  0  0  0  0  0  0  0
    7.5841   10.7802   22.7783 C   0  0  0  0  0  0  0  0  0  0  0  0
    8.3214   11.7126   24.9444 C   0  0  1  0  0  0  0  0  0  0  0  0
    9.1181   10.6783   22.7256 C   0  0  1  0  0  0  0  0  0  0  0  0
    2.8414   12.7499   17.0665 C   0  0  0  0  0  0  0  0  0  0  0  0
    4.8127   11.2153   23.4545 C   0  0  0  0  0  0  0  0  0  0  0  0
    9.1876   15.2516   21.1684 N   0  0  0  0  0  0  0  0  0  0  0  0
   12.0593   16.5457   22.8292 N   0  0  0  0  0  0  0  0  0  0  0  0
    4.2345   14.3368   21.6060 N   0  0  0  0  0  0  0  0  0  0  0  0
   10.3608   15.1364   21.8538 N   0  0  0  0  0  0  0  0  0  0  0  0
    9.6705   12.0352   22.9182 N   0  0  0  0  0  0  0  0  0  0  0  0
    7.1861   11.3772   24.0627 N   0  0  0  0  0  0  0  0  0  0  0  0
   10.8567   12.0550   20.9210 O   0  0  0  0  0  0  0  0  0  0  0  0
    5.5465   12.1144   25.5295 O   0  0  0  0  0  0  0  0  0  0  0  0
    3.9600   10.0379   20.6775 H   0  0  0  0  0  0  0  0  0  0  0  0
    3.2416   10.4020   18.3437 H   0  0  0  0  0  0  0  0  0  0  0  0
   10.1059   18.3983   21.6698 H   0  0  0  0  0  0  0  0  0  0  0  0
    3.4004   14.6806   18.9018 H   0  0  0  0  0  0  0  0  0  0  0  0
    8.1121   16.9094   20.5229 H   0  0  0  0  0  0  0  0  0  0  0  0
    4.8614   14.2076   23.6392 H   0  0  0  0  0  0  0  0  0  0  0  0
   12.7674   13.2293   23.2791 H   0  0  0  0  0  0  0  0  0  0  0  0
   13.5983   15.5141   23.7393 H   0  0  0  0  0  0  0  0  0  0  0  0
    8.4553    9.6938   25.7556 H   0  0  0  0  0  0  0  0  0  0  0  0
    9.9499   10.6146   25.8863 H   0  0  0  0  0  0  0  0  0  0  0  0
   10.6864    9.7324   23.9086 H   0  0  0  0  0  0  0  0  0  0  0  0
    9.2078    8.7839   23.7972 H   0  0  0  0  0  0  0  0  0  0  0  0
    8.7293   13.6094   23.9379 H   0  0  0  0  0  0  0  0  0  0  0  0
   10.1403   12.9108   24.7645 H   0  0  0  0  0  0  0  0  0  0  0  0
    7.2017   11.4081   21.9660 H   0  0  0  0  0  0  0  0  0  0  0  0
    7.1199    9.7917   22.6951 H   0  0  0  0  0  0  0  0  0  0  0  0
    7.9738   12.1685   25.8764 H   0  0  0  0  0  0  0  0  0  0  0  0
    9.4459   10.2516   21.7728 H   0  0  0  0  0  0  0  0  0  0  0  0
    1.7476   12.7973   17.0096 H   0  0  0  0  0  0  0  0  0  0  0  0
    3.2534   13.6768   16.6483 H   0  0  0  0  0  0  0  0  0  0  0  0
    3.1892   11.9292   16.4265 H   0  0  0  0  0  0  0  0  0  0  0  0
    3.9105   10.9356   24.0006 H   0  0  0  0  0  0  0  0  0  0  0  0
    5.1516   10.3195   22.9324 H   0  0  0  0  0  0  0  0  0  0  0  0
    4.2025   15.3428   21.5141 H   0  0  0  0  0  0  0  0  0  0  0  0
  1  2  2  0  0  0  0
  1  7  1  0  0  0  0
  2  8  1  0  0  0  0
  3  5  1  0  0  0  0
  3 11  2  0  0  0  0
  4  8  2  0  0  0  0
  4 10  1  0  0  0  0
  5 25  2  0  0  0  0
  6  9  2  0  0  0  0
  6 27  1  0  0  0  0
  7  9  1  0  0  0  0
  7 10  2  0  0  0  0
  8 23  1  0  0  0  0
  9 24  1  0  0  0  0
 10 27  1  0  0  0  0
 11 26  1  0  0  0  0
 11 28  1  0  0  0  0
 12 13  1  0  0  0  0
 12 14  2  0  0  0  0
 13 26  2  0  0  0  0
 14 15  1  0  0  0  0
 14 28  1  0  0  0  0
 15 29  1  0  0  0  0
 15 31  2  0  0  0  0
 16 24  1  0  0  0  0
 16 30  1  0  0  0  0
 16 32  2  0  0  0  0
 17 18  1  0  0  0  0
 17 21  1  0  0  0  0
 18 22  1  0  0  0  0
 19 21  1  0  0  0  0
 19 29  1  0  0  0  0
 20 22  1  0  0  0  0
 20 30  1  0  0  0  0
 21 30  1  0  0  0  0
 22 29  1  0  0  0  0
 25 28  1  0  0  0  0
  1 33  1  0  0  0  0
  2 34  1  0  0  0  0
  3 35  1  0  0  0  0
  4 36  1  0  0  0  0
  5 37  1  0  0  0  0
  6 38  1  0  0  0  0
 12 39  1  0  0  0  0
 13 40  1  0  0  0  0
 17 41  1  0  0  0  0
 17 42  1  0  0  0  0
 18 43  1  0  0  0  0
 18 44  1  0  0  0  0
 19 45  1  0  0  0  0
 19 46  1  0  0  0  0
 20 47  1  0  0  0  0
 20 48  1  0  0  0  0
 21 49  1  0  0  0  0
 22 50  1  0  0  0  0
 23 51  1  0  0  0  0
 23 52  1  0  0  0  0
 23 53  1  0  0  0  0
 24 54  1  0  0  0  0
 24 55  1  0  0  0  0
 27 56  1  0  0  0  0
M  END
> <idnumber>
Z8342388014

> <heavy_atoms>
32

> <LogS>
-5.167

> <LogP>
1.773

> <rotating_bonds>
3

> <PSA>
86.6

> <hb_acceptors>
4

> <hb_donors>
1

> <Collection>
Advanced

> <link>
https://www.enaminestore.com/catalog/Z8342388014

> <ROCS_ShapeQuery>
x0446_0A_x1080_0A_x0929_0A_x0812_0A_x0719_0A_x1140_0A_x0528_0A_x0310_0A

> <ROCS_TanimotoCombo>
0.495 

> <ROCS_ShapeTanimoto>
0.266 

> <ROCS_ColorTanimoto>
0.229 

> <ROCS_RefTversky>
0.247 

> <ROCS_RefColorTversky>
0.270 

> <ROCS_RefTverskyCombo>
0.517 

> <ROCS_FitTversky>
1.417 

> <ROCS_FitColorTversky>
0.601 

> <ROCS_FitTverskyCombo>
2.018 

> <ROCS_ColorScore>
-9.742

> <ROCS_Overlap>
2921.855

> <ROCS_Rank>
3                   

$$$$
untitled-dbase-1167337_107
  -OEChem-02092406493D

 51 56  0     1  0  0  0  0  0999 V2000
    3.4980   13.0912   24.7320 C   0  0  0  0  0  0  0  0  0  0  0  0
    5.7916   14.8838   21.7184 C   0  0  0  0  0  0  0  0  0  0  0  0
    4.8721   13.2034   24.9042 C   0  0  0  0  0  0  0  0  0  0  0  0
    2.8983   13.5729   23.5658 C   0  0  0  0  0  0  0  0  0  0  0  0
    5.1659   15.3522   20.5721 C   0  0  0  0  0  0  0  0  0  0  0  0
    5.0395   14.2817   22.7361 C   0  0  0  0  0  0  0  0  0  0  0  0
    5.6430   13.7973   23.9090 C   0  0  0  0  0  0  0  0  0  0  0  0
    3.6449   14.1713   22.5545 C   0  0  0  0  0  0  0  0  0  0  0  0
    3.7970   15.1996   20.4846 C   0  0  0  0  0  0  0  0  0  0  0  0
   10.3942   14.5790   21.7828 C   0  0  0  0  0  0  0  0  0  0  0  0
   12.9993   14.7503   22.8178 C   0  0  0  0  0  0  0  0  0  0  0  0
   12.3840   13.4646   22.5227 C   0  0  0  0  0  0  0  0  0  0  0  0
   12.3070   15.8781   22.5903 C   0  0  0  0  0  0  0  0  0  0  0  0
   11.1335   13.3897   22.0264 C   0  0  0  0  0  0  0  0  0  0  0  0
    7.0901   13.8874   24.1475 C   0  0  0  0  0  0  0  0  0  0  0  0
   10.5621   12.0586   21.7467 C   0  0  0  0  0  0  0  0  0  0  0  0
    9.4160   10.3103   24.7682 C   0  0  0  0  0  0  0  0  0  0  0  0
    7.1905   11.3508   24.3121 C   0  0  0  0  0  0  0  0  0  0  0  0
    8.7653   10.5271   22.4994 C   0  0  0  0  0  0  0  0  0  0  0  0
    9.2200   12.7871   24.7306 C   0  0  0  0  0  0  0  0  0  0  0  0
    8.1714   10.2434   23.8844 C   0  0  1  0  0  0  0  0  0  0  0  0
   10.0444   11.5936   24.2267 C   0  0  2  0  0  0  0  0  0  0  0  0
    3.0350   14.6248   21.4432 N   0  0  0  0  0  0  0  0  0  0  0  0
    9.1889   14.8210   21.3163 N   0  0  0  0  0  0  0  0  0  0  0  0
    9.0485   16.1843   21.3160 N   0  0  0  0  0  0  0  0  0  0  0  0
   10.1399   16.7834   21.7716 N   0  0  0  0  0  0  0  0  0  0  0  0
   11.0146   15.7966   22.0769 N   0  0  0  0  0  0  0  0  0  0  0  0
    7.8031   12.6972   24.3379 N   0  0  0  0  0  0  0  0  0  0  0  0
    9.8681   11.4468   22.7706 N   0  0  0  0  0  0  0  0  0  0  0  0
    7.5711   15.0195   24.1634 O   0  0  0  0  0  0  0  0  0  0  0  0
   10.7306   11.5673   20.6305 O   0  0  0  0  0  0  0  0  0  0  0  0
    3.1475   15.6525   19.3662 O   0  0  0  0  0  0  0  0  0  0  0  0
    2.8885   12.6297   25.5035 H   0  0  0  0  0  0  0  0  0  0  0  0
    6.8697   14.9979   21.7974 H   0  0  0  0  0  0  0  0  0  0  0  0
    5.3292   12.8272   25.8156 H   0  0  0  0  0  0  0  0  0  0  0  0
    1.8201   13.4731   23.4552 H   0  0  0  0  0  0  0  0  0  0  0  0
    5.7386   15.8192   19.7788 H   0  0  0  0  0  0  0  0  0  0  0  0
   14.0064   14.7694   23.2165 H   0  0  0  0  0  0  0  0  0  0  0  0
   12.9800   12.5795   22.7220 H   0  0  0  0  0  0  0  0  0  0  0  0
   12.7065   16.8652   22.7870 H   0  0  0  0  0  0  0  0  0  0  0  0
    9.1850   10.3565   25.8373 H   0  0  0  0  0  0  0  0  0  0  0  0
   10.0710    9.4488   24.5902 H   0  0  0  0  0  0  0  0  0  0  0  0
    6.3211   11.3642   23.6471 H   0  0  0  0  0  0  0  0  0  0  0  0
    6.8225   11.1564   25.3256 H   0  0  0  0  0  0  0  0  0  0  0  0
    9.1877    9.6184   22.0521 H   0  0  0  0  0  0  0  0  0  0  0  0
    8.0479   10.9714   21.7997 H   0  0  0  0  0  0  0  0  0  0  0  0
    9.2458   12.8313   25.8281 H   0  0  0  0  0  0  0  0  0  0  0  0
    9.6567   13.7220   24.3593 H   0  0  0  0  0  0  0  0  0  0  0  0
    7.6851    9.2634   23.9285 H   0  0  0  0  0  0  0  0  0  0  0  0
   11.0977   11.6992   24.4896 H   0  0  0  0  0  0  0  0  0  0  0  0
    3.7857   16.0426   18.7528 H   0  0  0  0  0  0  0  0  0  0  0  0
  1  3  1  0  0  0  0
  1  4  2  0  0  0  0
  2  5  2  0  0  0  0
  2  6  1  0  0  0  0
  3  7  2  0  0  0  0
  4  8  1  0  0  0  0
  5  9  1  0  0  0  0
  6  7  1  0  0  0  0
  6  8  2  0  0  0  0
  7 15  1  0  0  0  0
  8 23  1  0  0  0  0
  9 23  2  0  0  0  0
  9 32  1  0  0  0  0
 10 14  1  0  0  0  0
 10 24  2  0  0  0  0
 10 27  1  0  0  0  0
 11 12  1  0  0  0  0
 11 13  2  0  0  0  0
 12 14  2  0  0  0  0
 13 27  1  0  0  0  0
 14 16  1  0  0  0  0
 15 28  1  0  0  0  0
 15 30  2  0  0  0  0
 16 29  1  0  0  0  0
 16 31  2  0  0  0  0
 17 21  1  0  0  0  0
 17 22  1  0  0  0  0
 18 21  1  0  0  0  0
 18 28  1  0  0  0  0
 19 21  1  0  0  0  0
 19 29  1  0  0  0  0
 20 22  1  0  0  0  0
 20 28  1  0  0  0  0
 22 29  1  0  0  0  0
 24 25  1  0  0  0  0
 25 26  2  0  0  0  0
 26 27  1  0  0  0  0
  1 33  1  0  0  0  0
  2 34  1  0  0  0  0
  3 35  1  0  0  0  0
  4 36  1  0  0  0  0
  5 37  1  0  0  0  0
 11 38  1  0  0  0  0
 12 39  1  0  0  0  0
 13 40  1  0  0  0  0
 17 41  1  0  0  0  0
 17 42  1  0  0  0  0
 18 43  1  0  0  0  0
 18 44  1  0  0  0  0
 19 45  1  0  0  0  0
 19 46  1  0  0  0  0
 20 47  1  0  0  0  0
 20 48  1  0  0  0  0
 21 49  1  0  0  0  0
 22 50  1  0  0  0  0
 32 51  1  0  0  0  0
M  END
> <idnumber>
Z8342387945

> <heavy_atoms>
32

> <LogS>
-4.761

> <LogP>
1.127

> <rotating_bonds>
2

> <PSA>
116.82

> <hb_acceptors>
7

> <hb_donors>
1

> <Collection>
Advanced

> <link>
https://www.enaminestore.com/catalog/Z8342387945

> <ROCS_ShapeQuery>
x0446_0A_x1080_0A_x0929_0A_x0812_0A_x0719_0A_x1140_0A_x0528_0A_x0310_0A

> <ROCS_TanimotoCombo>
0.491 

> <ROCS_ShapeTanimoto>
0.281 

> <ROCS_ColorTanimoto>
0.210 

> <ROCS_RefTversky>
0.258 

> <ROCS_RefColorTversky>
0.267 

> <ROCS_RefTverskyCombo>
0.525 

> <ROCS_FitTversky>
1.470 

> <ROCS_FitColorTversky>
0.497 

> <ROCS_FitTverskyCombo>
1.967 

> <ROCS_ColorScore>
-9.688

> <ROCS_Overlap>
3052.042

> <ROCS_Rank>
4                   

$$$$
untitled-dbase-507741_3
  -OEChem-02092406493D

 47 50  0     1  0  0  0  0  0999 V2000
    6.1969   13.9148   24.5692 C   0  0  0  0  0  0  0  0  0  0  0  0
    8.4498   10.2086   25.2366 C   0  0  0  0  0  0  0  0  0  0  0  0
    5.6517   12.9194   25.5872 C   0  0  0  0  0  0  0  0  0  0  0  0
    9.3981    9.7184   24.1367 C   0  0  0  0  0  0  0  0  0  0  0  0
    6.7078   13.1941   23.3124 C   0  0  1  0  0  0  0  0  0  0  0  0
    7.3192   11.1643   24.7867 C   0  0  1  0  0  0  0  0  0  0  0  0
    6.7006   11.8885   26.0146 C   0  0  2  0  0  0  0  0  0  0  0  0
    7.2185   14.1368   22.1738 C   0  0  2  0  0  0  0  0  0  0  0  0
    9.1023   12.8730   24.0814 C   0  0  2  0  0  0  0  0  0  0  0  0
    8.7627   14.2202   22.1110 C   0  0  2  0  0  0  0  0  0  0  0  0
    7.7899   12.1475   23.6737 C   0  0  2  0  0  0  0  0  0  0  0  0
   10.0483   10.8400   23.2985 C   0  0  2  0  0  0  0  0  0  0  0  0
    6.0655   10.9086   27.0088 C   0  0  0  0  0  0  0  0  0  0  0  0
    6.5358   15.5105   22.1614 C   0  0  0  0  0  0  0  0  0  0  0  0
   11.4243   10.3837   22.8123 C   0  0  0  0  0  0  0  0  0  0  0  0
   10.5121   15.3433   21.0093 C   0  0  0  0  0  0  0  0  0  0  0  0
    9.3334   14.1146   23.4040 O   0  0  0  0  0  0  0  0  0  0  0  0
   10.2542   12.0240   24.0620 O   0  0  0  0  0  0  0  0  0  0  0  0
    7.9074   11.3100   22.4979 O   0  0  0  0  0  0  0  0  0  0  0  0
    9.3013   11.1341   22.1233 O   0  0  0  0  0  0  0  0  0  0  0  0
    9.1776   15.4340   21.4880 O   0  0  0  0  0  0  0  0  0  0  0  0
    5.4016   14.6040   24.3068 H   0  0  0  0  0  0  0  0  0  0  0  0
    6.9803   14.4862   25.0476 H   0  0  0  0  0  0  0  0  0  0  0  0
    7.9720    9.3176   25.6506 H   0  0  0  0  0  0  0  0  0  0  0  0
    9.0285   10.6221   26.0555 H   0  0  0  0  0  0  0  0  0  0  0  0
    5.2836   13.4649   26.4579 H   0  0  0  0  0  0  0  0  0  0  0  0
    4.7933   12.4081   25.1442 H   0  0  0  0  0  0  0  0  0  0  0  0
   10.1792    9.1137   24.6022 H   0  0  0  0  0  0  0  0  0  0  0  0
    8.8141    9.0622   23.4877 H   0  0  0  0  0  0  0  0  0  0  0  0
    5.8425   12.6467   22.8769 H   0  0  0  0  0  0  0  0  0  0  0  0
    6.5988   10.5048   24.4192 H   0  0  0  0  0  0  0  0  0  0  0  0
    7.5102   12.3980   26.5795 H   0  0  0  0  0  0  0  0  0  0  0  0
    6.9106   13.6312   21.2293 H   0  0  0  0  0  0  0  0  0  0  0  0
    9.0474   13.1581   25.1983 H   0  0  0  0  0  0  0  0  0  0  0  0
    9.1354   13.4053   21.5130 H   0  0  0  0  0  0  0  0  0  0  0  0
    5.2564   10.3673   26.5234 H   0  0  0  0  0  0  0  0  0  0  0  0
    5.6701   11.4566   27.8612 H   0  0  0  0  0  0  0  0  0  0  0  0
    6.8152   10.1999   27.3539 H   0  0  0  0  0  0  0  0  0  0  0  0
    6.7981   16.0586   23.0639 H   0  0  0  0  0  0  0  0  0  0  0  0
    5.4561   15.3832   22.1204 H   0  0  0  0  0  0  0  0  0  0  0  0
    6.8637   16.0751   21.2910 H   0  0  0  0  0  0  0  0  0  0  0  0
   11.8816   11.1736   22.2223 H   0  0  0  0  0  0  0  0  0  0  0  0
   11.3161    9.4922   22.2001 H   0  0  0  0  0  0  0  0  0  0  0  0
   12.0562   10.1599   23.6679 H   0  0  0  0  0  0  0  0  0  0  0  0
   10.7964   16.2880   20.5393 H   0  0  0  0  0  0  0  0  0  0  0  0
   10.5859   14.5274   20.2859 H   0  0  0  0  0  0  0  0  0  0  0  0
   11.1789   15.1426   21.8512 H   0  0  0  0  0  0  0  0  0  0  0  0
  1  3  1  0  0  0  0
  1  5  1  1  0  0  0
  2  4  1  0  0  0  0
  2  6  1  1  0  0  0
  3  7  1  0  0  0  0
  4 12  1  0  0  0  0
  5  8  1  0  0  0  0
  5 11  1  0  0  0  0
  6  7  1  0  0  0  0
  6 11  1  0  0  0  0
  7 13  1  6  0  0  0
  8 10  1  0  0  0  0
  8 14  1  1  0  0  0
  9 11  1  0  0  0  0
  9 17  1  6  0  0  0
  9 18  1  0  0  0  0
 10 17  1  0  0  0  0
 10 21  1  1  0  0  0
 11 19  1  6  0  0  0
 12 15  1  1  0  0  0
 12 18  1  0  0  0  0
 12 20  1  0  0  0  0
 16 21  1  0  0  0  0
 19 20  1  0  0  0  0
  1 22  1  0  0  0  0
  1 23  1  0  0  0  0
  2 24  1  0  0  0  0
  2 25  1  0  0  0  0
  3 26  1  0  0  0  0
  3 27  1  0  0  0  0
  4 28  1  0  0  0  0
  4 29  1  0  0  0  0
  5 30  1  0  0  0  0
  6 31  1  0  0  0  0
  7 32  1  0  0  0  0
  8 33  1  0  0  0  0
  9 34  1  0  0  0  0
 10 35  1  0  0  0  0
 13 36  1  0  0  0  0
 13 37  1  0  0  0  0
 13 38  1  0  0  0  0
 14 39  1  0  0  0  0
 14 40  1  0  0  0  0
 14 41  1  0  0  0  0
 15 42  1  0  0  0  0
 15 43  1  0  0  0  0
 15 44  1  0  0  0  0
 16 45  1  0  0  0  0
 16 46  1  0  0  0  0
 16 47  1  0  0  0  0
M  END
> <idnumber>
Z1541759910

> <heavy_atoms>
21

> <LogS>
-3.8

> <LogP>
3.055

> <rotating_bonds>
1

> <PSA>
46.15

> <hb_acceptors>
5

> <hb_donors>
0

> <Collection>
Functional

> <link>
https://www.enaminestore.com/catalog/Z1541759910

> <ROCS_ShapeQuery>
x0446_0A_x1080_0A_x0929_0A_x0812_0A_x0719_0A_x1140_0A_x0528_0A_x0310_0A

> <ROCS_TanimotoCombo>
0.490 

> <ROCS_ShapeTanimoto>
0.261 

> <ROCS_ColorTanimoto>
0.228 

> <ROCS_RefTversky>
0.234 

> <ROCS_RefColorTversky>
0.249 

> <ROCS_RefTverskyCombo>
0.482 

> <ROCS_FitTversky>
1.806 

> <ROCS_FitColorTversky>
0.739 

> <ROCS_FitTverskyCombo>
2.544 

> <ROCS_ColorScore>
-8.914

> <ROCS_Overlap>
2762.124

> <ROCS_Rank>
5                   

$$$$
untitled-dbase-325192_83
  -OEChem-02092406493D

 51 56  0     0  0  0  0  0  0999 V2000
    7.5205   17.6777   23.9061 C   0  0  0  0  0  0  0  0  0  0  0  0
    8.2603   17.0543   24.9109 C   0  0  0  0  0  0  0  0  0  0  0  0
    6.6982   16.9192   23.0728 C   0  0  0  0  0  0  0  0  0  0  0  0
   13.1428   15.7682   22.3863 C   0  0  0  0  0  0  0  0  0  0  0  0
   13.1791   14.5462   23.0648 C   0  0  0  0  0  0  0  0  0  0  0  0
    8.1780   15.6725   25.0824 C   0  0  0  0  0  0  0  0  0  0  0  0
    6.6159   15.5373   23.2443 C   0  0  0  0  0  0  0  0  0  0  0  0
   11.9673   16.2204   21.7725 C   0  0  0  0  0  0  0  0  0  0  0  0
   12.0456   13.7307   23.1562 C   0  0  0  0  0  0  0  0  0  0  0  0
    6.3165   12.9679   25.2749 C   0  0  0  0  0  0  0  0  0  0  0  0
    8.0751   12.4694   23.8211 C   0  0  0  0  0  0  0  0  0  0  0  0
    7.3558   14.9140   24.2492 C   0  0  0  0  0  0  0  0  0  0  0  0
    7.2706   13.4858   24.4261 C   0  0  0  0  0  0  0  0  0  0  0  0
   10.8241   15.4123   21.8568 C   0  0  0  0  0  0  0  0  0  0  0  0
   10.8907   14.2042   22.5372 C   0  0  0  0  0  0  0  0  0  0  0  0
    9.1397   12.5105   22.9151 C   0  0  0  0  0  0  0  0  0  0  0  0
    7.6829   11.2079   24.2498 C   0  0  0  0  0  0  0  0  0  0  0  0
    9.2426   10.2124   23.0035 C   0  0  0  0  0  0  0  0  0  0  0  0
   11.5737    9.4961   24.1976 C   0  0  0  0  0  0  0  0  0  0  0  0
   12.1133    9.7102   21.8606 C   0  0  0  0  0  0  0  0  0  0  0  0
   13.0669    9.4857   24.5122 C   0  0  0  0  0  0  0  0  0  0  0  0
   13.5937    9.6936   22.2302 C   0  0  0  0  0  0  0  0  0  0  0  0
    9.9190    8.9600   22.5258 C   0  0  0  0  0  0  0  0  0  0  0  0
    9.5575   15.5883   21.3654 N   0  0  0  0  0  0  0  0  0  0  0  0
    9.7273   11.3663   22.5045 N   0  0  0  0  0  0  0  0  0  0  0  0
    8.2321   10.0365   23.8736 N   0  0  0  0  0  0  0  0  0  0  0  0
    8.8301   14.5328   21.7147 N   0  0  0  0  0  0  0  0  0  0  0  0
    9.6257   13.7066   22.4139 N   0  0  0  0  0  0  0  0  0  0  0  0
   11.3431    8.9484   22.8536 N   0  0  0  0  0  0  0  0  0  0  0  0
   13.7864   10.2395   23.5357 O   0  0  0  0  0  0  0  0  0  0  0  0
    6.3814   11.2602   25.3487 S   0  0  0  0  0  0  0  0  0  0  0  0
    7.5836   18.7537   23.7730 H   0  0  0  0  0  0  0  0  0  0  0  0
    8.8996   17.6448   25.5606 H   0  0  0  0  0  0  0  0  0  0  0  0
    6.1213   17.4049   22.2913 H   0  0  0  0  0  0  0  0  0  0  0  0
   14.0413   16.3778   22.3331 H   0  0  0  0  0  0  0  0  0  0  0  0
   14.1063   14.2225   23.5315 H   0  0  0  0  0  0  0  0  0  0  0  0
    8.7610   15.2013   25.8703 H   0  0  0  0  0  0  0  0  0  0  0  0
    5.9702   14.9602   22.5865 H   0  0  0  0  0  0  0  0  0  0  0  0
   11.9484   17.1703   21.2485 H   0  0  0  0  0  0  0  0  0  0  0  0
   12.0745   12.7835   23.6821 H   0  0  0  0  0  0  0  0  0  0  0  0
    5.5801   13.5014   25.8612 H   0  0  0  0  0  0  0  0  0  0  0  0
   11.0472    8.8955   24.9482 H   0  0  0  0  0  0  0  0  0  0  0  0
   11.1956   10.5250   24.2587 H   0  0  0  0  0  0  0  0  0  0  0  0
   11.7590   10.7485   21.8194 H   0  0  0  0  0  0  0  0  0  0  0  0
   11.9910    9.2693   20.8647 H   0  0  0  0  0  0  0  0  0  0  0  0
   13.2445    9.9490   25.4882 H   0  0  0  0  0  0  0  0  0  0  0  0
   13.4643    8.4643   24.5523 H   0  0  0  0  0  0  0  0  0  0  0  0
   14.0098    8.6793   22.1927 H   0  0  0  0  0  0  0  0  0  0  0  0
   14.1610   10.3097   21.5254 H   0  0  0  0  0  0  0  0  0  0  0  0
    9.4607    8.0757   22.9819 H   0  0  0  0  0  0  0  0  0  0  0  0
    9.8244    8.8520   21.4402 H   0  0  0  0  0  0  0  0  0  0  0  0
  1  2  1  0  0  0  0
  1  3  2  0  0  0  0
  2  6  2  0  0  0  0
  3  7  1  0  0  0  0
  4  5  1  0  0  0  0
  4  8  2  0  0  0  0
  5  9  2  0  0  0  0
  6 12  1  0  0  0  0
  7 12  2  0  0  0  0
  8 14  1  0  0  0  0
  9 15  1  0  0  0  0
 10 13  2  0  0  0  0
 10 31  1  0  0  0  0
 11 13  1  0  0  0  0
 11 16  1  0  0  0  0
 11 17  2  0  0  0  0
 12 13  1  0  0  0  0
 14 15  2  0  0  0  0
 14 24  1  0  0  0  0
 15 28  1  0  0  0  0
 16 25  2  0  0  0  0
 16 28  1  0  0  0  0
 17 26  1  0  0  0  0
 17 31  1  0  0  0  0
 18 23  1  0  0  0  0
 18 25  1  0  0  0  0
 18 26  2  0  0  0  0
 19 21  1  0  0  0  0
 19 29  1  0  0  0  0
 20 22  1  0  0  0  0
 20 29  1  0  0  0  0
 21 30  1  0  0  0  0
 22 30  1  0  0  0  0
 23 29  1  0  0  0  0
 24 27  2  0  0  0  0
 27 28  1  0  0  0  0
  1 32  1  0  0  0  0
  2 33  1  0  0  0  0
  3 34  1  0  0  0  0
  4 35  1  0  0  0  0
  5 36  1  0  0  0  0
  6 37  1  0  0  0  0
  7 38  1  0  0  0  0
  8 39  1  0  0  0  0
  9 40  1  0  0  0  0
 10 41  1  0  0  0  0
 19 42  1  0  0  0  0
 19 43  1  0  0  0  0
 20 44  1  0  0  0  0
 20 45  1  0  0  0  0
 21 46  1  0  0  0  0
 21 47  1  0  0  0  0
 22 48  1  0  0  0  0
 22 49  1  0  0  0  0
 23 50  1  0  0  0  0
 23 51  1  0  0  0  0
M  END
> <idnumber>
Z31204150

> <heavy_atoms>
31

> <LogS>
-5.73

> <LogP>
4.446

> <rotating_bonds>
4

> <PSA>
68.96

> <hb_acceptors>
6

> <hb_donors>
0

> <Collection>
Legacy

> <link>
https://www.enaminestore.com/catalog/Z31204150

> <ROCS_ShapeQuery>
x0446_0A_x1080_0A_x0929_0A_x0812_0A_x0719_0A_x1140_0A_x0528_0A_x0310_0A

> <ROCS_TanimotoCombo>
0.488 

> <ROCS_ShapeTanimoto>
0.298 

> <ROCS_ColorTanimoto>
0.191 

> <ROCS_RefTversky>
0.268 

> <ROCS_RefColorTversky>
0.221 

> <ROCS_RefTverskyCombo>
0.489 

> <ROCS_FitTversky>
1.578 

> <ROCS_FitColorTversky>
0.582 

> <ROCS_FitTverskyCombo>
2.161 

> <ROCS_ColorScore>
-7.934

> <ROCS_Overlap>
3176.274

> <ROCS_Rank>
6                   

$$$$
untitled-dbase-512273_41
  -OEChem-02092406493D

 38 40  0     0  0  0  0  0  0999 V2000
   14.2867   15.3450   21.1508 C   0  0  0  0  0  0  0  0  0  0  0  0
    5.7981   12.9566   25.4993 C   0  0  0  0  0  0  0  0  0  0  0  0
    5.5480   11.5928   25.6025 C   0  0  0  0  0  0  0  0  0  0  0  0
   13.0172   14.2850   22.9528 C   0  0  0  0  0  0  0  0  0  0  0  0
    6.9718   13.3954   24.8943 C   0  0  0  0  0  0  0  0  0  0  0  0
    6.4712   10.6708   25.1006 C   0  0  0  0  0  0  0  0  0  0  0  0
   11.8009   13.9911   23.5689 C   0  0  0  0  0  0  0  0  0  0  0  0
   11.8481   15.5070   21.2275 C   0  0  0  0  0  0  0  0  0  0  0  0
   13.0409   15.0430   21.7821 C   0  0  0  0  0  0  0  0  0  0  0  0
    7.8952   12.4620   24.3921 C   0  0  0  0  0  0  0  0  0  0  0  0
    7.6537   11.0819   24.4902 C   0  0  0  0  0  0  0  0  0  0  0  0
   10.6081   14.4551   23.0143 C   0  0  0  0  0  0  0  0  0  0  0  0
   10.6317   15.2131   21.8436 C   0  0  0  0  0  0  0  0  0  0  0  0
    9.0867   12.8342   23.7761 C   0  0  0  0  0  0  0  0  0  0  0  0
    9.6480   10.6678   23.4380 C   0  0  0  0  0  0  0  0  0  0  0  0
    7.2319   14.9242   21.6767 C   0  0  0  0  0  0  0  0  0  0  0  0
    8.5109   14.6961   20.8997 C   0  0  0  0  0  0  0  0  0  0  0  0
   10.6153    9.6618   22.9124 C   0  0  0  0  0  0  0  0  0  0  0  0
   15.2985   15.5903   20.6382 N   0  0  0  0  0  0  0  0  0  0  0  0
    8.5298   10.1806   24.0131 N   0  0  0  0  0  0  0  0  0  0  0  0
    9.9855   11.9587   23.2879 N   0  0  0  0  0  0  0  0  0  0  0  0
    9.4110   14.1586   23.6341 O   0  0  0  0  0  0  0  0  0  0  0  0
    9.4735   15.6724   21.2924 O   0  0  0  0  0  0  0  0  0  0  0  0
   10.2148    8.3688   23.0963 F   0  0  0  0  0  0  0  0  0  0  0  0
   10.8473    9.7750   21.5711 F   0  0  0  0  0  0  0  0  0  0  0  0
   11.8416    9.7527   23.5049 F   0  0  0  0  0  0  0  0  0  0  0  0
    5.0834   13.6744   25.8898 H   0  0  0  0  0  0  0  0  0  0  0  0
    4.6344   11.2413   26.0733 H   0  0  0  0  0  0  0  0  0  0  0  0
   13.9384   13.9159   23.3978 H   0  0  0  0  0  0  0  0  0  0  0  0
    7.1533   14.4645   24.8213 H   0  0  0  0  0  0  0  0  0  0  0  0
    6.2524    9.6088   25.1946 H   0  0  0  0  0  0  0  0  0  0  0  0
   11.7891   13.3995   24.4806 H   0  0  0  0  0  0  0  0  0  0  0  0
   11.8568   16.0989   20.3146 H   0  0  0  0  0  0  0  0  0  0  0  0
    7.4064   14.8294   22.7521 H   0  0  0  0  0  0  0  0  0  0  0  0
    6.8276   15.9208   21.4707 H   0  0  0  0  0  0  0  0  0  0  0  0
    6.4650   14.2017   21.3782 H   0  0  0  0  0  0  0  0  0  0  0  0
    8.3295   14.7924   19.8251 H   0  0  0  0  0  0  0  0  0  0  0  0
    8.9139   13.7003   21.1073 H   0  0  0  0  0  0  0  0  0  0  0  0
  1  9  1  0  0  0  0
  1 19  3  0  0  0  0
  2  3  1  0  0  0  0
  2  5  2  0  0  0  0
  3  6  2  0  0  0  0
  4  7  2  0  0  0  0
  4  9  1  0  0  0  0
  5 10  1  0  0  0  0
  6 11  1  0  0  0  0
  7 12  1  0  0  0  0
  8  9  2  0  0  0  0
  8 13  1  0  0  0  0
 10 11  1  0  0  0  0
 10 14  2  0  0  0  0
 11 20  2  0  0  0  0
 12 13  2  0  0  0  0
 12 22  1  0  0  0  0
 13 23  1  0  0  0  0
 14 21  1  0  0  0  0
 14 22  1  0  0  0  0
 15 18  1  0  0  0  0
 15 20  1  0  0  0  0
 15 21  2  0  0  0  0
 16 17  1  0  0  0  0
 17 23  1  0  0  0  0
 18 24  1  0  0  0  0
 18 25  1  0  0  0  0
 18 26  1  0  0  0  0
  2 27  1  0  0  0  0
  3 28  1  0  0  0  0
  4 29  1  0  0  0  0
  5 30  1  0  0  0  0
  6 31  1  0  0  0  0
  7 32  1  0  0  0  0
  8 33  1  0  0  0  0
 16 34  1  0  0  0  0
 16 35  1  0  0  0  0
 16 36  1  0  0  0  0
 17 37  1  0  0  0  0
 17 38  1  0  0  0  0
M  END
> <idnumber>
Z86376500

> <heavy_atoms>
26

> <LogS>
-5.89

> <LogP>
3.976

> <rotating_bonds>
5

> <PSA>
68.03

> <hb_acceptors>
4

> <hb_donors>
0

> <Collection>
HTS

> <link>
https://www.enaminestore.com/catalog/Z86376500

> <ROCS_ShapeQuery>
x0446_0A_x1080_0A_x0929_0A_x0812_0A_x0719_0A_x1140_0A_x0528_0A_x0310_0A

> <ROCS_TanimotoCombo>
0.486 

> <ROCS_ShapeTanimoto>
0.289 

> <ROCS_ColorTanimoto>
0.198 

> <ROCS_RefTversky>
0.258 

> <ROCS_RefColorTversky>
0.209 

> <ROCS_RefTverskyCombo>
0.466 

> <ROCS_FitTversky>
1.721 

> <ROCS_FitColorTversky>
0.787 

> <ROCS_FitTverskyCombo>
2.508 

> <ROCS_ColorScore>
-7.461

> <ROCS_Overlap>
3046.107

> <ROCS_Rank>
7                   

$$$$
untitled-dbase-741641_198
  -OEChem-02092406493D

 41 44  0     0  0  0  0  0  0999 V2000
   11.9321   16.1907   21.8733 C   0  0  0  0  0  0  0  0  0  0  0  0
    4.6650    9.0596   25.4641 C   0  0  0  0  0  0  0  0  0  0  0  0
   12.1199   15.2309   20.8789 C   0  0  0  0  0  0  0  0  0  0  0  0
   11.6062   15.7961   23.1710 C   0  0  0  0  0  0  0  0  0  0  0  0
    3.8565   10.1291   25.8436 C   0  0  0  0  0  0  0  0  0  0  0  0
    5.9409    9.2938   24.9532 C   0  0  0  0  0  0  0  0  0  0  0  0
   11.9817   13.8764   21.1820 C   0  0  0  0  0  0  0  0  0  0  0  0
   11.4680   14.4416   23.4740 C   0  0  0  0  0  0  0  0  0  0  0  0
    4.3213   11.4389   25.7141 C   0  0  0  0  0  0  0  0  0  0  0  0
    6.4052   10.6077   24.8240 C   0  0  0  0  0  0  0  0  0  0  0  0
   11.6558   13.4817   22.4796 C   0  0  0  0  0  0  0  0  0  0  0  0
    5.5992   11.6963   25.2040 C   0  0  0  0  0  0  0  0  0  0  0  0
    7.7647   10.9006   24.2816 C   0  0  0  0  0  0  0  0  0  0  0  0
   10.1461   11.6939   23.3467 C   0  0  0  0  0  0  0  0  0  0  0  0
    9.7509   10.2429   23.4362 C   0  0  0  0  0  0  0  0  0  0  0  0
    7.2103   13.2530   24.6194 C   0  0  0  0  0  0  0  0  0  0  0  0
    8.1689   14.9925   21.8499 C   0  0  0  0  0  0  0  0  0  0  0  0
   11.5065   12.0227   22.8067 C   0  0  0  0  0  0  0  0  0  0  0  0
    7.0801   15.2849   22.8418 C   0  0  0  0  0  0  0  0  0  0  0  0
    6.0187   13.0385   25.0955 N   0  0  0  0  0  0  0  0  0  0  0  0
    8.5172    9.9037   23.9257 N   0  0  0  0  0  0  0  0  0  0  0  0
    9.3412   12.6343   23.7211 N   0  0  0  0  0  0  0  0  0  0  0  0
    8.1072   12.2581   24.2064 N   0  0  0  0  0  0  0  0  0  0  0  0
   10.5812    9.4266   23.0544 O   0  0  0  0  0  0  0  0  0  0  0  0
    8.9876   15.8194   21.4688 O   0  0  0  0  0  0  0  0  0  0  0  0
    8.1612   13.7027   21.4281 O   0  0  0  0  0  0  0  0  0  0  0  0
    7.6829   14.9557   24.5069 S   0  0  0  0  0  0  0  0  0  0  0  0
   12.0410   17.2453   21.6375 H   0  0  0  0  0  0  0  0  0  0  0  0
    4.3006    8.0414   25.5660 H   0  0  0  0  0  0  0  0  0  0  0  0
   12.3747   15.5379   19.8687 H   0  0  0  0  0  0  0  0  0  0  0  0
   11.4610   16.5431   23.9457 H   0  0  0  0  0  0  0  0  0  0  0  0
    2.8628    9.9433   26.2409 H   0  0  0  0  0  0  0  0  0  0  0  0
    6.5512    8.4430   24.6643 H   0  0  0  0  0  0  0  0  0  0  0  0
   12.1297   13.1355   20.4007 H   0  0  0  0  0  0  0  0  0  0  0  0
   11.2138   14.1435   24.4878 H   0  0  0  0  0  0  0  0  0  0  0  0
    3.6767   12.2614   26.0155 H   0  0  0  0  0  0  0  0  0  0  0  0
   11.6883   11.4212   21.9113 H   0  0  0  0  0  0  0  0  0  0  0  0
   12.2593   11.7166   23.5385 H   0  0  0  0  0  0  0  0  0  0  0  0
    6.7913   16.3367   22.7518 H   0  0  0  0  0  0  0  0  0  0  0  0
    6.1945   14.6823   22.6192 H   0  0  0  0  0  0  0  0  0  0  0  0
    8.8674   13.4737   20.7865 H   0  0  0  0  0  0  0  0  0  0  0  0
  1  3  1  0  0  0  0
  1  4  2  0  0  0  0
  2  5  1  0  0  0  0
  2  6  2  0  0  0  0
  3  7  2  0  0  0  0
  4  8  1  0  0  0  0
  5  9  2  0  0  0  0
  6 10  1  0  0  0  0
  7 11  1  0  0  0  0
  8 11  2  0  0  0  0
  9 12  1  0  0  0  0
 10 12  2  0  0  0  0
 10 13  1  0  0  0  0
 11 18  1  0  0  0  0
 12 20  1  0  0  0  0
 13 21  2  0  0  0  0
 13 23  1  0  0  0  0
 14 15  1  0  0  0  0
 14 18  1  0  0  0  0
 14 22  2  0  0  0  0
 15 21  1  0  0  0  0
 15 24  2  0  0  0  0
 16 20  2  0  0  0  0
 16 23  1  0  0  0  0
 16 27  1  0  0  0  0
 17 19  1  0  0  0  0
 17 25  2  0  0  0  0
 17 26  1  0  0  0  0
 19 27  1  0  0  0  0
 22 23  1  0  0  0  0
  1 28  1  0  0  0  0
  2 29  1  0  0  0  0
  3 30  1  0  0  0  0
  4 31  1  0  0  0  0
  5 32  1  0  0  0  0
  6 33  1  0  0  0  0
  7 34  1  0  0  0  0
  8 35  1  0  0  0  0
  9 36  1  0  0  0  0
 18 37  1  0  0  0  0
 18 38  1  0  0  0  0
 19 39  1  0  0  0  0
 19 40  1  0  0  0  0
 26 41  1  0  0  0  0
M  END
> <idnumber>
Z235352471

> <heavy_atoms>
27

> <LogS>
-5.81

> <LogP>
2.342

> <rotating_bonds>
5

> <PSA>
94.69

> <hb_acceptors>
7

> <hb_donors>
1

> <Collection>
Legacy

> <link>
https://www.enaminestore.com/catalog/Z235352471

> <ROCS_ShapeQuery>
x0446_0A_x1080_0A_x0929_0A_x0812_0A_x0719_0A_x1140_0A_x0528_0A_x0310_0A

> <ROCS_TanimotoCombo>
0.486 

> <ROCS_ShapeTanimoto>
0.289 

> <ROCS_ColorTanimoto>
0.197 

> <ROCS_RefTversky>
0.258 

> <ROCS_RefColorTversky>
0.226 

> <ROCS_RefTverskyCombo>
0.484 

> <ROCS_FitTversky>
1.700 

> <ROCS_FitColorTversky>
0.610 

> <ROCS_FitTverskyCombo>
2.310 

> <ROCS_ColorScore>
-8.109

> <ROCS_Overlap>
3054.329

> <ROCS_Rank>
8                   

$$$$
untitled-dbase-325530_131
  -OEChem-02092406493D

 48 53  0     0  0  0  0  0  0999 V2000
   13.1433   15.7671   22.3852 C   0  0  0  0  0  0  0  0  0  0  0  0
   13.1791   14.5458   23.0651 C   0  0  0  0  0  0  0  0  0  0  0  0
    7.0184   17.0369   23.2814 C   0  0  0  0  0  0  0  0  0  0  0  0
   11.9679   16.2192   21.7711 C   0  0  0  0  0  0  0  0  0  0  0  0
   12.0452   13.7311   23.1576 C   0  0  0  0  0  0  0  0  0  0  0  0
    6.7128   15.6457   23.2467 C   0  0  0  0  0  0  0  0  0  0  0  0
    7.9135   17.3453   24.2821 C   0  0  0  0  0  0  0  0  0  0  0  0
    6.3161   12.9664   25.2796 C   0  0  0  0  0  0  0  0  0  0  0  0
    8.0743   12.4697   23.8247 C   0  0  0  0  0  0  0  0  0  0  0  0
    7.2698   13.4853   24.4309 C   0  0  0  0  0  0  0  0  0  0  0  0
   10.8243   15.4118   21.8565 C   0  0  0  0  0  0  0  0  0  0  0  0
   10.8904   14.2044   22.5383 C   0  0  0  0  0  0  0  0  0  0  0  0
    7.3863   14.9436   24.2222 C   0  0  0  0  0  0  0  0  0  0  0  0
    9.1386   12.5119   22.9184 C   0  0  0  0  0  0  0  0  0  0  0  0
    7.6827   11.2077   24.2524 C   0  0  0  0  0  0  0  0  0  0  0  0
    9.2423   10.2138   23.0048 C   0  0  0  0  0  0  0  0  0  0  0  0
   11.5740    9.4972   24.1975 C   0  0  0  0  0  0  0  0  0  0  0  0
   12.1128    9.7137   21.8605 C   0  0  0  0  0  0  0  0  0  0  0  0
   13.0673    9.4871   24.5116 C   0  0  0  0  0  0  0  0  0  0  0  0
   13.5933    9.6973   22.2296 C   0  0  0  0  0  0  0  0  0  0  0  0
    9.9190    8.9621   22.5256 C   0  0  0  0  0  0  0  0  0  0  0  0
    9.5577   15.5878   21.3652 N   0  0  0  0  0  0  0  0  0  0  0  0
    9.7265   11.3683   22.5066 N   0  0  0  0  0  0  0  0  0  0  0  0
    8.2321   10.0368   23.8750 N   0  0  0  0  0  0  0  0  0  0  0  0
    8.8299   14.5331   21.7158 N   0  0  0  0  0  0  0  0  0  0  0  0
    9.6251   13.7072   22.4157 N   0  0  0  0  0  0  0  0  0  0  0  0
   11.3432    8.9507   22.8530 N   0  0  0  0  0  0  0  0  0  0  0  0
   13.7862   10.2420   23.5355 O   0  0  0  0  0  0  0  0  0  0  0  0
    8.3818   15.9608   25.1743 S   0  0  0  0  0  0  0  0  0  0  0  0
    6.3816   11.2586   25.3518 S   0  0  0  0  0  0  0  0  0  0  0  0
   14.0421   16.3762   22.3311 H   0  0  0  0  0  0  0  0  0  0  0  0
   14.1063   14.2222   23.5319 H   0  0  0  0  0  0  0  0  0  0  0  0
    6.6032   17.7738   22.6062 H   0  0  0  0  0  0  0  0  0  0  0  0
   11.9493   17.1685   21.2460 H   0  0  0  0  0  0  0  0  0  0  0  0
   12.0737   12.7845   23.6846 H   0  0  0  0  0  0  0  0  0  0  0  0
    6.0317   15.1907   22.5379 H   0  0  0  0  0  0  0  0  0  0  0  0
    8.3155   18.3171   24.5317 H   0  0  0  0  0  0  0  0  0  0  0  0
    5.5799   13.5014   25.8642 H   0  0  0  0  0  0  0  0  0  0  0  0
   11.0480    8.8957   24.9476 H   0  0  0  0  0  0  0  0  0  0  0  0
   11.1956   10.5259   24.2596 H   0  0  0  0  0  0  0  0  0  0  0  0
   11.7581   10.7520   21.8203 H   0  0  0  0  0  0  0  0  0  0  0  0
   11.9904    9.2737   20.8642 H   0  0  0  0  0  0  0  0  0  0  0  0
   13.2450    9.9495   25.4879 H   0  0  0  0  0  0  0  0  0  0  0  0
   13.4651    8.4658   24.5505 H   0  0  0  0  0  0  0  0  0  0  0  0
   14.0098    8.6832   22.1910 H   0  0  0  0  0  0  0  0  0  0  0  0
   14.1602   10.3143   21.5252 H   0  0  0  0  0  0  0  0  0  0  0  0
    9.4612    8.0772   22.9811 H   0  0  0  0  0  0  0  0  0  0  0  0
    9.8241    8.8550   21.4400 H   0  0  0  0  0  0  0  0  0  0  0  0
  1  2  1  0  0  0  0
  1  4  2  0  0  0  0
  2  5  2  0  0  0  0
  3  6  1  0  0  0  0
  3  7  2  0  0  0  0
  4 11  1  0  0  0  0
  5 12  1  0  0  0  0
  6 13  2  0  0  0  0
  7 29  1  0  0  0  0
  8 10  2  0  0  0  0
  8 30  1  0  0  0  0
  9 10  1  0  0  0  0
  9 14  1  0  0  0  0
  9 15  2  0  0  0  0
 10 13  1  0  0  0  0
 11 12  2  0  0  0  0
 11 22  1  0  0  0  0
 12 26  1  0  0  0  0
 13 29  1  0  0  0  0
 14 23  2  0  0  0  0
 14 26  1  0  0  0  0
 15 24  1  0  0  0  0
 15 30  1  0  0  0  0
 16 21  1  0  0  0  0
 16 23  1  0  0  0  0
 16 24  2  0  0  0  0
 17 19  1  0  0  0  0
 17 27  1  0  0  0  0
 18 20  1  0  0  0  0
 18 27  1  0  0  0  0
 19 28  1  0  0  0  0
 20 28  1  0  0  0  0
 21 27  1  0  0  0  0
 22 25  2  0  0  0  0
 25 26  1  0  0  0  0
  1 31  1  0  0  0  0
  2 32  1  0  0  0  0
  3 33  1  0  0  0  0
  4 34  1  0  0  0  0
  5 35  1  0  0  0  0
  6 36  1  0  0  0  0
  7 37  1  0  0  0  0
  8 38  1  0  0  0  0
 17 39  1  0  0  0  0
 17 40  1  0  0  0  0
 18 41  1  0  0  0  0
 18 42  1  0  0  0  0
 19 43  1  0  0  0  0
 19 44  1  0  0  0  0
 20 45  1  0  0  0  0
 20 46  1  0  0  0  0
 21 47  1  0  0  0  0
 21 48  1  0  0  0  0
M  END
> <idnumber>
Z31204223

> <heavy_atoms>
30

> <LogS>
-5.34

> <LogP>
4.308

> <rotating_bonds>
4

> <PSA>
68.96

> <hb_acceptors>
6

> <hb_donors>
0

> <Collection>
Legacy

> <link>
https://www.enaminestore.com/catalog/Z31204223

> <ROCS_ShapeQuery>
x0446_0A_x1080_0A_x0929_0A_x0812_0A_x0719_0A_x1140_0A_x0528_0A_x0310_0A

> <ROCS_TanimotoCombo>
0.486 

> <ROCS_ShapeTanimoto>
0.296 

> <ROCS_ColorTanimoto>
0.190 

> <ROCS_RefTversky>
0.266 

> <ROCS_RefColorTversky>
0.221 

> <ROCS_RefTverskyCombo>
0.486 

> <ROCS_FitTversky>
1.610 

> <ROCS_FitColorTversky>
0.582 

> <ROCS_FitTverskyCombo>
2.192 

> <ROCS_ColorScore>
-7.932

> <ROCS_Overlap>
3146.080

> <ROCS_Rank>
9                   

$$$$
untitled-dbase-482902_174
  -OEChem-02092406493D

 58 63  0     1  0  0  0  0  0999 V2000
   10.0345   14.8576   22.0107 C   0  0  0  0  0  0  0  0  0  0  0  0
   12.0513   13.9840   23.0139 C   0  0  0  0  0  0  0  0  0  0  0  0
   10.7325   15.9914   21.5949 C   0  0  0  0  0  0  0  0  0  0  0  0
   12.7493   15.1178   22.5980 C   0  0  0  0  0  0  0  0  0  0  0  0
   10.6940   13.8539   22.7202 C   0  0  0  0  0  0  0  0  0  0  0  0
   12.0899   16.1216   21.8885 C   0  0  0  0  0  0  0  0  0  0  0  0
    3.1722   13.3057   19.6250 C   0  0  0  0  0  0  0  0  0  0  0  0
    3.6834   13.3879   21.7486 C   0  0  0  0  0  0  0  0  0  0  0  0
    3.0600   12.6728   18.3557 C   0  0  0  0  0  0  0  0  0  0  0  0
    3.4512   11.3901   18.2202 C   0  0  0  0  0  0  0  0  0  0  0  0
    3.9876   10.6337   19.3432 C   0  0  0  0  0  0  0  0  0  0  0  0
    4.0941   11.2305   20.5423 C   0  0  0  0  0  0  0  0  0  0  0  0
    6.2177   12.1141   24.2152 C   0  0  0  0  0  0  0  0  0  0  0  0
    9.7951    9.7176   23.9536 C   0  0  0  0  0  0  0  0  0  0  0  0
    9.9385   11.4401   22.1402 C   0  0  0  0  0  0  0  0  0  0  0  0
   10.5436   12.0501   24.4965 C   0  0  0  0  0  0  0  0  0  0  0  0
    7.7002   10.6191   22.9114 C   0  0  0  0  0  0  0  0  0  0  0  0
    8.2993   11.2381   25.2688 C   0  0  0  0  0  0  0  0  0  0  0  0
    8.4334   12.9621   23.4458 C   0  0  0  0  0  0  0  0  0  0  0  0
    9.1582   10.2162   22.6491 C   0  0  2  0  0  0  0  0  0  0  0  0
    9.7587   10.8303   25.0101 C   0  0  1  0  0  0  0  0  0  0  0  0
    9.9256   12.6042   23.1788 C   0  0  0  0  0  0  0  0  0  0  0  0
    7.6507   11.7385   23.9643 C   0  0  0  0  0  0  0  0  0  0  0  0
   12.8358   17.3334   21.4421 C   0  0  0  0  0  0  0  0  0  0  0  0
    4.1662   12.9833   23.1114 C   0  0  0  0  0  0  0  0  0  0  0  0
    2.8822   14.5124   20.0627 N   0  0  0  0  0  0  0  0  0  0  0  0
    3.2056   14.5630   21.4042 N   0  0  0  0  0  0  0  0  0  0  0  0
    3.6870   12.5525   20.6685 N   0  0  0  0  0  0  0  0  0  0  0  0
    5.5513   12.5708   23.0941 N   0  0  0  0  0  0  0  0  0  0  0  0
    5.7507   11.9968   25.3420 O   0  0  0  0  0  0  0  0  0  0  0  0
    8.9769   14.7650   21.7780 H   0  0  0  0  0  0  0  0  0  0  0  0
   12.5732   13.2061   23.5652 H   0  0  0  0  0  0  0  0  0  0  0  0
   10.2110   16.7677   21.0413 H   0  0  0  0  0  0  0  0  0  0  0  0
   13.8067   15.2113   22.8312 H   0  0  0  0  0  0  0  0  0  0  0  0
    2.6610   13.2275   17.5141 H   0  0  0  0  0  0  0  0  0  0  0  0
    3.3748   10.8850   17.2634 H   0  0  0  0  0  0  0  0  0  0  0  0
    4.2907    9.6058   19.1862 H   0  0  0  0  0  0  0  0  0  0  0  0
    4.4851   10.7237   21.4157 H   0  0  0  0  0  0  0  0  0  0  0  0
    9.2578    8.8343   24.3200 H   0  0  0  0  0  0  0  0  0  0  0  0
   10.8312    9.4070   23.7710 H   0  0  0  0  0  0  0  0  0  0  0  0
   10.9741   11.1490   21.9172 H   0  0  0  0  0  0  0  0  0  0  0  0
    9.5072   11.7818   21.1894 H   0  0  0  0  0  0  0  0  0  0  0  0
   10.5489   12.8342   25.2655 H   0  0  0  0  0  0  0  0  0  0  0  0
   11.5938   11.7725   24.3339 H   0  0  0  0  0  0  0  0  0  0  0  0
    7.2289   10.9506   21.9767 H   0  0  0  0  0  0  0  0  0  0  0  0
    7.1259    9.7470   23.2511 H   0  0  0  0  0  0  0  0  0  0  0  0
    7.7409   10.3824   25.6710 H   0  0  0  0  0  0  0  0  0  0  0  0
    8.2589   12.0190   26.0396 H   0  0  0  0  0  0  0  0  0  0  0  0
    8.3703   13.7834   24.1739 H   0  0  0  0  0  0  0  0  0  0  0  0
    7.9696   13.3473   22.5264 H   0  0  0  0  0  0  0  0  0  0  0  0
    9.1902    9.4205   21.8963 H   0  0  0  0  0  0  0  0  0  0  0  0
   10.2104   10.4692   25.9410 H   0  0  0  0  0  0  0  0  0  0  0  0
   12.7907   18.1145   22.2109 H   0  0  0  0  0  0  0  0  0  0  0  0
   13.8902   17.1015   21.2432 H   0  0  0  0  0  0  0  0  0  0  0  0
   12.4184   17.7375   20.5106 H   0  0  0  0  0  0  0  0  0  0  0  0
    4.0708   13.8153   23.8176 H   0  0  0  0  0  0  0  0  0  0  0  0
    3.5741   12.1514   23.5071 H   0  0  0  0  0  0  0  0  0  0  0  0
    6.0591   12.6189   22.2159 H   0  0  0  0  0  0  0  0  0  0  0  0
  1  3  2  0  0  0  0
  1  5  1  0  0  0  0
  2  4  1  0  0  0  0
  2  5  2  0  0  0  0
  3  6  1  0  0  0  0
  4  6  2  0  0  0  0
  5 22  1  0  0  0  0
  6 24  1  0  0  0  0
  7  9  1  0  0  0  0
  7 26  2  0  0  0  0
  7 28  1  0  0  0  0
  8 25  1  0  0  0  0
  8 27  2  0  0  0  0
  8 28  1  0  0  0  0
  9 10  2  0  0  0  0
 10 11  1  0  0  0  0
 11 12  2  0  0  0  0
 12 28  1  0  0  0  0
 13 23  1  0  0  0  0
 13 29  1  0  0  0  0
 13 30  2  0  0  0  0
 14 20  1  0  0  0  0
 14 21  1  0  0  0  0
 15 20  1  0  0  0  0
 15 22  1  0  0  0  0
 16 21  1  0  0  0  0
 16 22  1  0  0  0  0
 17 20  1  0  0  0  0
 17 23  1  0  0  0  0
 18 21  1  0  0  0  0
 18 23  1  0  0  0  0
 19 22  1  0  0  0  0
 19 23  1  0  0  0  0
 25 29  1  0  0  0  0
 26 27  1  0  0  0  0
  1 31  1  0  0  0  0
  2 32  1  0  0  0  0
  3 33  1  0  0  0  0
  4 34  1  0  0  0  0
  9 35  1  0  0  0  0
 10 36  1  0  0  0  0
 11 37  1  0  0  0  0
 12 38  1  0  0  0  0
 14 39  1  0  0  0  0
 14 40  1  0  0  0  0
 15 41  1  0  0  0  0
 15 42  1  0  0  0  0
 16 43  1  0  0  0  0
 16 44  1  0  0  0  0
 17 45  1  0  0  0  0
 17 46  1  0  0  0  0
 18 47  1  0  0  0  0
 18 48  1  0  0  0  0
 19 49  1  0  0  0  0
 19 50  1  0  0  0  0
 20 51  1  0  0  0  0
 21 52  1  0  0  0  0
 24 53  1  0  0  0  0
 24 54  1  0  0  0  0
 24 55  1  0  0  0  0
 25 56  1  0  0  0  0
 25 57  1  0  0  0  0
 29 58  1  0  0  0  0
M  END
> <idnumber>
Z70902119

> <heavy_atoms>
30

> <LogS>
-6.036

> <LogP>
3.684

> <rotating_bonds>
4

> <PSA>
59.29

> <hb_acceptors>
3

> <hb_donors>
1

> <Collection>
HTS

> <link>
https://www.enaminestore.com/catalog/Z70902119

> <ROCS_ShapeQuery>
x0446_0A_x1080_0A_x0929_0A_x0812_0A_x0719_0A_x1140_0A_x0528_0A_x0310_0A

> <ROCS_TanimotoCombo>
0.485 

> <ROCS_ShapeTanimoto>
0.286 

> <ROCS_ColorTanimoto>
0.199 

> <ROCS_RefTversky>
0.259 

> <ROCS_RefColorTversky>
0.235 

> <ROCS_RefTverskyCombo>
0.494 

> <ROCS_FitTversky>
1.568 

> <ROCS_FitColorTversky>
0.567 

> <ROCS_FitTverskyCombo>
2.135 

> <ROCS_ColorScore>
-8.476

> <ROCS_Overlap>
3065.655

> <ROCS_Rank>
10                  

$$$$
untitled-dbase-1167516_60
  -OEChem-02092406493D

 50 54  0     1  0  0  0  0  0999 V2000
   14.2285   11.7807   22.5430 C   0  0  0  0  0  0  0  0  0  0  0  0
   14.4635   12.6040   21.4419 C   0  0  0  0  0  0  0  0  0  0  0  0
   13.0939   11.9762   23.3306 C   0  0  0  0  0  0  0  0  0  0  0  0
    6.7867   15.1675   23.0736 C   0  0  0  0  0  0  0  0  0  0  0  0
   13.5640   13.6230   21.1284 C   0  0  0  0  0  0  0  0  0  0  0  0
    6.2622   16.0524   22.1315 C   0  0  0  0  0  0  0  0  0  0  0  0
    4.7323   13.8972   23.0243 C   0  0  0  0  0  0  0  0  0  0  0  0
   11.8342   16.0162   20.9728 C   0  0  0  0  0  0  0  0  0  0  0  0
    6.0218   14.0899   23.5199 C   0  0  0  0  0  0  0  0  0  0  0  0
   12.1945   12.9952   23.0171 C   0  0  0  0  0  0  0  0  0  0  0  0
   12.4295   13.8186   21.9160 C   0  0  0  0  0  0  0  0  0  0  0  0
    4.2077   14.7821   22.0822 C   0  0  0  0  0  0  0  0  0  0  0  0
    4.9727   15.8597   21.6359 C   0  0  0  0  0  0  0  0  0  0  0  0
    6.5760   13.1542   24.5094 C   0  0  0  0  0  0  0  0  0  0  0  0
   11.0121   13.1686   23.8699 C   0  0  0  0  0  0  0  0  0  0  0  0
    8.1917    9.9076   24.0317 C   0  0  0  0  0  0  0  0  0  0  0  0
    9.9743   11.1818   22.8342 C   0  0  0  0  0  0  0  0  0  0  0  0
    7.4932   11.6875   22.6253 C   0  0  0  0  0  0  0  0  0  0  0  0
    9.3868   11.7444   25.2158 C   0  0  0  0  0  0  0  0  0  0  0  0
    8.5601   10.5860   22.7108 C   0  0  2  0  0  0  0  0  0  0  0  0
    8.0059   11.1432   24.9075 C   0  0  1  0  0  0  0  0  0  0  0  0
   10.7188   16.6967   20.8417 N   0  0  0  0  0  0  0  0  0  0  0  0
    9.7345   15.9054   21.3895 N   0  0  0  0  0  0  0  0  0  0  0  0
   10.2380   14.7647   21.8451 N   0  0  0  0  0  0  0  0  0  0  0  0
   11.5506   14.8364   21.5836 N   0  0  0  0  0  0  0  0  0  0  0  0
   10.1194   12.0967   23.9795 N   0  0  0  0  0  0  0  0  0  0  0  0
    7.2651   12.0538   24.0272 N   0  0  0  0  0  0  0  0  0  0  0  0
    6.4090   13.4226   25.6971 O   0  0  0  0  0  0  0  0  0  0  0  0
   10.9001   14.2558   24.4339 O   0  0  0  0  0  0  0  0  0  0  0  0
    2.9447   14.5701   21.6151 O   0  0  0  0  0  0  0  0  0  0  0  0
    4.3492   16.9699   20.4721 Cl  0  0  0  0  0  0  0  0  0  0  0  0
   14.9286   10.9871   22.7874 H   0  0  0  0  0  0  0  0  0  0  0  0
   15.3467   12.4513   20.8286 H   0  0  0  0  0  0  0  0  0  0  0  0
   12.9219   11.3274   24.1857 H   0  0  0  0  0  0  0  0  0  0  0  0
    7.7937   15.3250   23.4513 H   0  0  0  0  0  0  0  0  0  0  0  0
   13.7611   14.2567   20.2668 H   0  0  0  0  0  0  0  0  0  0  0  0
    6.8711   16.8876   21.7941 H   0  0  0  0  0  0  0  0  0  0  0  0
    4.1328   13.0577   23.3685 H   0  0  0  0  0  0  0  0  0  0  0  0
   12.8218   16.3192   20.6555 H   0  0  0  0  0  0  0  0  0  0  0  0
    7.2531    9.3484   23.9373 H   0  0  0  0  0  0  0  0  0  0  0  0
    8.9673    9.2270   24.3972 H   0  0  0  0  0  0  0  0  0  0  0  0
   10.7094   10.3802   22.9756 H   0  0  0  0  0  0  0  0  0  0  0  0
   10.2425   11.7092   21.9118 H   0  0  0  0  0  0  0  0  0  0  0  0
    7.8039   12.5581   22.0398 H   0  0  0  0  0  0  0  0  0  0  0  0
    6.5495   11.3011   22.2246 H   0  0  0  0  0  0  0  0  0  0  0  0
    9.2727   12.6279   25.8517 H   0  0  0  0  0  0  0  0  0  0  0  0
   10.0074   11.0234   25.7610 H   0  0  0  0  0  0  0  0  0  0  0  0
    8.5068    9.8962   21.8632 H   0  0  0  0  0  0  0  0  0  0  0  0
    7.4485   10.9422   25.8274 H   0  0  0  0  0  0  0  0  0  0  0  0
    2.5626   13.7816   22.0306 H   0  0  0  0  0  0  0  0  0  0  0  0
  1  2  1  0  0  0  0
  1  3  2  0  0  0  0
  2  5  2  0  0  0  0
  3 10  1  0  0  0  0
  4  6  2  0  0  0  0
  4  9  1  0  0  0  0
  5 11  1  0  0  0  0
  6 13  1  0  0  0  0
  7  9  2  0  0  0  0
  7 12  1  0  0  0  0
  8 22  2  0  0  0  0
  8 25  1  0  0  0  0
  9 14  1  0  0  0  0
 10 11  2  0  0  0  0
 10 15  1  0  0  0  0
 11 25  1  0  0  0  0
 12 13  2  0  0  0  0
 12 30  1  0  0  0  0
 13 31  1  0  0  0  0
 14 27  1  0  0  0  0
 14 28  2  0  0  0  0
 15 26  1  0  0  0  0
 15 29  2  0  0  0  0
 16 20  1  0  0  0  0
 16 21  1  0  0  0  0
 17 20  1  0  0  0  0
 17 26  1  0  0  0  0
 18 20  1  0  0  0  0
 18 27  1  0  0  0  0
 19 21  1  0  0  0  0
 19 26  1  0  0  0  0
 21 27  1  0  0  0  0
 22 23  1  0  0  0  0
 23 24  2  0  0  0  0
 24 25  1  0  0  0  0
  1 32  1  0  0  0  0
  2 33  1  0  0  0  0
  3 34  1  0  0  0  0
  4 35  1  0  0  0  0
  5 36  1  0  0  0  0
  6 37  1  0  0  0  0
  7 38  1  0  0  0  0
  8 39  1  0  0  0  0
 16 40  1  0  0  0  0
 16 41  1  0  0  0  0
 17 42  1  0  0  0  0
 17 43  1  0  0  0  0
 18 44  1  0  0  0  0
 18 45  1  0  0  0  0
 19 46  1  0  0  0  0
 19 47  1  0  0  0  0
 20 48  1  0  0  0  0
 21 49  1  0  0  0  0
 30 50  1  0  0  0  0
M  END
> <idnumber>
Z8346604580

> <heavy_atoms>
31

> <LogS>
-4.98

> <LogP>
1.67

> <rotating_bonds>
3

> <PSA>
104.45

> <hb_acceptors>
6

> <hb_donors>
1

> <Collection>
Advanced

> <link>
https://www.enaminestore.com/catalog/Z8346604580

> <ROCS_ShapeQuery>
x0446_0A_x1080_0A_x0929_0A_x0812_0A_x0719_0A_x1140_0A_x0528_0A_x0310_0A

> <ROCS_TanimotoCombo>
0.484 

> <ROCS_ShapeTanimoto>
0.271 

> <ROCS_ColorTanimoto>
0.213 

> <ROCS_RefTversky>
0.250 

> <ROCS_RefColorTversky>
0.261 

> <ROCS_RefTverskyCombo>
0.510 

> <ROCS_FitTversky>
1.476 

> <ROCS_FitColorTversky>
0.537 

> <ROCS_FitTverskyCombo>
2.013 

> <ROCS_ColorScore>
-9.432

> <ROCS_Overlap>
2953.087

> <ROCS_Rank>
11                  

$$$$
untitled-dbase-551503_33
  -OEChem-02092406493D

 41 44  0     0  0  0  0  0  0999 V2000
    5.8578   13.3866   25.4247 C   0  0  0  0  0  0  0  0  0  0  0  0
    5.5103   12.0422   25.5946 C   0  0  0  0  0  0  0  0  0  0  0  0
   13.0934   14.5986   22.9418 C   0  0  0  0  0  0  0  0  0  0  0  0
   13.0945   15.3679   21.7783 C   0  0  0  0  0  0  0  0  0  0  0  0
    7.0639   13.7366   24.8119 C   0  0  0  0  0  0  0  0  0  0  0  0
    6.3641   11.0304   25.1540 C   0  0  0  0  0  0  0  0  0  0  0  0
   11.8853   14.2416   23.5408 C   0  0  0  0  0  0  0  0  0  0  0  0
   11.8875   15.7802   21.2137 C   0  0  0  0  0  0  0  0  0  0  0  0
   10.2856    9.5908   23.1490 C   0  0  0  0  0  0  0  0  0  0  0  0
    7.9211   12.7298   24.3696 C   0  0  0  0  0  0  0  0  0  0  0  0
    7.5647   11.3872   24.5439 C   0  0  0  0  0  0  0  0  0  0  0  0
   10.6783   14.6539   22.9762 C   0  0  0  0  0  0  0  0  0  0  0  0
   10.6793   15.4232   21.8127 C   0  0  0  0  0  0  0  0  0  0  0  0
    9.3971    8.5973   23.5963 C   0  0  0  0  0  0  0  0  0  0  0  0
    9.6753   10.7854   23.4657 C   0  0  0  0  0  0  0  0  0  0  0  0
    9.2171   12.9815   23.7108 C   0  0  0  0  0  0  0  0  0  0  0  0
    9.5653    7.1370   23.5034 C   0  0  0  0  0  0  0  0  0  0  0  0
    7.2991   14.9767   21.6031 C   0  0  0  0  0  0  0  0  0  0  0  0
    8.5961   14.8166   20.8391 C   0  0  0  0  0  0  0  0  0  0  0  0
    8.2976    9.1028   24.1584 N   0  0  0  0  0  0  0  0  0  0  0  0
   10.0472   12.0819   23.2835 N   0  0  0  0  0  0  0  0  0  0  0  0
    8.4824   10.4361   24.0714 N   0  0  0  0  0  0  0  0  0  0  0  0
    9.4896   14.2950   23.5792 O   0  0  0  0  0  0  0  0  0  0  0  0
    9.5072   15.8331   21.2524 O   0  0  0  0  0  0  0  0  0  0  0  0
    5.1841   14.1650   25.7724 H   0  0  0  0  0  0  0  0  0  0  0  0
    4.5694   11.7851   26.0728 H   0  0  0  0  0  0  0  0  0  0  0  0
   14.0334   14.2773   23.3814 H   0  0  0  0  0  0  0  0  0  0  0  0
   14.0349   15.6458   21.3121 H   0  0  0  0  0  0  0  0  0  0  0  0
    7.3083   14.7877   24.6942 H   0  0  0  0  0  0  0  0  0  0  0  0
    6.0743    9.9939   25.2962 H   0  0  0  0  0  0  0  0  0  0  0  0
   11.8913   13.6419   24.4470 H   0  0  0  0  0  0  0  0  0  0  0  0
   11.8955   16.3807   20.3082 H   0  0  0  0  0  0  0  0  0  0  0  0
   11.2419    9.4654   22.6614 H   0  0  0  0  0  0  0  0  0  0  0  0
   10.0775    6.7353   24.3944 H   0  0  0  0  0  0  0  0  0  0  0  0
    8.5984    6.6110   23.4103 H   0  0  0  0  0  0  0  0  0  0  0  0
   10.1564    6.8409   22.6183 H   0  0  0  0  0  0  0  0  0  0  0  0
    7.4657   14.8793   22.6795 H   0  0  0  0  0  0  0  0  0  0  0  0
    6.8507   15.9552   21.4019 H   0  0  0  0  0  0  0  0  0  0  0  0
    6.5704   14.2221   21.2887 H   0  0  0  0  0  0  0  0  0  0  0  0
    8.4224   14.9151   19.7633 H   0  0  0  0  0  0  0  0  0  0  0  0
    9.0431   13.8388   21.0419 H   0  0  0  0  0  0  0  0  0  0  0  0
  1  2  1  0  0  0  0
  1  5  2  0  0  0  0
  2  6  2  0  0  0  0
  3  4  1  0  0  0  0
  3  7  2  0  0  0  0
  4  8  2  0  0  0  0
  5 10  1  0  0  0  0
  6 11  1  0  0  0  0
  7 12  1  0  0  0  0
  8 13  1  0  0  0  0
  9 14  1  0  0  0  0
  9 15  2  0  0  0  0
 10 11  2  0  0  0  0
 10 16  1  0  0  0  0
 11 22  1  0  0  0  0
 12 13  2  0  0  0  0
 12 23  1  0  0  0  0
 13 24  1  0  0  0  0
 14 17  1  0  0  0  0
 14 20  2  0  0  0  0
 15 21  1  0  0  0  0
 15 22  1  0  0  0  0
 16 21  2  0  0  0  0
 16 23  1  0  0  0  0
 18 19  1  0  0  0  0
 19 24  1  0  0  0  0
 20 22  1  0  0  0  0
  1 25  1  0  0  0  0
  2 26  1  0  0  0  0
  3 27  1  0  0  0  0
  4 28  1  0  0  0  0
  5 29  1  0  0  0  0
  6 30  1  0  0  0  0
  7 31  1  0  0  0  0
  8 32  1  0  0  0  0
  9 33  1  0  0  0  0
 17 34  1  0  0  0  0
 17 35  1  0  0  0  0
 17 36  1  0  0  0  0
 18 37  1  0  0  0  0
 18 38  1  0  0  0  0
 18 39  1  0  0  0  0
 19 40  1  0  0  0  0
 19 41  1  0  0  0  0
M  END
> <idnumber>
Z98405516

> <heavy_atoms>
24

> <LogS>
-5.57

> <LogP>
4.33

> <rotating_bonds>
4

> <PSA>
48.65

> <hb_acceptors>
3

> <hb_donors>
0

> <Collection>
Legacy

> <link>
https://www.enaminestore.com/catalog/Z98405516

> <ROCS_ShapeQuery>
x0446_0A_x1080_0A_x0929_0A_x0812_0A_x0719_0A_x1140_0A_x0528_0A_x0310_0A

> <ROCS_TanimotoCombo>
0.484 

> <ROCS_ShapeTanimoto>
0.285 

> <ROCS_ColorTanimoto>
0.199 

> <ROCS_RefTversky>
0.253 

> <ROCS_RefColorTversky>
0.210 

> <ROCS_RefTverskyCombo>
0.463 

> <ROCS_FitTversky>
1.765 

> <ROCS_FitColorTversky>
0.790 

> <ROCS_FitTverskyCombo>
2.555 

> <ROCS_ColorScore>
-7.502

> <ROCS_Overlap>
2995.717

> <ROCS_Rank>
12                  

$$$$
untitled-dbase-1072501_195
  -OEChem-02092406493D

 47 50  0     0  0  0  0  0  0999 V2000
    9.4053   11.8995   23.7229 C   0  0  0  0  0  0  0  0  0  0  0  0
    8.1291   12.1943   24.1346 C   0  0  0  0  0  0  0  0  0  0  0  0
    9.4141   10.5048   23.5860 C   0  0  0  0  0  0  0  0  0  0  0  0
   10.6086   17.0588   22.2864 C   0  0  0  0  0  0  0  0  0  0  0  0
   11.7672   15.2262   22.0709 C   0  0  0  0  0  0  0  0  0  0  0  0
    7.4413   13.3954   24.4574 C   0  0  0  0  0  0  0  0  0  0  0  0
    9.4256   17.8205   22.2830 C   0  0  0  0  0  0  0  0  0  0  0  0
    6.1532   13.3390   24.8381 C   0  0  0  0  0  0  0  0  0  0  0  0
    8.2643   17.2164   22.0071 C   0  0  0  0  0  0  0  0  0  0  0  0
    5.4450   12.0759   24.9277 C   0  0  0  0  0  0  0  0  0  0  0  0
    6.0791   10.9255   24.6264 C   0  0  0  0  0  0  0  0  0  0  0  0
    8.2678   15.7403   21.7110 C   0  0  0  0  0  0  0  0  0  0  0  0
   10.4619   12.8406   23.4965 C   0  0  0  0  0  0  0  0  0  0  0  0
   10.5382    9.6485   23.1662 C   0  0  0  0  0  0  0  0  0  0  0  0
    5.4046    9.5894   24.6979 C   0  0  0  0  0  0  0  0  0  0  0  0
    6.9866   13.9883   20.5499 C   0  0  0  0  0  0  0  0  0  0  0  0
    5.8675   15.4678   22.1870 C   0  0  0  0  0  0  0  0  0  0  0  0
   12.1016   13.7834   21.8244 C   0  0  0  0  0  0  0  0  0  0  0  0
    8.2433    9.9413   23.8832 N   0  0  0  0  0  0  0  0  0  0  0  0
   11.8712   17.3530   22.5131 N   0  0  0  0  0  0  0  0  0  0  0  0
   12.6043   16.1918   22.3758 N   0  0  0  0  0  0  0  0  0  0  0  0
    9.3687   15.0237   21.7125 N   0  0  0  0  0  0  0  0  0  0  0  0
    7.4320   10.9827   24.2266 N   0  0  0  0  0  0  0  0  0  0  0  0
   10.4965   15.7187   22.0017 N   0  0  0  0  0  0  0  0  0  0  0  0
   11.0184   12.9048   22.2030 N   0  0  0  0  0  0  0  0  0  0  0  0
    7.0618   15.1392   21.4306 N   0  0  0  0  0  0  0  0  0  0  0  0
   10.8948   13.5707   24.4207 O   0  0  0  0  0  0  0  0  0  0  0  0
    7.9564   14.3479   24.3955 H   0  0  0  0  0  0  0  0  0  0  0  0
    9.4649   18.8813   22.5016 H   0  0  0  0  0  0  0  0  0  0  0  0
    5.6085   14.2427   25.0890 H   0  0  0  0  0  0  0  0  0  0  0  0
    7.3241   17.7540   21.9906 H   0  0  0  0  0  0  0  0  0  0  0  0
    4.4070   12.0976   25.2404 H   0  0  0  0  0  0  0  0  0  0  0  0
   11.1369    9.3221   24.0332 H   0  0  0  0  0  0  0  0  0  0  0  0
   10.1953    8.7418   22.6375 H   0  0  0  0  0  0  0  0  0  0  0  0
   11.2180   10.1675   22.4678 H   0  0  0  0  0  0  0  0  0  0  0  0
    4.9484    9.3595   23.7371 H   0  0  0  0  0  0  0  0  0  0  0  0
    4.6370    9.6088   25.4694 H   0  0  0  0  0  0  0  0  0  0  0  0
    6.1376    8.8236   24.9449 H   0  0  0  0  0  0  0  0  0  0  0  0
    7.0929   13.0664   21.1405 H   0  0  0  0  0  0  0  0  0  0  0  0
    6.0147   13.9837   20.0348 H   0  0  0  0  0  0  0  0  0  0  0  0
    7.7954   14.0424   19.8062 H   0  0  0  0  0  0  0  0  0  0  0  0
    5.3457   16.3066   21.7031 H   0  0  0  0  0  0  0  0  0  0  0  0
    5.2023   14.5924   22.2201 H   0  0  0  0  0  0  0  0  0  0  0  0
    6.1493   15.7532   23.2112 H   0  0  0  0  0  0  0  0  0  0  0  0
   12.3192   13.6132   20.7643 H   0  0  0  0  0  0  0  0  0  0  0  0
   12.9896   13.4835   22.3908 H   0  0  0  0  0  0  0  0  0  0  0  0
   10.6844   12.2542   21.4996 H   0  0  0  0  0  0  0  0  0  0  0  0
  1  2  2  0  0  0  0
  1  3  1  0  0  0  0
  1 13  1  0  0  0  0
  2  6  1  0  0  0  0
  2 23  1  0  0  0  0
  3 14  1  0  0  0  0
  3 19  2  0  0  0  0
  4  7  1  0  0  0  0
  4 20  2  0  0  0  0
  4 24  1  0  0  0  0
  5 18  1  0  0  0  0
  5 21  2  0  0  0  0
  5 24  1  0  0  0  0
  6  8  2  0  0  0  0
  7  9  2  0  0  0  0
  8 10  1  0  0  0  0
  9 12  1  0  0  0  0
 10 11  2  0  0  0  0
 11 15  1  0  0  0  0
 11 23  1  0  0  0  0
 12 22  2  0  0  0  0
 12 26  1  0  0  0  0
 13 25  1  0  0  0  0
 13 27  2  0  0  0  0
 16 26  1  0  0  0  0
 17 26  1  0  0  0  0
 18 25  1  0  0  0  0
 19 23  1  0  0  0  0
 20 21  1  0  0  0  0
 22 24  1  0  0  0  0
  6 28  1  0  0  0  0
  7 29  1  0  0  0  0
  8 30  1  0  0  0  0
  9 31  1  0  0  0  0
 10 32  1  0  0  0  0
 14 33  1  0  0  0  0
 14 34  1  0  0  0  0
 14 35  1  0  0  0  0
 15 36  1  0  0  0  0
 15 37  1  0  0  0  0
 15 38  1  0  0  0  0
 16 39  1  0  0  0  0
 16 40  1  0  0  0  0
 16 41  1  0  0  0  0
 17 42  1  0  0  0  0
 17 43  1  0  0  0  0
 17 44  1  0  0  0  0
 18 45  1  0  0  0  0
 18 46  1  0  0  0  0
 25 47  1  0  0  0  0
M  END
> <idnumber>
Z4129187788

> <heavy_atoms>
27

> <LogS>
-2.763

> <LogP>
0.922

> <rotating_bonds>
4

> <PSA>
92.72

> <hb_acceptors>
6

> <hb_donors>
1

> <Collection>
Advanced

> <link>
https://www.enaminestore.com/catalog/Z4129187788

> <ROCS_ShapeQuery>
x0446_0A_x1080_0A_x0929_0A_x0812_0A_x0719_0A_x1140_0A_x0528_0A_x0310_0A

> <ROCS_TanimotoCombo>
0.483 

> <ROCS_ShapeTanimoto>
0.282 

> <ROCS_ColorTanimoto>
0.201 

> <ROCS_RefTversky>
0.254 

> <ROCS_RefColorTversky>
0.222 

> <ROCS_RefTverskyCombo>
0.476 

> <ROCS_FitTversky>
1.645 

> <ROCS_FitColorTversky>
0.681 

> <ROCS_FitTverskyCombo>
2.326 

> <ROCS_ColorScore>
-7.963

> <ROCS_Overlap>
3003.810

> <ROCS_Rank>
13                  

$$$$
untitled-dbase-729919_72
  -OEChem-02092406493D

 58 63  0     1  0  0  0  0  0999 V2000
   12.9620   16.0489   21.9202 C   0  0  0  0  0  0  0  0  0  0  0  0
   13.1251   14.8625   22.6392 C   0  0  0  0  0  0  0  0  0  0  0  0
   11.7037   16.4351   21.4414 C   0  0  0  0  0  0  0  0  0  0  0  0
   12.0404   14.0205   22.9060 C   0  0  0  0  0  0  0  0  0  0  0  0
   10.6030   15.6009   21.7001 C   0  0  0  0  0  0  0  0  0  0  0  0
   10.7970   14.4251   22.4195 C   0  0  0  0  0  0  0  0  0  0  0  0
    4.3138   14.3681   21.6147 C   0  0  0  0  0  0  0  0  0  0  0  0
    8.6783   14.6865   21.8382 C   0  0  0  0  0  0  0  0  0  0  0  0
    3.7550   13.7900   19.7086 C   0  0  0  0  0  0  0  0  0  0  0  0
    9.0743   10.9043   25.5744 C   0  0  0  0  0  0  0  0  0  0  0  0
    9.5446    9.6556   23.4526 C   0  0  0  0  0  0  0  0  0  0  0  0
    7.2349   10.5113   23.9180 C   0  0  0  0  0  0  0  0  0  0  0  0
   10.4802   11.9591   23.7845 C   0  0  0  0  0  0  0  0  0  0  0  0
    8.1439   12.8245   24.2543 C   0  0  0  0  0  0  0  0  0  0  0  0
    8.6321   11.5804   22.1340 C   0  0  0  0  0  0  0  0  0  0  0  0
   10.1230   10.6352   24.4826 C   0  0  0  0  0  0  0  0  0  0  0  0
    7.7997   11.4961   24.9507 C   0  0  0  0  0  0  0  0  0  0  0  0
    8.2781   10.2511   22.8228 C   0  0  0  0  0  0  0  0  0  0  0  0
    9.2202   12.6179   23.1461 C   0  0  0  0  0  0  0  0  0  0  0  0
    3.5933   13.2558   18.3496 C   0  0  0  0  0  0  0  0  0  0  0  0
    6.1907   16.5150   22.0392 C   0  0  0  0  0  0  0  0  0  0  0  0
    5.1306   14.5233   22.8648 C   0  0  0  0  0  0  0  0  0  0  0  0
    7.2386   14.3765   21.7214 C   0  0  0  0  0  0  0  0  0  0  0  0
    9.2808   15.7464   21.3477 N   0  0  0  0  0  0  0  0  0  0  0  0
    4.7611   13.6618   20.5362 N   0  0  0  0  0  0  0  0  0  0  0  0
    3.1004   14.9138   21.4891 N   0  0  0  0  0  0  0  0  0  0  0  0
    9.5494   13.8606   22.4927 N   0  0  0  0  0  0  0  0  0  0  0  0
    6.4180   15.1782   22.6021 N   0  0  1  0  0  0  0  0  0  0  0  0
    2.7211   14.5230   20.1987 O   0  0  0  0  0  0  0  0  0  0  0  0
   13.8238   16.6832   21.7299 H   0  0  0  0  0  0  0  0  0  0  0  0
   14.1138   14.5874   22.9986 H   0  0  0  0  0  0  0  0  0  0  0  0
   11.5877   17.3591   20.8844 H   0  0  0  0  0  0  0  0  0  0  0  0
   12.1678   13.1002   23.4650 H   0  0  0  0  0  0  0  0  0  0  0  0
    8.8342    9.9710   26.0987 H   0  0  0  0  0  0  0  0  0  0  0  0
    9.4810   11.5942   26.3239 H   0  0  0  0  0  0  0  0  0  0  0  0
   10.2885    9.4459   22.6743 H   0  0  0  0  0  0  0  0  0  0  0  0
    9.3097    8.6989   23.9352 H   0  0  0  0  0  0  0  0  0  0  0  0
    6.9618    9.5687   24.4082 H   0  0  0  0  0  0  0  0  0  0  0  0
    6.3172   10.9168   23.4744 H   0  0  0  0  0  0  0  0  0  0  0  0
   10.9314   12.6487   24.5103 H   0  0  0  0  0  0  0  0  0  0  0  0
   11.2431   11.7812   23.0149 H   0  0  0  0  0  0  0  0  0  0  0  0
    7.2365   13.2665   23.8218 H   0  0  0  0  0  0  0  0  0  0  0  0
    8.5117   13.5450   24.9972 H   0  0  0  0  0  0  0  0  0  0  0  0
    9.3541   11.3987   21.3263 H   0  0  0  0  0  0  0  0  0  0  0  0
    7.7372   11.9977   21.6530 H   0  0  0  0  0  0  0  0  0  0  0  0
   11.0235   10.2047   24.9350 H   0  0  0  0  0  0  0  0  0  0  0  0
    7.0551   11.6752   25.7343 H   0  0  0  0  0  0  0  0  0  0  0  0
    7.8701    9.5513   22.0847 H   0  0  0  0  0  0  0  0  0  0  0  0
    3.1229   12.2562   18.3615 H   0  0  0  0  0  0  0  0  0  0  0  0
    2.9659   13.9075   17.7133 H   0  0  0  0  0  0  0  0  0  0  0  0
    4.5585   13.1592   17.8180 H   0  0  0  0  0  0  0  0  0  0  0  0
    7.1582   17.0008   21.8444 H   0  0  0  0  0  0  0  0  0  0  0  0
    5.6294   16.4256   21.0974 H   0  0  0  0  0  0  0  0  0  0  0  0
    5.6138   17.1204   22.7538 H   0  0  0  0  0  0  0  0  0  0  0  0
    4.5918   15.1237   23.6060 H   0  0  0  0  0  0  0  0  0  0  0  0
    5.3372   13.5502   23.3226 H   0  0  0  0  0  0  0  0  0  0  0  0
    6.8649   14.5442   20.6960 H   0  0  0  0  0  0  0  0  0  0  0  0
    7.0189   13.3207   21.9575 H   0  0  0  0  0  0  0  0  0  0  0  0
  1  2  1  0  0  0  0
  1  3  2  0  0  0  0
  2  4  2  0  0  0  0
  3  5  1  0  0  0  0
  4  6  1  0  0  0  0
  5  6  2  0  0  0  0
  5 24  1  0  0  0  0
  6 27  1  0  0  0  0
  7 22  1  0  0  0  0
  7 25  1  0  0  0  0
  7 26  2  0  0  0  0
  8 23  1  0  0  0  0
  8 24  2  0  0  0  0
  8 27  1  0  0  0  0
  9 20  1  0  0  0  0
  9 25  2  0  0  0  0
  9 29  1  0  0  0  0
 10 16  1  0  0  0  0
 10 17  1  0  0  0  0
 11 16  1  0  0  0  0
 11 18  1  0  0  0  0
 12 17  1  0  0  0  0
 12 18  1  0  0  0  0
 13 16  1  0  0  0  0
 13 19  1  0  0  0  0
 14 17  1  0  0  0  0
 14 19  1  0  0  0  0
 15 18  1  0  0  0  0
 15 19  1  0  0  0  0
 19 27  1  0  0  0  0
 21 28  1  0  0  0  0
 22 28  1  0  0  0  0
 23 28  1  0  0  0  0
 26 29  1  0  0  0  0
  1 30  1  0  0  0  0
  2 31  1  0  0  0  0
  3 32  1  0  0  0  0
  4 33  1  0  0  0  0
 10 34  1  0  0  0  0
 10 35  1  0  0  0  0
 11 36  1  0  0  0  0
 11 37  1  0  0  0  0
 12 38  1  0  0  0  0
 12 39  1  0  0  0  0
 13 40  1  0  0  0  0
 13 41  1  0  0  0  0
 14 42  1  0  0  0  0
 14 43  1  0  0  0  0
 15 44  1  0  0  0  0
 15 45  1  0  0  0  0
 16 46  1  0  0  0  0
 17 47  1  0  0  0  0
 18 48  1  0  0  0  0
 20 49  1  0  0  0  0
 20 50  1  0  0  0  0
 20 51  1  0  0  0  0
 21 52  1  0  0  0  0
 21 53  1  0  0  0  0
 21 54  1  0  0  0  0
 22 55  1  0  0  0  0
 22 56  1  0  0  0  0
 23 57  1  0  0  0  0
 23 58  1  0  0  0  0
M  END
> <idnumber>
Z1640984310

> <heavy_atoms>
29

> <LogS>
-3.501

> <LogP>
3.463

> <rotating_bonds>
5

> <PSA>
59.98

> <hb_acceptors>
4

> <hb_donors>
0

> <Collection>
Advanced

> <link>
https://www.enaminestore.com/catalog/Z1640984310

> <ROCS_ShapeQuery>
x0446_0A_x1080_0A_x0929_0A_x0812_0A_x0719_0A_x1140_0A_x0528_0A_x0310_0A

> <ROCS_TanimotoCombo>
0.483 

> <ROCS_ShapeTanimoto>
0.291 

> <ROCS_ColorTanimoto>
0.192 

> <ROCS_RefTversky>
0.262 

> <ROCS_RefColorTversky>
0.231 

> <ROCS_RefTverskyCombo>
0.493 

> <ROCS_FitTversky>
1.616 

> <ROCS_FitColorTversky>
0.532 

> <ROCS_FitTverskyCombo>
2.148 

> <ROCS_ColorScore>
-8.315

> <ROCS_Overlap>
3099.012

> <ROCS_Rank>
14                  

$$$$
untitled-dbase-412798_170
  -OEChem-02092406493D

 55 60  0     1  0  0  0  0  0999 V2000
   12.0896   16.1227   21.8895 C   0  0  0  0  0  0  0  0  0  0  0  0
   10.7324   15.9921   21.5954 C   0  0  0  0  0  0  0  0  0  0  0  0
   12.7491   15.1193   22.5993 C   0  0  0  0  0  0  0  0  0  0  0  0
   10.0347   14.8580   22.0111 C   0  0  0  0  0  0  0  0  0  0  0  0
   12.0514   13.9853   23.0151 C   0  0  0  0  0  0  0  0  0  0  0  0
   10.6942   13.8546   22.7210 C   0  0  0  0  0  0  0  0  0  0  0  0
    3.1731   13.3049   19.6245 C   0  0  0  0  0  0  0  0  0  0  0  0
    3.6839   13.3875   21.7482 C   0  0  0  0  0  0  0  0  0  0  0  0
    3.0612   12.6717   18.3553 C   0  0  0  0  0  0  0  0  0  0  0  0
    3.4526   11.3891   18.2202 C   0  0  0  0  0  0  0  0  0  0  0  0
    3.9888   10.6329   19.3434 C   0  0  0  0  0  0  0  0  0  0  0  0
    4.0950   11.2299   20.5424 C   0  0  0  0  0  0  0  0  0  0  0  0
    6.2179   12.1145   24.2155 C   0  0  0  0  0  0  0  0  0  0  0  0
    9.7957    9.7184   23.9551 C   0  0  0  0  0  0  0  0  0  0  0  0
    9.9392   11.4406   22.1413 C   0  0  0  0  0  0  0  0  0  0  0  0
   10.5437   12.0511   24.4976 C   0  0  0  0  0  0  0  0  0  0  0  0
    7.7008   10.6195   22.9122 C   0  0  0  0  0  0  0  0  0  0  0  0
    8.2995   11.2390   25.2697 C   0  0  0  0  0  0  0  0  0  0  0  0
    8.4336   12.9627   23.4464 C   0  0  0  0  0  0  0  0  0  0  0  0
    9.1589   10.2167   22.6504 C   0  0  2  0  0  0  0  0  0  0  0  0
    9.7589   10.8314   25.0114 C   0  0  1  0  0  0  0  0  0  0  0  0
    9.9260   12.6049   23.1797 C   0  0  0  0  0  0  0  0  0  0  0  0
    7.6510   11.7390   23.9650 C   0  0  0  0  0  0  0  0  0  0  0  0
    4.1665   12.9832   23.1112 C   0  0  0  0  0  0  0  0  0  0  0  0
    2.8828   14.5116   20.0619 N   0  0  0  0  0  0  0  0  0  0  0  0
    3.2060   14.5626   21.4035 N   0  0  0  0  0  0  0  0  0  0  0  0
    3.6878   12.5519   20.6683 N   0  0  0  0  0  0  0  0  0  0  0  0
    5.5517   12.5709   23.0942 N   0  0  0  0  0  0  0  0  0  0  0  0
    5.7507   11.9974   25.3423 O   0  0  0  0  0  0  0  0  0  0  0  0
   12.6330   17.0051   21.5645 H   0  0  0  0  0  0  0  0  0  0  0  0
   10.2189   16.7727   21.0418 H   0  0  0  0  0  0  0  0  0  0  0  0
   13.8061   15.2201   22.8275 H   0  0  0  0  0  0  0  0  0  0  0  0
    8.9773   14.7649   21.7777 H   0  0  0  0  0  0  0  0  0  0  0  0
   12.5735   13.2086   23.5677 H   0  0  0  0  0  0  0  0  0  0  0  0
    2.6623   13.2262   17.5135 H   0  0  0  0  0  0  0  0  0  0  0  0
    3.3764   10.8837   17.2635 H   0  0  0  0  0  0  0  0  0  0  0  0
    4.2921    9.6050   19.1867 H   0  0  0  0  0  0  0  0  0  0  0  0
    4.4860   10.7234   21.4160 H   0  0  0  0  0  0  0  0  0  0  0  0
    9.2584    8.8352   24.3215 H   0  0  0  0  0  0  0  0  0  0  0  0
   10.8318    9.4080   23.7727 H   0  0  0  0  0  0  0  0  0  0  0  0
   10.9749   11.1496   21.9186 H   0  0  0  0  0  0  0  0  0  0  0  0
    9.5080   11.7821   21.1904 H   0  0  0  0  0  0  0  0  0  0  0  0
   10.5488   12.8354   25.2665 H   0  0  0  0  0  0  0  0  0  0  0  0
   11.5940   11.7736   24.3352 H   0  0  0  0  0  0  0  0  0  0  0  0
    7.2296   10.9507   21.9774 H   0  0  0  0  0  0  0  0  0  0  0  0
    7.1265    9.7474   23.2521 H   0  0  0  0  0  0  0  0  0  0  0  0
    7.7411   10.3834   25.6720 H   0  0  0  0  0  0  0  0  0  0  0  0
    8.2587   12.0201   26.0403 H   0  0  0  0  0  0  0  0  0  0  0  0
    8.3703   13.7841   24.1743 H   0  0  0  0  0  0  0  0  0  0  0  0
    7.9700   13.3477   22.5268 H   0  0  0  0  0  0  0  0  0  0  0  0
    9.1912    9.4209   21.8977 H   0  0  0  0  0  0  0  0  0  0  0  0
   10.2104   10.4705   25.9423 H   0  0  0  0  0  0  0  0  0  0  0  0
    4.0709   13.8154   23.8172 H   0  0  0  0  0  0  0  0  0  0  0  0
    3.5744   12.1514   23.5069 H   0  0  0  0  0  0  0  0  0  0  0  0
    6.0596   12.6190   22.2161 H   0  0  0  0  0  0  0  0  0  0  0  0
  1  2  1  0  0  0  0
  1  3  2  0  0  0  0
  2  4  2  0  0  0  0
  3  5  1  0  0  0  0
  4  6  1  0  0  0  0
  5  6  2  0  0  0  0
  6 22  1  0  0  0  0
  7  9  1  0  0  0  0
  7 25  2  0  0  0  0
  7 27  1  0  0  0  0
  8 24  1  0  0  0  0
  8 26  2  0  0  0  0
  8 27  1  0  0  0  0
  9 10  2  0  0  0  0
 10 11  1  0  0  0  0
 11 12  2  0  0  0  0
 12 27  1  0  0  0  0
 13 23  1  0  0  0  0
 13 28  1  0  0  0  0
 13 29  2  0  0  0  0
 14 20  1  0  0  0  0
 14 21  1  0  0  0  0
 15 20  1  0  0  0  0
 15 22  1  0  0  0  0
 16 21  1  0  0  0  0
 16 22  1  0  0  0  0
 17 20  1  0  0  0  0
 17 23  1  0  0  0  0
 18 21  1  0  0  0  0
 18 23  1  0  0  0  0
 19 22  1  0  0  0  0
 19 23  1  0  0  0  0
 24 28  1  0  0  0  0
 25 26  1  0  0  0  0
  1 30  1  0  0  0  0
  2 31  1  0  0  0  0
  3 32  1  0  0  0  0
  4 33  1  0  0  0  0
  5 34  1  0  0  0  0
  9 35  1  0  0  0  0
 10 36  1  0  0  0  0
 11 37  1  0  0  0  0
 12 38  1  0  0  0  0
 14 39  1  0  0  0  0
 14 40  1  0  0  0  0
 15 41  1  0  0  0  0
 15 42  1  0  0  0  0
 16 43  1  0  0  0  0
 16 44  1  0  0  0  0
 17 45  1  0  0  0  0
 17 46  1  0  0  0  0
 18 47  1  0  0  0  0
 18 48  1  0  0  0  0
 19 49  1  0  0  0  0
 19 50  1  0  0  0  0
 20 51  1  0  0  0  0
 21 52  1  0  0  0  0
 24 53  1  0  0  0  0
 24 54  1  0  0  0  0
 28 55  1  0  0  0  0
M  END
> <idnumber>
Z70902196

> <heavy_atoms>
29

> <LogS>
-5.55

> <LogP>
3.185

> <rotating_bonds>
4

> <PSA>
59.29

> <hb_acceptors>
3

> <hb_donors>
1

> <Collection>
Legacy

> <link>
https://www.enaminestore.com/catalog/Z70902196

> <ROCS_ShapeQuery>
x0446_0A_x1080_0A_x0929_0A_x0812_0A_x0719_0A_x1140_0A_x0528_0A_x0310_0A

> <ROCS_TanimotoCombo>
0.482 

> <ROCS_ShapeTanimoto>
0.283 

> <ROCS_ColorTanimoto>
0.199 

> <ROCS_RefTversky>
0.256 

> <ROCS_RefColorTversky>
0.235 

> <ROCS_RefTverskyCombo>
0.491 

> <ROCS_FitTversky>
1.582 

> <ROCS_FitColorTversky>
0.567 

> <ROCS_FitTverskyCombo>
2.149 

> <ROCS_ColorScore>
-8.476

> <ROCS_Overlap>
3029.308

> <ROCS_Rank>
15                  

$$$$
untitled-dbase-1158196_185
  -OEChem-02092406493D

 62 66  0     1  0  0  0  0  0999 V2000
   11.7316   13.9657   22.8241 C   0  0  0  0  0  0  0  0  0  0  0  0
   12.8346   14.7154   22.4275 C   0  0  0  0  0  0  0  0  0  0  0  0
   10.4382   14.3613   22.4409 C   0  0  0  0  0  0  0  0  0  0  0  0
   10.2360   15.5096   21.6580 C   0  0  0  0  0  0  0  0  0  0  0  0
   11.3576   16.2412   21.2754 C   0  0  0  0  0  0  0  0  0  0  0  0
   12.6470   15.8544   21.6524 C   0  0  0  0  0  0  0  0  0  0  0  0
    9.2939   13.6564   22.8035 C   0  0  0  0  0  0  0  0  0  0  0  0
    7.9755   15.1292   21.7011 C   0  0  0  0  0  0  0  0  0  0  0  0
    7.2409   10.7326   23.8403 C   0  0  0  0  0  0  0  0  0  0  0  0
    8.0331   10.8143   22.5180 C   0  0  0  0  0  0  0  0  0  0  0  0
    4.3766   13.7545   20.1868 C   0  0  0  0  0  0  0  0  0  0  0  0
    2.9901   15.1680   21.7930 C   0  0  0  0  0  0  0  0  0  0  0  0
    9.5430   10.3082   24.2847 C   0  0  0  0  0  0  0  0  0  0  0  0
    8.7626   12.4554   24.8829 C   0  0  0  0  0  0  0  0  0  0  0  0
    3.2647   13.6492   19.1550 C   0  0  0  0  0  0  0  0  0  0  0  0
    4.3099   15.0519   21.0087 C   0  0  1  0  0  0  0  0  0  0  0  0
    1.7311   15.1807   20.9172 C   0  0  1  0  0  0  0  0  0  0  0  0
    8.3243   10.9717   24.9213 C   0  0  1  0  0  0  0  0  0  0  0  0
    9.4541   11.1623   22.9975 C   0  0  1  0  0  0  0  0  0  0  0  0
    1.6151   16.4482   20.0751 C   0  0  0  0  0  0  0  0  0  0  0  0
    7.9511   10.4753   26.2994 C   0  0  0  0  0  0  0  0  0  0  0  0
   10.5660   10.9343   22.0019 C   0  0  0  0  0  0  0  0  0  0  0  0
    5.4956   15.1150   21.9755 C   0  0  0  0  0  0  0  0  0  0  0  0
    9.0034   15.8969   21.2857 N   0  0  0  0  0  0  0  0  0  0  0  0
    8.0460   14.0160   22.4485 N   0  0  0  0  0  0  0  0  0  0  0  0
    9.4150   12.5302   23.5639 N   0  0  1  0  0  0  0  0  0  0  0  0
    6.6842   15.5423   21.3066 N   0  0  0  0  0  0  0  0  0  0  0  0
    0.6778   13.9021   18.8554 O   0  0  0  0  0  0  0  0  0  0  0  0
    1.5427   12.5574   20.7980 O   0  0  0  0  0  0  0  0  0  0  0  0
   11.1871   17.3429   20.5261 F   0  0  0  0  0  0  0  0  0  0  0  0
    1.6536   13.6986   19.9088 S   0  0  0  0  0  0  0  0  0  0  0  0
   14.1457   16.8743   21.1126 Br  0  0  0  0  0  0  0  0  0  0  0  0
   11.9039   13.0795   23.4294 H   0  0  0  0  0  0  0  0  0  0  0  0
   13.8290   14.3989   22.7301 H   0  0  0  0  0  0  0  0  0  0  0  0
    6.4436   11.4823   23.8817 H   0  0  0  0  0  0  0  0  0  0  0  0
    6.7823    9.7420   23.9393 H   0  0  0  0  0  0  0  0  0  0  0  0
    8.0131    9.8421   22.0110 H   0  0  0  0  0  0  0  0  0  0  0  0
    7.6124   11.5552   21.8305 H   0  0  0  0  0  0  0  0  0  0  0  0
    4.3264   12.8941   20.8559 H   0  0  0  0  0  0  0  0  0  0  0  0
    5.3430   13.7113   19.6802 H   0  0  0  0  0  0  0  0  0  0  0  0
    2.9258   14.3380   22.5071 H   0  0  0  0  0  0  0  0  0  0  0  0
    3.0256   16.0869   22.3921 H   0  0  0  0  0  0  0  0  0  0  0  0
   10.4732   10.4673   24.8426 H   0  0  0  0  0  0  0  0  0  0  0  0
    9.4108    9.2357   24.1011 H   0  0  0  0  0  0  0  0  0  0  0  0
    7.9025   13.1302   24.9652 H   0  0  0  0  0  0  0  0  0  0  0  0
    9.4878   12.6948   25.6688 H   0  0  0  0  0  0  0  0  0  0  0  0
    3.3132   14.4875   18.4524 H   0  0  0  0  0  0  0  0  0  0  0  0
    3.3325   12.7219   18.5785 H   0  0  0  0  0  0  0  0  0  0  0  0
    4.4006   15.8858   20.3537 H   0  0  0  0  0  0  0  0  0  0  0  0
    0.8315   15.1314   21.5766 H   0  0  0  0  0  0  0  0  0  0  0  0
    2.4771   16.5345   19.4148 H   0  0  0  0  0  0  0  0  0  0  0  0
    1.5757   17.3219   20.7243 H   0  0  0  0  0  0  0  0  0  0  0  0
    0.7082   16.4112   19.4730 H   0  0  0  0  0  0  0  0  0  0  0  0
    8.7573   10.6750   27.0117 H   0  0  0  0  0  0  0  0  0  0  0  0
    7.7659    9.3970   26.2828 H   0  0  0  0  0  0  0  0  0  0  0  0
    7.0452   10.9747   26.6560 H   0  0  0  0  0  0  0  0  0  0  0  0
   11.5338   11.2096   22.4334 H   0  0  0  0  0  0  0  0  0  0  0  0
   10.4084   11.5371   21.1017 H   0  0  0  0  0  0  0  0  0  0  0  0
   10.6100    9.8811   21.7059 H   0  0  0  0  0  0  0  0  0  0  0  0
    5.2630   15.8249   22.7829 H   0  0  0  0  0  0  0  0  0  0  0  0
    5.6638   14.1156   22.4031 H   0  0  0  0  0  0  0  0  0  0  0  0
    6.6271   16.1605   20.5203 H   0  0  0  0  0  0  0  0  0  0  0  0
  1  2  2  0  0  0  0
  1  3  1  0  0  0  0
  2  6  1  0  0  0  0
  3  4  2  0  0  0  0
  3  7  1  0  0  0  0
  4  5  1  0  0  0  0
  4 24  1  0  0  0  0
  5  6  2  0  0  0  0
  5 30  1  0  0  0  0
  6 32  1  0  0  0  0
  7 25  2  0  0  0  0
  7 26  1  0  0  0  0
  8 24  2  0  0  0  0
  8 25  1  0  0  0  0
  8 27  1  0  0  0  0
  9 10  1  0  0  0  0
  9 18  1  0  0  0  0
 10 19  1  0  0  0  0
 11 15  1  0  0  0  0
 11 16  1  0  0  0  0
 12 16  1  0  0  0  0
 12 17  1  0  0  0  0
 13 18  1  0  0  0  0
 13 19  1  0  0  0  0
 14 18  1  0  0  0  0
 14 26  1  0  0  0  0
 15 31  1  0  0  0  0
 16 23  1  1  0  0  0
 17 20  1  6  0  0  0
 17 31  1  0  0  0  0
 18 21  1  0  0  0  0
 19 22  1  0  0  0  0
 19 26  1  0  0  0  0
 23 27  1  0  0  0  0
 28 31  2  0  0  0  0
 29 31  2  0  0  0  0
  1 33  1  0  0  0  0
  2 34  1  0  0  0  0
  9 35  1  0  0  0  0
  9 36  1  0  0  0  0
 10 37  1  0  0  0  0
 10 38  1  0  0  0  0
 11 39  1  0  0  0  0
 11 40  1  0  0  0  0
 12 41  1  0  0  0  0
 12 42  1  0  0  0  0
 13 43  1  0  0  0  0
 13 44  1  0  0  0  0
 14 45  1  0  0  0  0
 14 46  1  0  0  0  0
 15 47  1  0  0  0  0
 15 48  1  0  0  0  0
 16 49  1  0  0  0  0
 17 50  1  0  0  0  0
 20 51  1  0  0  0  0
 20 52  1  0  0  0  0
 20 53  1  0  0  0  0
 21 54  1  0  0  0  0
 21 55  1  0  0  0  0
 21 56  1  0  0  0  0
 22 57  1  0  0  0  0
 22 58  1  0  0  0  0
 22 59  1  0  0  0  0
 23 60  1  0  0  0  0
 23 61  1  0  0  0  0
 27 62  1  0  0  0  0
M  END
> <idnumber>
Z7684844886

> <heavy_atoms>
32

> <LogS>
-6.974

> <LogP>
4.699

> <rotating_bonds>
4

> <PSA>
75.19

> <hb_acceptors>
6

> <hb_donors>
1

> <Collection>
Advanced

> <link>
https://www.enaminestore.com/catalog/Z7684844886

> <ROCS_ShapeQuery>
x0446_0A_x1080_0A_x0929_0A_x0812_0A_x0719_0A_x1140_0A_x0528_0A_x0310_0A

> <ROCS_TanimotoCombo>
0.481 

> <ROCS_ShapeTanimoto>
0.274 

> <ROCS_ColorTanimoto>
0.208 

> <ROCS_RefTversky>
0.251 

> <ROCS_RefColorTversky>
0.250 

> <ROCS_RefTverskyCombo>
0.501 

> <ROCS_FitTversky>
1.494 

> <ROCS_FitColorTversky>
0.549 

> <ROCS_FitTverskyCombo>
2.043 

> <ROCS_ColorScore>
-9.033

> <ROCS_Overlap>
2968.577

> <ROCS_Rank>
16                  

$$$$
untitled-dbase-922075_75
  -OEChem-02092406493D

 56 61  0     1  0  0  0  0  0999 V2000
   12.8537   16.0632   21.7642 C   0  0  0  0  0  0  0  0  0  0  0  0
   13.0765   14.8730   22.4604 C   0  0  0  0  0  0  0  0  0  0  0  0
   11.5633   16.4365   21.3678 C   0  0  0  0  0  0  0  0  0  0  0  0
   12.0215   14.0140   22.7857 C   0  0  0  0  0  0  0  0  0  0  0  0
   10.4916   15.5853   21.6861 C   0  0  0  0  0  0  0  0  0  0  0  0
   10.7451   14.4060   22.3809 C   0  0  0  0  0  0  0  0  0  0  0  0
    8.5913   14.6436   21.9344 C   0  0  0  0  0  0  0  0  0  0  0  0
    4.3100   14.3182   21.9322 C   0  0  0  0  0  0  0  0  0  0  0  0
    3.7944   13.5156   20.0187 C   0  0  0  0  0  0  0  0  0  0  0  0
    9.2673   10.8346   25.6026 C   0  0  0  0  0  0  0  0  0  0  0  0
    9.6214    9.6110   23.4439 C   0  0  0  0  0  0  0  0  0  0  0  0
    7.3340   10.4312   24.0595 C   0  0  0  0  0  0  0  0  0  0  0  0
   10.5458   11.9241   23.7393 C   0  0  0  0  0  0  0  0  0  0  0  0
    8.2319   12.7535   24.3610 C   0  0  0  0  0  0  0  0  0  0  0  0
    8.6040   11.5347   22.2028 C   0  0  0  0  0  0  0  0  0  0  0  0
   10.2497   10.5894   24.4455 C   0  0  0  0  0  0  0  0  0  0  0  0
    7.9489   11.4145   25.0646 C   0  0  0  0  0  0  0  0  0  0  0  0
    8.3107   10.1948   22.8994 C   0  0  0  0  0  0  0  0  0  0  0  0
    9.2400   12.5712   23.1864 C   0  0  0  0  0  0  0  0  0  0  0  0
    6.0973   16.4363   22.3063 C   0  0  0  0  0  0  0  0  0  0  0  0
    7.1513   14.3151   21.9039 C   0  0  0  0  0  0  0  0  0  0  0  0
    5.1164   14.4233   23.1767 C   0  0  0  0  0  0  0  0  0  0  0  0
    9.1484   15.7158   21.4177 N   0  0  0  0  0  0  0  0  0  0  0  0
    3.2733   15.0218   21.6120 N   0  0  0  0  0  0  0  0  0  0  0  0
    9.5119   13.8239   22.5258 N   0  0  0  0  0  0  0  0  0  0  0  0
    2.9383   14.5205   20.3991 N   0  0  0  0  0  0  0  0  0  0  0  0
    6.3765   15.0979   22.8413 N   0  0  2  0  0  0  0  0  0  0  0  0
    3.7828   12.8531   18.9942 O   0  0  0  0  0  0  0  0  0  0  0  0
    4.6983   13.3854   21.0345 O   0  0  0  0  0  0  0  0  0  0  0  0
   13.6938   16.7109   21.5270 H   0  0  0  0  0  0  0  0  0  0  0  0
   14.0891   14.6082   22.7552 H   0  0  0  0  0  0  0  0  0  0  0  0
   11.4010   17.3637   20.8279 H   0  0  0  0  0  0  0  0  0  0  0  0
   12.1952   13.0907   23.3269 H   0  0  0  0  0  0  0  0  0  0  0  0
    9.0723    9.8937   26.1318 H   0  0  0  0  0  0  0  0  0  0  0  0
    9.7106   11.5235   26.3320 H   0  0  0  0  0  0  0  0  0  0  0  0
   10.3183    9.4183   22.6191 H   0  0  0  0  0  0  0  0  0  0  0  0
    9.4293    8.6471   23.9310 H   0  0  0  0  0  0  0  0  0  0  0  0
    7.1041    9.4808   24.5566 H   0  0  0  0  0  0  0  0  0  0  0  0
    6.3854   10.8281   23.6774 H   0  0  0  0  0  0  0  0  0  0  0  0
   11.0320   12.6134   24.4423 H   0  0  0  0  0  0  0  0  0  0  0  0
   11.2617   11.7633   22.9224 H   0  0  0  0  0  0  0  0  0  0  0  0
    7.2938   13.1869   23.9896 H   0  0  0  0  0  0  0  0  0  0  0  0
    8.6356   13.4725   25.0865 H   0  0  0  0  0  0  0  0  0  0  0  0
    9.2768   11.3699   21.3503 H   0  0  0  0  0  0  0  0  0  0  0  0
    7.6756   11.9440   21.7820 H   0  0  0  0  0  0  0  0  0  0  0  0
   11.1821   10.1672   24.8372 H   0  0  0  0  0  0  0  0  0  0  0  0
    7.2520   11.5767   25.8945 H   0  0  0  0  0  0  0  0  0  0  0  0
    7.8668    9.4960   22.1814 H   0  0  0  0  0  0  0  0  0  0  0  0
    5.5082   17.0087   23.0380 H   0  0  0  0  0  0  0  0  0  0  0  0
    7.0458   16.9581   22.1108 H   0  0  0  0  0  0  0  0  0  0  0  0
    5.5290   16.3452   21.3689 H   0  0  0  0  0  0  0  0  0  0  0  0
    6.7126   14.4866   20.9052 H   0  0  0  0  0  0  0  0  0  0  0  0
    6.9604   13.2544   22.1430 H   0  0  0  0  0  0  0  0  0  0  0  0
    5.3129   13.4206   23.5642 H   0  0  0  0  0  0  0  0  0  0  0  0
    4.5603   15.0019   23.9185 H   0  0  0  0  0  0  0  0  0  0  0  0
    2.1430   14.8908   19.8941 H   0  0  0  0  0  0  0  0  0  0  0  0
  1  2  1  0  0  0  0
  1  3  2  0  0  0  0
  2  4  2  0  0  0  0
  3  5  1  0  0  0  0
  4  6  1  0  0  0  0
  5  6  2  0  0  0  0
  5 23  1  0  0  0  0
  6 25  1  0  0  0  0
  7 21  1  0  0  0  0
  7 23  2  0  0  0  0
  7 25  1  0  0  0  0
  8 22  1  0  0  0  0
  8 24  2  0  0  0  0
  8 29  1  0  0  0  0
  9 26  1  0  0  0  0
  9 28  2  0  0  0  0
  9 29  1  0  0  0  0
 10 16  1  0  0  0  0
 10 17  1  0  0  0  0
 11 16  1  0  0  0  0
 11 18  1  0  0  0  0
 12 17  1  0  0  0  0
 12 18  1  0  0  0  0
 13 16  1  0  0  0  0
 13 19  1  0  0  0  0
 14 17  1  0  0  0  0
 14 19  1  0  0  0  0
 15 18  1  0  0  0  0
 15 19  1  0  0  0  0
 19 25  1  0  0  0  0
 20 27  1  0  0  0  0
 21 27  1  0  0  0  0
 22 27  1  0  0  0  0
 24 26  1  0  0  0  0
  1 30  1  0  0  0  0
  2 31  1  0  0  0  0
  3 32  1  0  0  0  0
  4 33  1  0  0  0  0
 10 34  1  0  0  0  0
 10 35  1  0  0  0  0
 11 36  1  0  0  0  0
 11 37  1  0  0  0  0
 12 38  1  0  0  0  0
 12 39  1  0  0  0  0
 13 40  1  0  0  0  0
 13 41  1  0  0  0  0
 14 42  1  0  0  0  0
 14 43  1  0  0  0  0
 15 44  1  0  0  0  0
 15 45  1  0  0  0  0
 16 46  1  0  0  0  0
 17 47  1  0  0  0  0
 18 48  1  0  0  0  0
 20 49  1  0  0  0  0
 20 50  1  0  0  0  0
 20 51  1  0  0  0  0
 21 52  1  0  0  0  0
 21 53  1  0  0  0  0
 22 54  1  0  0  0  0
 22 55  1  0  0  0  0
 26 56  1  0  0  0  0
M  END
> <idnumber>
Z2601457277

> <heavy_atoms>
29

> <LogS>
-4.158

> <LogP>
3.589

> <rotating_bonds>
5

> <PSA>
71.75

> <hb_acceptors>
4

> <hb_donors>
1

> <Collection>
Advanced

> <link>
https://www.enaminestore.com/catalog/Z2601457277

> <ROCS_ShapeQuery>
x0446_0A_x1080_0A_x0929_0A_x0812_0A_x0719_0A_x1140_0A_x0528_0A_x0310_0A

> <ROCS_TanimotoCombo>
0.481 

> <ROCS_ShapeTanimoto>
0.292 

> <ROCS_ColorTanimoto>
0.189 

> <ROCS_RefTversky>
0.263 

> <ROCS_RefColorTversky>
0.232 

> <ROCS_RefTverskyCombo>
0.495 

> <ROCS_FitTversky>
1.614 

> <ROCS_FitColorTversky>
0.505 

> <ROCS_FitTverskyCombo>
2.118 

> <ROCS_ColorScore>
-8.362

> <ROCS_Overlap>
3112.011

> <ROCS_Rank>
17                  

$$$$
untitled-dbase-610516_3
  -OEChem-02092406493D

 36 39  0     0  0  0  0  0  0999 V2000
    5.8575   13.5332   25.0706 C   0  0  0  0  0  0  0  0  0  0  0  0
    5.4554   12.2046   25.2446 C   0  0  0  0  0  0  0  0  0  0  0  0
   13.4595   15.1859   22.0591 C   0  0  0  0  0  0  0  0  0  0  0  0
   13.3190   14.4550   23.2388 C   0  0  0  0  0  0  0  0  0  0  0  0
    7.1246   13.8310   24.5624 C   0  0  0  0  0  0  0  0  0  0  0  0
    6.3149   11.1567   24.9127 C   0  0  0  0  0  0  0  0  0  0  0  0
   12.3279   15.6201   21.3687 C   0  0  0  0  0  0  0  0  0  0  0  0
   12.0469   14.1583   23.7281 C   0  0  0  0  0  0  0  0  0  0  0  0
    7.9878   12.7880   24.2290 C   0  0  0  0  0  0  0  0  0  0  0  0
    7.5766   11.4617   24.4066 C   0  0  0  0  0  0  0  0  0  0  0  0
   11.0558   15.3234   21.8580 C   0  0  0  0  0  0  0  0  0  0  0  0
   10.9153   14.5925   23.0377 C   0  0  0  0  0  0  0  0  0  0  0  0
   10.3581    9.5495   23.3189 C   0  0  0  0  0  0  0  0  0  0  0  0
    9.4026    8.5949   23.7094 C   0  0  0  0  0  0  0  0  0  0  0  0
    9.7577   10.7696   23.5448 C   0  0  0  0  0  0  0  0  0  0  0  0
    9.3458   12.9839   23.6860 C   0  0  0  0  0  0  0  0  0  0  0  0
    9.5209    7.1257   23.6802 C   0  0  0  0  0  0  0  0  0  0  0  0
    8.2721    9.1473   24.1534 N   0  0  0  0  0  0  0  0  0  0  0  0
   10.1838   12.0492   23.3621 N   0  0  0  0  0  0  0  0  0  0  0  0
    8.5044   10.4718   24.0472 N   0  0  0  0  0  0  0  0  0  0  0  0
    9.9133   15.7741   21.1413 N   0  3  0  0  0  0  0  0  0  0  0  0
   10.0797   16.4288   20.0851 O   0  5  0  0  0  0  0  0  0  0  0  0
    8.7729   15.5038   21.5871 O   0  0  0  0  0  0  0  0  0  0  0  0
    9.6674   14.2847   23.5411 O   0  0  0  0  0  0  0  0  0  0  0  0
   11.9065    9.2426   22.7049 Cl  0  0  0  0  0  0  0  0  0  0  0  0
    5.1784   14.3398   25.3335 H   0  0  0  0  0  0  0  0  0  0  0  0
    4.4672   11.9884   25.6409 H   0  0  0  0  0  0  0  0  0  0  0  0
   14.4501   15.4167   21.6780 H   0  0  0  0  0  0  0  0  0  0  0  0
   14.2000   14.1171   23.7766 H   0  0  0  0  0  0  0  0  0  0  0  0
    7.4099   14.8713   24.4392 H   0  0  0  0  0  0  0  0  0  0  0  0
    5.9831   10.1331   25.0561 H   0  0  0  0  0  0  0  0  0  0  0  0
   12.4527   16.1891   20.4505 H   0  0  0  0  0  0  0  0  0  0  0  0
   11.9446   13.5886   24.6481 H   0  0  0  0  0  0  0  0  0  0  0  0
    9.9320    6.7395   24.6280 H   0  0  0  0  0  0  0  0  0  0  0  0
    8.5466    6.6335   23.5141 H   0  0  0  0  0  0  0  0  0  0  0  0
   10.1790    6.7779   22.8647 H   0  0  0  0  0  0  0  0  0  0  0  0
  1  2  1  0  0  0  0
  1  5  2  0  0  0  0
  2  6  2  0  0  0  0
  3  4  1  0  0  0  0
  3  7  2  0  0  0  0
  4  8  2  0  0  0  0
  5  9  1  0  0  0  0
  6 10  1  0  0  0  0
  7 11  1  0  0  0  0
  8 12  1  0  0  0  0
  9 10  2  0  0  0  0
  9 16  1  0  0  0  0
 10 20  1  0  0  0  0
 11 12  2  0  0  0  0
 11 21  1  0  0  0  0
 12 24  1  0  0  0  0
 13 14  1  0  0  0  0
 13 15  2  0  0  0  0
 13 25  1  0  0  0  0
 14 17  1  0  0  0  0
 14 18  2  0  0  0  0
 15 19  1  0  0  0  0
 15 20  1  0  0  0  0
 16 19  2  0  0  0  0
 16 24  1  0  0  0  0
 18 20  1  0  0  0  0
 21 22  1  0  0  0  0
 21 23  2  0  0  0  0
  1 26  1  0  0  0  0
  2 27  1  0  0  0  0
  3 28  1  0  0  0  0
  4 29  1  0  0  0  0
  5 30  1  0  0  0  0
  6 31  1  0  0  0  0
  7 32  1  0  0  0  0
  8 33  1  0  0  0  0
 17 34  1  0  0  0  0
 17 35  1  0  0  0  0
 17 36  1  0  0  0  0
M  CHG  2  21   1  22  -1
M  END
> <idnumber>
Z165207934

> <heavy_atoms>
25

> <LogS>
-6.56

> <LogP>
4.412

> <rotating_bonds>
3

> <PSA>
82.56

> <hb_acceptors>
4

> <hb_donors>
0

> <Collection>
HTS

> <link>
https://www.enaminestore.com/catalog/Z165207934

> <ROCS_ShapeQuery>
x0446_0A_x1080_0A_x0929_0A_x0812_0A_x0719_0A_x1140_0A_x0528_0A_x0310_0A

> <ROCS_TanimotoCombo>
0.481 

> <ROCS_ShapeTanimoto>
0.281 

> <ROCS_ColorTanimoto>
0.200 

> <ROCS_RefTversky>
0.252 

> <ROCS_RefColorTversky>
0.215 

> <ROCS_RefTverskyCombo>
0.467 

> <ROCS_FitTversky>
1.704 

> <ROCS_FitColorTversky>
0.736 

> <ROCS_FitTverskyCombo>
2.440 

> <ROCS_ColorScore>
-7.701

> <ROCS_Overlap>
2976.642

> <ROCS_Rank>
18                  

$$$$
untitled-dbase-988865_0
  -OEChem-02092406493D

 40 44  0     1  0  0  0  0  0999 V2000
    5.3523   12.3748   24.8042 C   0  0  0  0  0  0  0  0  0  0  0  0
    6.1773   13.4026   25.2557 C   0  0  0  0  0  0  0  0  0  0  0  0
    5.9042   11.2734   24.1484 C   0  0  0  0  0  0  0  0  0  0  0  0
    7.5547   13.3296   25.0522 C   0  0  0  0  0  0  0  0  0  0  0  0
    7.2868   11.1955   23.9422 C   0  0  0  0  0  0  0  0  0  0  0  0
    8.1092   12.2269   24.3972 C   0  0  0  0  0  0  0  0  0  0  0  0
   10.8962   14.6370   22.0339 C   0  0  0  0  0  0  0  0  0  0  0  0
    7.8724   10.0566   23.2583 C   0  0  0  0  0  0  0  0  0  0  0  0
    9.1973   10.0264   23.1020 C   0  0  0  0  0  0  0  0  0  0  0  0
   13.3284   15.7277   21.7841 C   0  0  0  0  0  0  0  0  0  0  0  0
   12.2691   16.4789   21.4343 C   0  0  0  0  0  0  0  0  0  0  0  0
   12.0678   13.8670   22.3982 C   0  0  0  0  0  0  0  0  0  0  0  0
   12.1994   11.4944   25.0284 C   0  0  0  0  0  0  0  0  0  0  0  0
   11.0945   10.5118   24.6344 C   0  0  0  0  0  0  0  0  0  0  0  0
   12.9240   12.0364   23.8011 C   0  0  0  0  0  0  0  0  0  0  0  0
   10.9049   11.6930   22.4015 C   0  0  0  0  0  0  0  0  0  0  0  0
   10.1207   11.1173   23.6006 C   0  0  1  0  0  0  0  0  0  0  0  0
    9.6340   14.2908   22.0812 N   0  0  0  0  0  0  0  0  0  0  0  0
    8.9445   15.3920   21.6245 N   0  0  0  0  0  0  0  0  0  0  0  0
    9.7701   16.3854   21.3070 N   0  0  0  0  0  0  0  0  0  0  0  0
   13.2544   14.4286   22.2652 N   0  0  0  0  0  0  0  0  0  0  0  0
   11.0113   15.9235   21.5603 N   0  0  0  0  0  0  0  0  0  0  0  0
   11.9575   12.6014   22.8644 N   0  0  3  0  0  0  0  0  0  0  0  0
    9.4648   12.2386   24.2382 O   0  0  0  0  0  0  0  0  0  0  0  0
    4.2792   12.4306   24.9620 H   0  0  0  0  0  0  0  0  0  0  0  0
    5.7480   14.2601   25.7654 H   0  0  0  0  0  0  0  0  0  0  0  0
    5.2445   10.4812   23.8020 H   0  0  0  0  0  0  0  0  0  0  0  0
    8.1914   14.1361   25.4067 H   0  0  0  0  0  0  0  0  0  0  0  0
    7.2393    9.2577   22.8911 H   0  0  0  0  0  0  0  0  0  0  0  0
    9.6423    9.1745   22.5932 H   0  0  0  0  0  0  0  0  0  0  0  0
   14.3308   16.1333   21.6974 H   0  0  0  0  0  0  0  0  0  0  0  0
   12.3477   17.4913   21.0608 H   0  0  0  0  0  0  0  0  0  0  0  0
   11.7740   12.3257   25.6038 H   0  0  0  0  0  0  0  0  0  0  0  0
   12.9173   10.9918   25.6865 H   0  0  0  0  0  0  0  0  0  0  0  0
   11.5604    9.6019   24.2334 H   0  0  0  0  0  0  0  0  0  0  0  0
   10.5500   10.2242   25.5430 H   0  0  0  0  0  0  0  0  0  0  0  0
   13.6581   12.7871   24.1170 H   0  0  0  0  0  0  0  0  0  0  0  0
   13.4819   11.2334   23.3047 H   0  0  0  0  0  0  0  0  0  0  0  0
   11.3698   10.8928   21.8112 H   0  0  0  0  0  0  0  0  0  0  0  0
   10.2159   12.2282   21.7350 H   0  0  0  0  0  0  0  0  0  0  0  0
  1  2  1  0  0  0  0
  1  3  2  0  0  0  0
  2  4  2  0  0  0  0
  3  5  1  0  0  0  0
  4  6  1  0  0  0  0
  5  6  2  0  0  0  0
  5  8  1  0  0  0  0
  6 24  1  0  0  0  0
  7 12  1  0  0  0  0
  7 18  2  0  0  0  0
  7 22  1  0  0  0  0
  8  9  2  0  0  0  0
  9 17  1  0  0  0  0
 10 11  2  0  0  0  0
 10 21  1  0  0  0  0
 11 22  1  0  0  0  0
 12 21  2  0  0  0  0
 12 23  1  0  0  0  0
 13 14  1  0  0  0  0
 13 15  1  0  0  0  0
 14 17  1  0  0  0  0
 15 23  1  0  0  0  0
 16 17  1  0  0  0  0
 16 23  1  0  0  0  0
 17 24  1  0  0  0  0
 18 19  1  0  0  0  0
 19 20  2  0  0  0  0
 20 22  1  0  0  0  0
  1 25  1  0  0  0  0
  2 26  1  0  0  0  0
  3 27  1  0  0  0  0
  4 28  1  0  0  0  0
  8 29  1  0  0  0  0
  9 30  1  0  0  0  0
 10 31  1  0  0  0  0
 11 32  1  0  0  0  0
 13 33  1  0  0  0  0
 13 34  1  0  0  0  0
 14 35  1  0  0  0  0
 14 36  1  0  0  0  0
 15 37  1  0  0  0  0
 15 38  1  0  0  0  0
 16 39  1  0  0  0  0
 16 40  1  0  0  0  0
M  END
> <idnumber>
Z2976508284

> <heavy_atoms>
24

> <LogS>
-3.752

> <LogP>
2.344

> <rotating_bonds>
1

> <PSA>
68.44

> <hb_acceptors>
6

> <hb_donors>
0

> <Collection>
HTS

> <link>
https://www.enaminestore.com/catalog/Z2976508284

> <ROCS_ShapeQuery>
x0446_0A_x1080_0A_x0929_0A_x0812_0A_x0719_0A_x1140_0A_x0528_0A_x0310_0A

> <ROCS_TanimotoCombo>
0.480 

> <ROCS_ShapeTanimoto>
0.262 

> <ROCS_ColorTanimoto>
0.219 

> <ROCS_RefTversky>
0.237 

> <ROCS_RefColorTversky>
0.240 

> <ROCS_RefTverskyCombo>
0.477 

> <ROCS_FitTversky>
1.637 

> <ROCS_FitColorTversky>
0.716 

> <ROCS_FitTverskyCombo>
2.353 

> <ROCS_ColorScore>
-8.595

> <ROCS_Overlap>
2806.253

> <ROCS_Rank>
19                  

$$$$
untitled-dbase-512099_7
  -OEChem-02092406493D

 34 36  0     0  0  0  0  0  0999 V2000
    5.7470   13.1156   25.0386 C   0  0  0  0  0  0  0  0  0  0  0  0
    5.4448   11.7625   25.1439 C   0  0  0  0  0  0  0  0  0  0  0  0
    7.0001   13.5051   24.5761 C   0  0  0  0  0  0  0  0  0  0  0  0
    6.3956   10.8021   24.7863 C   0  0  0  0  0  0  0  0  0  0  0  0
   11.9698   13.9331   23.8541 C   0  0  0  0  0  0  0  0  0  0  0  0
   13.2557   14.1775   23.3848 C   0  0  0  0  0  0  0  0  0  0  0  0
    7.9507   12.5332   24.2184 C   0  0  0  0  0  0  0  0  0  0  0  0
    7.6572   11.1636   24.3202 C   0  0  0  0  0  0  0  0  0  0  0  0
   10.8741   14.4124   23.1448 C   0  0  0  0  0  0  0  0  0  0  0  0
   13.3911   14.9004   22.2106 C   0  0  0  0  0  0  0  0  0  0  0  0
   11.1162   15.1250   21.9814 C   0  0  0  0  0  0  0  0  0  0  0  0
    9.2209   12.8554   23.7488 C   0  0  0  0  0  0  0  0  0  0  0  0
    9.7546   10.6659   23.5395 C   0  0  0  0  0  0  0  0  0  0  0  0
   14.7562   15.1813   21.6778 C   0  0  0  0  0  0  0  0  0  0  0  0
   10.7495    9.6197   23.1661 C   0  0  0  0  0  0  0  0  0  0  0  0
    8.5588   10.2257   23.9807 N   0  0  0  0  0  0  0  0  0  0  0  0
   12.3507   15.3822   21.4942 N   0  0  0  0  0  0  0  0  0  0  0  0
   10.1471   11.9425   23.4006 N   0  0  0  0  0  0  0  0  0  0  0  0
    9.9665   15.6048   21.2744 N   0  3  0  0  0  0  0  0  0  0  0  0
   10.1423   16.2521   20.2210 O   0  5  0  0  0  0  0  0  0  0  0  0
    8.8345   15.3569   21.7401 O   0  0  0  0  0  0  0  0  0  0  0  0
    9.6002   14.1660   23.6155 O   0  0  0  0  0  0  0  0  0  0  0  0
   10.2902    8.3437   23.3306 F   0  0  0  0  0  0  0  0  0  0  0  0
   11.1516    9.6878   21.8624 F   0  0  0  0  0  0  0  0  0  0  0  0
   11.8937    9.6949   23.9064 F   0  0  0  0  0  0  0  0  0  0  0  0
    5.0109   13.8633   25.3173 H   0  0  0  0  0  0  0  0  0  0  0  0
    4.4692   11.4494   25.5041 H   0  0  0  0  0  0  0  0  0  0  0  0
    7.2215   14.5665   24.4995 H   0  0  0  0  0  0  0  0  0  0  0  0
    6.1347    9.7494   24.8788 H   0  0  0  0  0  0  0  0  0  0  0  0
   11.8291   13.3690   24.7719 H   0  0  0  0  0  0  0  0  0  0  0  0
   14.1188   13.8090   23.9289 H   0  0  0  0  0  0  0  0  0  0  0  0
   15.0734   14.3796   21.0002 H   0  0  0  0  0  0  0  0  0  0  0  0
   14.7813   16.1315   21.1292 H   0  0  0  0  0  0  0  0  0  0  0  0
   15.4908   15.2630   22.4892 H   0  0  0  0  0  0  0  0  0  0  0  0
  1  2  1  0  0  0  0
  1  3  2  0  0  0  0
  2  4  2  0  0  0  0
  3  7  1  0  0  0  0
  4  8  1  0  0  0  0
  5  6  2  0  0  0  0
  5  9  1  0  0  0  0
  6 10  1  0  0  0  0
  7  8  1  0  0  0  0
  7 12  2  0  0  0  0
  8 16  2  0  0  0  0
  9 11  2  0  0  0  0
  9 22  1  0  0  0  0
 10 14  1  0  0  0  0
 10 17  2  0  0  0  0
 11 17  1  0  0  0  0
 11 19  1  0  0  0  0
 12 18  1  0  0  0  0
 12 22  1  0  0  0  0
 13 15  1  0  0  0  0
 13 16  1  0  0  0  0
 13 18  2  0  0  0  0
 15 23  1  0  0  0  0
 15 24  1  0  0  0  0
 15 25  1  0  0  0  0
 19 20  1  0  0  0  0
 19 21  2  0  0  0  0
  1 26  1  0  0  0  0
  2 27  1  0  0  0  0
  3 28  1  0  0  0  0
  4 29  1  0  0  0  0
  5 30  1  0  0  0  0
  6 31  1  0  0  0  0
 14 32  1  0  0  0  0
 14 33  1  0  0  0  0
 14 34  1  0  0  0  0
M  CHG  2  19   1  20  -1
M  END
> <idnumber>
Z86280727

> <heavy_atoms>
25

> <LogS>
-5.54

> <LogP>
2.765

> <rotating_bonds>
4

> <PSA>
91.04

> <hb_acceptors>
5

> <hb_donors>
0

> <Collection>
Legacy

> <link>
https://www.enaminestore.com/catalog/Z86280727

> <ROCS_ShapeQuery>
x0446_0A_x1080_0A_x0929_0A_x0812_0A_x0719_0A_x1140_0A_x0528_0A_x0310_0A

> <ROCS_TanimotoCombo>
0.480 

> <ROCS_ShapeTanimoto>
0.280 

> <ROCS_ColorTanimoto>
0.200 

> <ROCS_RefTversky>
0.251 

> <ROCS_RefColorTversky>
0.216 

> <ROCS_RefTverskyCombo>
0.467 

> <ROCS_FitTversky>
1.700 

> <ROCS_FitColorTversky>
0.738 

> <ROCS_FitTverskyCombo>
2.438 

> <ROCS_ColorScore>
-7.712

> <ROCS_Overlap>
2968.250

> <ROCS_Rank>
20                  

$$$$
untitled-dbase-880895_65
  -OEChem-02092406493D

 48 50  0     1  0  0  0  0  0999 V2000
    6.0951   11.0526   25.1265 C   0  0  0  0  0  0  0  0  0  0  0  0
    7.2861   10.9707   24.3931 C   0  0  0  0  0  0  0  0  0  0  0  0
    7.8805   12.2007   24.5355 C   0  0  0  0  0  0  0  0  0  0  0  0
    7.9442    9.9654   23.6037 C   0  0  0  0  0  0  0  0  0  0  0  0
    9.6740   11.7423   23.2969 C   0  0  0  0  0  0  0  0  0  0  0  0
   13.0661   15.8308   22.3719 C   0  0  0  0  0  0  0  0  0  0  0  0
   12.5416   16.0347   20.9542 C   0  0  0  0  0  0  0  0  0  0  0  0
   11.9344   15.5563   23.3606 C   0  0  0  0  0  0  0  0  0  0  0  0
   11.6652   14.8688   20.4983 C   0  0  0  0  0  0  0  0  0  0  0  0
   11.0257   14.3920   22.9281 C   0  0  1  0  0  0  0  0  0  0  0  0
   10.5291   14.5812   21.4840 C   0  0  1  0  0  0  0  0  0  0  0  0
    7.3148   15.2282   24.5330 C   0  0  0  0  0  0  0  0  0  0  0  0
    8.5166   14.4059   26.5968 C   0  0  0  0  0  0  0  0  0  0  0  0
    6.0694   14.8283   26.6452 C   0  0  0  0  0  0  0  0  0  0  0  0
   11.7242   13.0417   23.1099 C   0  0  0  0  0  0  0  0  0  0  0  0
    7.2226   14.2941   25.7600 C   0  0  0  0  0  0  0  0  0  0  0  0
    5.9377   12.2529   25.6988 N   0  0  0  0  0  0  0  0  0  0  0  0
    9.0516   12.6438   24.0237 N   0  0  0  0  0  0  0  0  0  0  0  0
    7.0415   12.9304   25.3215 N   0  0  0  0  0  0  0  0  0  0  0  0
    9.1539   10.4456   23.0842 N   0  0  0  0  0  0  0  0  0  0  0  0
   10.8512   11.9936   22.7055 N   0  0  0  0  0  0  0  0  0  0  0  0
    7.4940    8.8412   23.4193 O   0  0  0  0  0  0  0  0  0  0  0  0
    9.6098   15.6757   21.4687 O   0  0  0  0  0  0  0  0  0  0  0  0
    5.3334   10.3005   25.2735 H   0  0  0  0  0  0  0  0  0  0  0  0
   13.7765   14.9958   22.3852 H   0  0  0  0  0  0  0  0  0  0  0  0
   13.6187   16.7241   22.6896 H   0  0  0  0  0  0  0  0  0  0  0  0
   11.9666   16.9679   20.9034 H   0  0  0  0  0  0  0  0  0  0  0  0
   13.3874   16.1462   20.2625 H   0  0  0  0  0  0  0  0  0  0  0  0
   12.3672   15.3393   24.3511 H   0  0  0  0  0  0  0  0  0  0  0  0
   11.3340   16.4717   23.4819 H   0  0  0  0  0  0  0  0  0  0  0  0
   11.2473   15.0857   19.5060 H   0  0  0  0  0  0  0  0  0  0  0  0
   12.2792   13.9688   20.3683 H   0  0  0  0  0  0  0  0  0  0  0  0
   10.1382   14.3780   23.5911 H   0  0  0  0  0  0  0  0  0  0  0  0
    9.9780   13.6872   21.1595 H   0  0  0  0  0  0  0  0  0  0  0  0
    6.4074   15.1679   23.9211 H   0  0  0  0  0  0  0  0  0  0  0  0
    7.4376   16.2783   24.8190 H   0  0  0  0  0  0  0  0  0  0  0  0
    8.1664   14.9585   23.8975 H   0  0  0  0  0  0  0  0  0  0  0  0
    8.4968   13.7591   27.4803 H   0  0  0  0  0  0  0  0  0  0  0  0
    9.3945   14.1154   26.0082 H   0  0  0  0  0  0  0  0  0  0  0  0
    8.6714   15.4338   26.9448 H   0  0  0  0  0  0  0  0  0  0  0  0
    5.9432   14.2105   27.5426 H   0  0  0  0  0  0  0  0  0  0  0  0
    6.2629   15.8519   26.9867 H   0  0  0  0  0  0  0  0  0  0  0  0
    5.1121   14.8171   26.1115 H   0  0  0  0  0  0  0  0  0  0  0  0
   12.6186   13.0598   22.4915 H   0  0  0  0  0  0  0  0  0  0  0  0
   11.9737   12.9515   24.1645 H   0  0  0  0  0  0  0  0  0  0  0  0
    9.7001    9.8105   22.5092 H   0  0  0  0  0  0  0  0  0  0  0  0
   11.1027   11.3739   21.9212 H   0  0  0  0  0  0  0  0  0  0  0  0
    9.2757   15.7430   20.5609 H   0  0  0  0  0  0  0  0  0  0  0  0
  1  2  1  0  0  0  0
  1 17  2  0  0  0  0
  2  3  2  0  0  0  0
  2  4  1  0  0  0  0
  3 18  1  0  0  0  0
  3 19  1  0  0  0  0
  4 20  1  0  0  0  0
  4 22  2  0  0  0  0
  5 18  2  0  0  0  0
  5 20  1  0  0  0  0
  5 21  1  0  0  0  0
  6  7  1  0  0  0  0
  6  8  1  0  0  0  0
  7  9  1  0  0  0  0
  8 10  1  0  0  0  0
  9 11  1  0  0  0  0
 10 11  1  0  0  0  0
 10 15  1  1  0  0  0
 11 23  1  6  0  0  0
 12 16  1  0  0  0  0
 13 16  1  0  0  0  0
 14 16  1  0  0  0  0
 15 21  1  0  0  0  0
 16 19  1  0  0  0  0
 17 19  1  0  0  0  0
  1 24  1  0  0  0  0
  6 25  1  0  0  0  0
  6 26  1  0  0  0  0
  7 27  1  0  0  0  0
  7 28  1  0  0  0  0
  8 29  1  0  0  0  0
  8 30  1  0  0  0  0
  9 31  1  0  0  0  0
  9 32  1  0  0  0  0
 10 33  1  0  0  0  0
 11 34  1  0  0  0  0
 12 35  1  0  0  0  0
 12 36  1  0  0  0  0
 12 37  1  0  0  0  0
 13 38  1  0  0  0  0
 13 39  1  0  0  0  0
 13 40  1  0  0  0  0
 14 41  1  0  0  0  0
 14 42  1  0  0  0  0
 14 43  1  0  0  0  0
 15 44  1  0  0  0  0
 15 45  1  0  0  0  0
 20 46  1  0  0  0  0
 21 47  1  0  0  0  0
 23 48  1  0  0  0  0
M  END
> <idnumber>
Z2274200196

> <heavy_atoms>
23

> <LogS>
-3.722

> <LogP>
1.757

> <rotating_bonds>
4

> <PSA>
91.54

> <hb_acceptors>
5

> <hb_donors>
3

> <Collection>
Advanced

> <link>
https://www.enaminestore.com/catalog/Z2274200196

> <ROCS_ShapeQuery>
x0446_0A_x1080_0A_x0929_0A_x0812_0A_x0719_0A_x1140_0A_x0528_0A_x0310_0A

> <ROCS_TanimotoCombo>
0.480 

> <ROCS_ShapeTanimoto>
0.256 

> <ROCS_ColorTanimoto>
0.224 

> <ROCS_RefTversky>
0.231 

> <ROCS_RefColorTversky>
0.246 

> <ROCS_RefTverskyCombo>
0.478 

> <ROCS_FitTversky>
1.700 

> <ROCS_FitColorTversky>
0.716 

> <ROCS_FitTverskyCombo>
2.416 

> <ROCS_ColorScore>
-8.838

> <ROCS_Overlap>
2734.216

> <ROCS_Rank>
21                  

$$$$
untitled-dbase-231729_67
  -OEChem-02092406493D

 59 63  0     1  0  0  0  0  0999 V2000
    9.7903   14.2269   22.3089 C   0  0  0  0  0  0  0  0  0  0  0  0
    5.4539   11.9060   24.1674 C   0  0  0  0  0  0  0  0  0  0  0  0
   10.4850   10.4035   24.1954 C   0  0  0  0  0  0  0  0  0  0  0  0
    9.9815   12.8540   24.3688 C   0  0  0  0  0  0  0  0  0  0  0  0
   10.2876   11.7890   22.1146 C   0  0  0  0  0  0  0  0  0  0  0  0
    8.2104   11.1684   24.9252 C   0  0  0  0  0  0  0  0  0  0  0  0
    8.5168   10.1028   22.6699 C   0  0  0  0  0  0  0  0  0  0  0  0
    8.0099   12.5590   22.8407 C   0  0  0  0  0  0  0  0  0  0  0  0
   11.8571   15.4502   21.4256 C   0  0  0  0  0  0  0  0  0  0  0  0
   12.2217   14.2695   23.1884 C   0  0  0  0  0  0  0  0  0  0  0  0
    4.2208   12.5206   22.0110 C   0  0  0  0  0  0  0  0  0  0  0  0
    3.6457   13.6993   23.7182 C   0  0  0  0  0  0  0  0  0  0  0  0
    9.7172   11.4725   24.9900 C   0  0  1  0  0  0  0  0  0  0  0  0
   10.0245   10.4041   22.7285 C   0  0  2  0  0  0  0  0  0  0  0  0
    9.5185   12.8692   22.8993 C   0  0  0  0  0  0  0  0  0  0  0  0
    7.7205   11.1698   23.4578 C   0  0  0  0  0  0  0  0  0  0  0  0
   13.0421   15.3215   22.4085 C   0  0  0  0  0  0  0  0  0  0  0  0
    3.0849   13.5303   22.2882 C   0  0  0  0  0  0  0  0  0  0  0  0
   13.3355   16.5909   23.1976 C   0  0  0  0  0  0  0  0  0  0  0  0
    1.6884   12.9241   22.2359 C   0  0  0  0  0  0  0  0  0  0  0  0
    6.2214   10.8642   23.3984 C   0  0  0  0  0  0  0  0  0  0  0  0
   11.1071   14.5956   22.3233 N   0  0  0  0  0  0  0  0  0  0  0  0
    4.5551   12.6132   23.4175 N   0  0  0  0  0  0  0  0  0  0  0  0
    8.8819   14.9254   21.8616 O   0  0  0  0  0  0  0  0  0  0  0  0
    5.6440   12.0856   25.3693 O   0  0  0  0  0  0  0  0  0  0  0  0
   14.2737   14.8385   21.8300 O   0  0  0  0  0  0  0  0  0  0  0  0
    3.1055   14.7215   21.4725 O   0  0  0  0  0  0  0  0  0  0  0  0
   11.5630   10.5992   24.2494 H   0  0  0  0  0  0  0  0  0  0  0  0
   10.3183    9.4147   24.6399 H   0  0  0  0  0  0  0  0  0  0  0  0
    9.4568   13.6290   24.9431 H   0  0  0  0  0  0  0  0  0  0  0  0
   11.0506   13.0950   24.4351 H   0  0  0  0  0  0  0  0  0  0  0  0
   11.3649   12.0012   22.1251 H   0  0  0  0  0  0  0  0  0  0  0  0
    9.9845   11.7953   21.0593 H   0  0  0  0  0  0  0  0  0  0  0  0
    8.0114   10.1944   25.3907 H   0  0  0  0  0  0  0  0  0  0  0  0
    7.6585   11.9154   25.5102 H   0  0  0  0  0  0  0  0  0  0  0  0
    8.1863   10.0792   21.6234 H   0  0  0  0  0  0  0  0  0  0  0  0
    8.3246    9.1043   23.0832 H   0  0  0  0  0  0  0  0  0  0  0  0
    7.4438   13.3338   23.3760 H   0  0  0  0  0  0  0  0  0  0  0  0
    7.6596   12.5926   21.8000 H   0  0  0  0  0  0  0  0  0  0  0  0
   11.4276   16.4496   21.3139 H   0  0  0  0  0  0  0  0  0  0  0  0
   12.0093   14.9975   20.4413 H   0  0  0  0  0  0  0  0  0  0  0  0
   12.5577   13.2346   23.0754 H   0  0  0  0  0  0  0  0  0  0  0  0
   12.0405   14.4903   24.2438 H   0  0  0  0  0  0  0  0  0  0  0  0
    3.9124   11.5185   21.7007 H   0  0  0  0  0  0  0  0  0  0  0  0
    5.0244   12.8812   21.3619 H   0  0  0  0  0  0  0  0  0  0  0  0
    4.1626   14.6441   23.9107 H   0  0  0  0  0  0  0  0  0  0  0  0
    2.9512   13.4805   24.5337 H   0  0  0  0  0  0  0  0  0  0  0  0
   10.0504   11.4670   26.0339 H   0  0  0  0  0  0  0  0  0  0  0  0
   10.5755    9.6408   22.1678 H   0  0  0  0  0  0  0  0  0  0  0  0
   14.1796   16.4266   23.8672 H   0  0  0  0  0  0  0  0  0  0  0  0
   12.4640   16.8716   23.7890 H   0  0  0  0  0  0  0  0  0  0  0  0
   13.5780   17.4058   22.5155 H   0  0  0  0  0  0  0  0  0  0  0  0
    0.9414   13.6911   22.4401 H   0  0  0  0  0  0  0  0  0  0  0  0
    1.5972   12.1340   22.9811 H   0  0  0  0  0  0  0  0  0  0  0  0
    1.5021   12.5026   21.2481 H   0  0  0  0  0  0  0  0  0  0  0  0
    6.0273    9.8841   23.8304 H   0  0  0  0  0  0  0  0  0  0  0  0
    5.8863   10.8731   22.3627 H   0  0  0  0  0  0  0  0  0  0  0  0
   14.9075   14.8135   22.5568 H   0  0  0  0  0  0  0  0  0  0  0  0
    2.3468   15.2437   21.7595 H   0  0  0  0  0  0  0  0  0  0  0  0
  1 15  1  0  0  0  0
  1 22  1  0  0  0  0
  1 24  2  0  0  0  0
  2 21  1  0  0  0  0
  2 23  1  0  0  0  0
  2 25  2  0  0  0  0
  3 13  1  0  0  0  0
  3 14  1  0  0  0  0
  4 13  1  0  0  0  0
  4 15  1  0  0  0  0
  5 14  1  0  0  0  0
  5 15  1  0  0  0  0
  6 13  1  0  0  0  0
  6 16  1  0  0  0  0
  7 14  1  0  0  0  0
  7 16  1  0  0  0  0
  8 15  1  0  0  0  0
  8 16  1  0  0  0  0
  9 17  1  0  0  0  0
  9 22  1  0  0  0  0
 10 17  1  0  0  0  0
 10 22  1  0  0  0  0
 11 18  1  0  0  0  0
 11 23  1  0  0  0  0
 12 18  1  0  0  0  0
 12 23  1  0  0  0  0
 16 21  1  0  0  0  0
 17 19  1  0  0  0  0
 17 26  1  0  0  0  0
 18 20  1  0  0  0  0
 18 27  1  0  0  0  0
  3 28  1  0  0  0  0
  3 29  1  0  0  0  0
  4 30  1  0  0  0  0
  4 31  1  0  0  0  0
  5 32  1  0  0  0  0
  5 33  1  0  0  0  0
  6 34  1  0  0  0  0
  6 35  1  0  0  0  0
  7 36  1  0  0  0  0
  7 37  1  0  0  0  0
  8 38  1  0  0  0  0
  8 39  1  0  0  0  0
  9 40  1  0  0  0  0
  9 41  1  0  0  0  0
 10 42  1  0  0  0  0
 10 43  1  0  0  0  0
 11 44  1  0  0  0  0
 11 45  1  0  0  0  0
 12 46  1  0  0  0  0
 12 47  1  0  0  0  0
 13 48  1  0  0  0  0
 14 49  1  0  0  0  0
 19 50  1  0  0  0  0
 19 51  1  0  0  0  0
 19 52  1  0  0  0  0
 20 53  1  0  0  0  0
 20 54  1  0  0  0  0
 20 55  1  0  0  0  0
 21 56  1  0  0  0  0
 21 57  1  0  0  0  0
 26 58  1  0  0  0  0
 27 59  1  0  0  0  0
M  END
> <idnumber>
Z1875127959

> <heavy_atoms>
27

> <LogS>
-3.578

> <LogP>
1.366

> <rotating_bonds>
3

> <PSA>
81.08

> <hb_acceptors>
4

> <hb_donors>
2

> <Collection>
HTS

> <link>
https://www.enaminestore.com/catalog/Z1875127959

> <ROCS_ShapeQuery>
x0446_0A_x1080_0A_x0929_0A_x0812_0A_x0719_0A_x1140_0A_x0528_0A_x0310_0A

> <ROCS_TanimotoCombo>
0.480 

> <ROCS_ShapeTanimoto>
0.252 

> <ROCS_ColorTanimoto>
0.228 

> <ROCS_RefTversky>
0.232 

> <ROCS_RefColorTversky>
0.266 

> <ROCS_RefTverskyCombo>
0.498 

> <ROCS_FitTversky>
1.534 

> <ROCS_FitColorTversky>
0.614 

> <ROCS_FitTverskyCombo>
2.148 

> <ROCS_ColorScore>
-9.583

> <ROCS_Overlap>
2742.791

> <ROCS_Rank>
22                  

$$$$
untitled-dbase-454131_45
  -OEChem-02092406493D

 62 67  0     1  0  0  0  0  0999 V2000
   10.6283   14.3621   21.4012 C   0  0  0  0  0  0  0  0  0  0  0  0
   11.8709   14.3500   23.4730 C   0  0  0  0  0  0  0  0  0  0  0  0
   11.3788   15.4508   20.9573 C   0  0  0  0  0  0  0  0  0  0  0  0
   12.6215   15.4387   23.0292 C   0  0  0  0  0  0  0  0  0  0  0  0
    4.1975   11.3765   20.5351 C   0  0  0  0  0  0  0  0  0  0  0  0
    3.2135   13.1564   19.2310 C   0  0  0  0  0  0  0  0  0  0  0  0
    4.0925   10.5171   19.4414 C   0  0  0  0  0  0  0  0  0  0  0  0
    3.1085   12.2971   18.1373 C   0  0  0  0  0  0  0  0  0  0  0  0
    4.5215   14.5365   23.3608 C   0  0  0  0  0  0  0  0  0  0  0  0
   10.8743   13.8117   22.6590 C   0  0  0  0  0  0  0  0  0  0  0  0
   12.3754   15.9891   21.7713 C   0  0  0  0  0  0  0  0  0  0  0  0
    3.7579   12.6961   20.4299 C   0  0  0  0  0  0  0  0  0  0  0  0
    3.5481   10.9774   18.2425 C   0  0  0  0  0  0  0  0  0  0  0  0
    3.3793   15.1446   22.8063 C   0  0  0  0  0  0  0  0  0  0  0  0
    4.8119   13.5044   22.5024 C   0  0  0  0  0  0  0  0  0  0  0  0
    6.2423   12.2195   23.8027 C   0  0  0  0  0  0  0  0  0  0  0  0
    9.8042    9.8162   24.1852 C   0  0  0  0  0  0  0  0  0  0  0  0
   10.1669   11.3507   22.2384 C   0  0  0  0  0  0  0  0  0  0  0  0
   10.5081   12.1925   24.5762 C   0  0  0  0  0  0  0  0  0  0  0  0
    7.8485   10.6057   22.8288 C   0  0  0  0  0  0  0  0  0  0  0  0
    8.1837   11.4565   25.1663 C   0  0  0  0  0  0  0  0  0  0  0  0
    8.5382   12.9916   23.2088 C   0  0  0  0  0  0  0  0  0  0  0  0
    9.3229   10.1817   22.7742 C   0  0  2  0  0  0  0  0  0  0  0  0
    9.6591   11.0281   25.1157 C   0  0  1  0  0  0  0  0  0  0  0  0
   10.0477   12.6120   23.1489 C   0  0  0  0  0  0  0  0  0  0  0  0
    7.6909   11.8238   23.7538 C   0  0  0  0  0  0  0  0  0  0  0  0
   13.1787   17.1521   21.2953 C   0  0  0  0  0  0  0  0  0  0  0  0
    2.6414   16.3080   23.3263 C   0  0  0  0  0  0  0  0  0  0  0  0
    2.9720   14.5486   21.6826 N   0  0  0  0  0  0  0  0  0  0  0  0
    3.8631   13.5552   21.5239 N   0  0  0  0  0  0  0  0  0  0  0  0
    5.5697   12.2441   24.8249 O   0  0  0  0  0  0  0  0  0  0  0  0
    5.8253   12.5432   22.5164 O   0  0  0  0  0  0  0  0  0  0  0  0
    3.4209    9.9177   16.8925 Cl  0  0  0  0  0  0  0  0  0  0  0  0
    9.8533   13.9495   20.7605 H   0  0  0  0  0  0  0  0  0  0  0  0
   12.0701   13.9265   24.4540 H   0  0  0  0  0  0  0  0  0  0  0  0
   11.1812   15.8722   19.9753 H   0  0  0  0  0  0  0  0  0  0  0  0
   13.3960   15.8521   23.6698 H   0  0  0  0  0  0  0  0  0  0  0  0
    4.6242   11.0044   21.4634 H   0  0  0  0  0  0  0  0  0  0  0  0
    2.8673   14.1827   19.1354 H   0  0  0  0  0  0  0  0  0  0  0  0
    4.4385    9.4911   19.5374 H   0  0  0  0  0  0  0  0  0  0  0  0
    2.6818   12.6693   17.2094 H   0  0  0  0  0  0  0  0  0  0  0  0
    5.0600   14.8068   24.2576 H   0  0  0  0  0  0  0  0  0  0  0  0
    9.2209    8.9725   24.5738 H   0  0  0  0  0  0  0  0  0  0  0  0
   10.8513    9.4912   24.1524 H   0  0  0  0  0  0  0  0  0  0  0  0
   11.2183   11.0411   22.1638 H   0  0  0  0  0  0  0  0  0  0  0  0
    9.8486   11.5957   21.2159 H   0  0  0  0  0  0  0  0  0  0  0  0
   10.4339   13.0491   25.2598 H   0  0  0  0  0  0  0  0  0  0  0  0
   11.5673   11.9023   24.5616 H   0  0  0  0  0  0  0  0  0  0  0  0
    7.4885   10.8420   21.8187 H   0  0  0  0  0  0  0  0  0  0  0  0
    7.2315    9.7704   23.1859 H   0  0  0  0  0  0  0  0  0  0  0  0
    7.5757   10.6438   25.5852 H   0  0  0  0  0  0  0  0  0  0  0  0
    8.0638   12.3099   25.8466 H   0  0  0  0  0  0  0  0  0  0  0  0
    8.4011   13.8809   23.8405 H   0  0  0  0  0  0  0  0  0  0  0  0
    8.1846   13.2829   22.2094 H   0  0  0  0  0  0  0  0  0  0  0  0
    9.4323    9.3154   22.1121 H   0  0  0  0  0  0  0  0  0  0  0  0
    9.9996   10.7619   26.1227 H   0  0  0  0  0  0  0  0  0  0  0  0
   12.6980   18.0936   21.5881 H   0  0  0  0  0  0  0  0  0  0  0  0
   14.1930   17.1342   21.7146 H   0  0  0  0  0  0  0  0  0  0  0  0
   13.2864   17.1414   20.2028 H   0  0  0  0  0  0  0  0  0  0  0  0
    3.0416   17.2518   22.9176 H   0  0  0  0  0  0  0  0  0  0  0  0
    1.5664   16.2667   23.0752 H   0  0  0  0  0  0  0  0  0  0  0  0
    2.6913   16.3754   24.4280 H   0  0  0  0  0  0  0  0  0  0  0  0
  1  3  2  0  0  0  0
  1 10  1  0  0  0  0
  2  4  1  0  0  0  0
  2 10  2  0  0  0  0
  3 11  1  0  0  0  0
  4 11  2  0  0  0  0
  5  7  2  0  0  0  0
  5 12  1  0  0  0  0
  6  8  1  0  0  0  0
  6 12  2  0  0  0  0
  7 13  1  0  0  0  0
  8 13  2  0  0  0  0
  9 14  1  0  0  0  0
  9 15  2  0  0  0  0
 10 25  1  0  0  0  0
 11 27  1  0  0  0  0
 12 30  1  0  0  0  0
 13 33  1  0  0  0  0
 14 28  1  0  0  0  0
 14 29  2  0  0  0  0
 15 30  1  0  0  0  0
 15 32  1  0  0  0  0
 16 26  1  0  0  0  0
 16 31  2  0  0  0  0
 16 32  1  0  0  0  0
 17 23  1  0  0  0  0
 17 24  1  0  0  0  0
 18 23  1  0  0  0  0
 18 25  1  0  0  0  0
 19 24  1  0  0  0  0
 19 25  1  0  0  0  0
 20 23  1  0  0  0  0
 20 26  1  0  0  0  0
 21 24  1  0  0  0  0
 21 26  1  0  0  0  0
 22 25  1  0  0  0  0
 22 26  1  0  0  0  0
 29 30  1  0  0  0  0
  1 34  1  0  0  0  0
  2 35  1  0  0  0  0
  3 36  1  0  0  0  0
  4 37  1  0  0  0  0
  5 38  1  0  0  0  0
  6 39  1  0  0  0  0
  7 40  1  0  0  0  0
  8 41  1  0  0  0  0
  9 42  1  0  0  0  0
 17 43  1  0  0  0  0
 17 44  1  0  0  0  0
 18 45  1  0  0  0  0
 18 46  1  0  0  0  0
 19 47  1  0  0  0  0
 19 48  1  0  0  0  0
 20 49  1  0  0  0  0
 20 50  1  0  0  0  0
 21 51  1  0  0  0  0
 21 52  1  0  0  0  0
 22 53  1  0  0  0  0
 22 54  1  0  0  0  0
 23 55  1  0  0  0  0
 24 56  1  0  0  0  0
 27 57  1  0  0  0  0
 27 58  1  0  0  0  0
 27 59  1  0  0  0  0
 28 60  1  0  0  0  0
 28 61  1  0  0  0  0
 28 62  1  0  0  0  0
M  END
> <idnumber>
Z56933644

> <heavy_atoms>
33

> <LogS>
-8.04

> <LogP>
7.419

> <rotating_bonds>
5

> <PSA>
44.12

> <hb_acceptors>
2

> <hb_donors>
0

> <Collection>
Legacy

> <link>
https://www.enaminestore.com/catalog/Z56933644

> <ROCS_ShapeQuery>
x0446_0A_x1080_0A_x0929_0A_x0812_0A_x0719_0A_x1140_0A_x0528_0A_x0310_0A

> <ROCS_TanimotoCombo>
0.479 

> <ROCS_ShapeTanimoto>
0.279 

> <ROCS_ColorTanimoto>
0.201 

> <ROCS_RefTversky>
0.256 

> <ROCS_RefColorTversky>
0.227 

> <ROCS_RefTverskyCombo>
0.483 

> <ROCS_FitTversky>
1.459 

> <ROCS_FitColorTversky>
0.638 

> <ROCS_FitTverskyCombo>
2.097 

> <ROCS_ColorScore>
-8.133

> <ROCS_Overlap>
3031.885

> <ROCS_Rank>
23                  

$$$$
untitled-dbase-1095091_8
  -OEChem-02092406493D

 45 49  0     1  0  0  0  0  0999 V2000
   13.4445   16.2877   21.1920 C   0  0  0  0  0  0  0  0  0  0  0  0
   12.2096   16.5578   20.7486 C   0  0  0  0  0  0  0  0  0  0  0  0
   10.2733   13.7749   22.4777 C   0  0  0  0  0  0  0  0  0  0  0  0
    8.9541    9.4749   24.3489 C   0  0  0  0  0  0  0  0  0  0  0  0
    9.6580   10.0547   23.1100 C   0  0  0  0  0  0  0  0  0  0  0  0
   12.7429   14.1101   22.1683 C   0  0  0  0  0  0  0  0  0  0  0  0
    9.4862   11.7563   24.7675 C   0  0  0  0  0  0  0  0  0  0  0  0
   13.2689   15.5208   22.4697 C   0  0  2  0  0  0  0  0  0  0  0  0
   11.2684   15.9500   21.7472 C   0  0  1  0  0  0  0  0  0  0  0  0
   11.3203   14.4158   21.6284 C   0  0  2  0  0  0  0  0  0  0  0  0
    8.3806   10.7253   25.0354 C   0  0  1  0  0  0  0  0  0  0  0  0
    7.2140   11.2484   24.1762 C   0  0  2  0  0  0  0  0  0  0  0  0
    7.9142   11.8552   22.9597 C   0  0  2  0  0  0  0  0  0  0  0  0
    9.4078   11.5747   23.2476 C   0  0  2  0  0  0  0  0  0  0  0  0
    6.5256   13.4017   23.9051 C   0  0  0  0  0  0  0  0  0  0  0  0
    5.2061   13.4073   23.1345 C   0  0  0  0  0  0  0  0  0  0  0  0
    6.7084   14.7027   24.6729 C   0  0  0  0  0  0  0  0  0  0  0  0
   10.3147   12.3837   22.4998 N   0  0  0  0  0  0  0  0  0  0  0  0
    9.4722   14.4779   23.0825 O   0  0  0  0  0  0  0  0  0  0  0  0
   12.0494   16.1356   22.9635 O   0  0  0  0  0  0  0  0  0  0  0  0
    6.5277   12.3115   24.8274 O   0  0  0  0  0  0  0  0  0  0  0  0
    7.6077   13.2475   22.9858 O   0  0  0  0  0  0  0  0  0  0  0  0
   14.3734   16.5182   20.6971 H   0  0  0  0  0  0  0  0  0  0  0  0
   11.9468   17.0471   19.8252 H   0  0  0  0  0  0  0  0  0  0  0  0
    8.1815    8.7475   24.0807 H   0  0  0  0  0  0  0  0  0  0  0  0
    9.6838    8.9759   24.9964 H   0  0  0  0  0  0  0  0  0  0  0  0
   10.7273    9.8152   23.1492 H   0  0  0  0  0  0  0  0  0  0  0  0
    9.2501    9.6451   22.1799 H   0  0  0  0  0  0  0  0  0  0  0  0
   13.3629   13.5817   21.4363 H   0  0  0  0  0  0  0  0  0  0  0  0
   12.6974   13.5110   23.0852 H   0  0  0  0  0  0  0  0  0  0  0  0
    9.2318   12.7638   25.1101 H   0  0  0  0  0  0  0  0  0  0  0  0
   10.4525   11.4625   25.1931 H   0  0  0  0  0  0  0  0  0  0  0  0
   14.0833   15.6018   23.1907 H   0  0  0  0  0  0  0  0  0  0  0  0
   10.2891   16.4229   21.8372 H   0  0  0  0  0  0  0  0  0  0  0  0
   11.1879   14.0668   20.5972 H   0  0  0  0  0  0  0  0  0  0  0  0
    8.1346   10.5920   26.0908 H   0  0  0  0  0  0  0  0  0  0  0  0
    6.5002   10.4605   23.9142 H   0  0  0  0  0  0  0  0  0  0  0  0
    7.5783   11.4222   22.0115 H   0  0  0  0  0  0  0  0  0  0  0  0
    5.0924   12.4704   22.5920 H   0  0  0  0  0  0  0  0  0  0  0  0
    5.1969   14.2336   22.4260 H   0  0  0  0  0  0  0  0  0  0  0  0
    4.3750   13.5218   23.8281 H   0  0  0  0  0  0  0  0  0  0  0  0
    7.6529   14.6864   25.2183 H   0  0  0  0  0  0  0  0  0  0  0  0
    5.8929   14.8353   25.3849 H   0  0  0  0  0  0  0  0  0  0  0  0
    6.7146   15.5474   23.9829 H   0  0  0  0  0  0  0  0  0  0  0  0
   11.0377   11.9136   21.9474 H   0  0  0  0  0  0  0  0  0  0  0  0
  1  2  2  0  0  0  0
  1  8  1  0  0  0  0
  2  9  1  0  0  0  0
  3 10  1  1  0  0  0
  3 18  1  0  0  0  0
  3 19  2  0  0  0  0
  4  5  1  0  0  0  0
  4 11  1  0  0  0  0
  5 14  1  0  0  0  0
  6  8  1  0  0  0  0
  6 10  1  0  0  0  0
  7 11  1  1  0  0  0
  7 14  1  0  0  0  0
  8 20  1  1  0  0  0
  9 10  1  0  0  0  0
  9 20  1  1  0  0  0
 11 12  1  0  0  0  0
 12 13  1  0  0  0  0
 12 21  1  1  0  0  0
 13 14  1  0  0  0  0
 13 22  1  1  0  0  0
 14 18  1  1  0  0  0
 15 16  1  0  0  0  0
 15 17  1  0  0  0  0
 15 21  1  0  0  0  0
 15 22  1  0  0  0  0
  1 23  1  0  0  0  0
  2 24  1  0  0  0  0
  4 25  1  0  0  0  0
  4 26  1  0  0  0  0
  5 27  1  0  0  0  0
  5 28  1  0  0  0  0
  6 29  1  0  0  0  0
  6 30  1  0  0  0  0
  7 31  1  0  0  0  0
  7 32  1  0  0  0  0
  8 33  1  0  0  0  0
  9 34  1  0  0  0  0
 10 35  1  0  0  0  0
 11 36  1  0  0  0  0
 12 37  1  0  0  0  0
 13 38  1  0  0  0  0
 16 39  1  0  0  0  0
 16 40  1  0  0  0  0
 16 41  1  0  0  0  0
 17 42  1  0  0  0  0
 17 43  1  0  0  0  0
 17 44  1  0  0  0  0
 18 45  1  0  0  0  0
M  END
> <idnumber>
Z4609106393

> <heavy_atoms>
22

> <LogS>
-3.863

> <LogP>
0.751

> <rotating_bonds>
2

> <PSA>
56.79

> <hb_acceptors>
4

> <hb_donors>
1

> <Collection>
Advanced

> <link>
https://www.enaminestore.com/catalog/Z4609106393

> <ROCS_ShapeQuery>
x0446_0A_x1080_0A_x0929_0A_x0812_0A_x0719_0A_x1140_0A_x0528_0A_x0310_0A

> <ROCS_TanimotoCombo>
0.479 

> <ROCS_ShapeTanimoto>
0.270 

> <ROCS_ColorTanimoto>
0.209 

> <ROCS_RefTversky>
0.242 

> <ROCS_RefColorTversky>
0.272 

> <ROCS_RefTverskyCombo>
0.513 

> <ROCS_FitTversky>
1.770 

> <ROCS_FitColorTversky>
0.476 

> <ROCS_FitTverskyCombo>
2.246 

> <ROCS_ColorScore>
-9.867

> <ROCS_Overlap>
2854.755

> <ROCS_Rank>
24                  

$$$$
untitled-dbase-511727_17
  -OEChem-02092406493D

 36 38  0     0  0  0  0  0  0999 V2000
    5.7978   12.9574   25.4976 C   0  0  0  0  0  0  0  0  0  0  0  0
    5.5476   11.5936   25.6009 C   0  0  0  0  0  0  0  0  0  0  0  0
    6.9716   13.3960   24.8930 C   0  0  0  0  0  0  0  0  0  0  0  0
   13.0415   15.0363   21.7787 C   0  0  0  0  0  0  0  0  0  0  0  0
    6.4709   10.6715   25.0995 C   0  0  0  0  0  0  0  0  0  0  0  0
   11.8494   15.5036   21.2255 C   0  0  0  0  0  0  0  0  0  0  0  0
   11.8007   13.9880   23.5672 C   0  0  0  0  0  0  0  0  0  0  0  0
    7.8951   12.4625   24.3912 C   0  0  0  0  0  0  0  0  0  0  0  0
   13.0172   14.2785   22.9495 C   0  0  0  0  0  0  0  0  0  0  0  0
    7.6536   11.0825   24.4895 C   0  0  0  0  0  0  0  0  0  0  0  0
   10.6329   15.2131   21.8431 C   0  0  0  0  0  0  0  0  0  0  0  0
   10.6086   14.4553   23.0140 C   0  0  0  0  0  0  0  0  0  0  0  0
    9.0869   12.8345   23.7755 C   0  0  0  0  0  0  0  0  0  0  0  0
    9.6483   10.6681   23.4380 C   0  0  0  0  0  0  0  0  0  0  0  0
   14.2601   13.7896   23.5251 C   0  0  0  0  0  0  0  0  0  0  0  0
    8.8285   14.8324   20.3415 C   0  0  0  0  0  0  0  0  0  0  0  0
   10.6157    9.6620   22.9129 C   0  0  0  0  0  0  0  0  0  0  0  0
    8.5299   10.1810   24.0128 N   0  0  0  0  0  0  0  0  0  0  0  0
    9.9859   11.9590   23.2878 N   0  0  0  0  0  0  0  0  0  0  0  0
   14.3052   13.1155   24.5578 O   0  0  0  0  0  0  0  0  0  0  0  0
    9.4112   14.1589   23.6334 O   0  0  0  0  0  0  0  0  0  0  0  0
    9.4754   15.6752   21.2929 O   0  0  0  0  0  0  0  0  0  0  0  0
   10.2152    8.3690   23.0969 F   0  0  0  0  0  0  0  0  0  0  0  0
   10.8482    9.7750   21.5716 F   0  0  0  0  0  0  0  0  0  0  0  0
   11.8418    9.7530   23.5058 F   0  0  0  0  0  0  0  0  0  0  0  0
    5.0829   13.6752   25.8878 H   0  0  0  0  0  0  0  0  0  0  0  0
    4.6339   11.2422   26.0715 H   0  0  0  0  0  0  0  0  0  0  0  0
    7.1532   14.4651   24.8199 H   0  0  0  0  0  0  0  0  0  0  0  0
   13.9836   15.2687   21.2888 H   0  0  0  0  0  0  0  0  0  0  0  0
    6.2521    9.6095   25.1936 H   0  0  0  0  0  0  0  0  0  0  0  0
   11.8750   16.0936   20.3135 H   0  0  0  0  0  0  0  0  0  0  0  0
   11.7781   13.3953   24.4789 H   0  0  0  0  0  0  0  0  0  0  0  0
   15.2041   14.0453   22.9962 H   0  0  0  0  0  0  0  0  0  0  0  0
    7.9189   15.3193   19.9814 H   0  0  0  0  0  0  0  0  0  0  0  0
    8.5819   13.8758   20.8090 H   0  0  0  0  0  0  0  0  0  0  0  0
    9.5047   14.6612   19.5005 H   0  0  0  0  0  0  0  0  0  0  0  0
  1  2  1  0  0  0  0
  1  3  2  0  0  0  0
  2  5  2  0  0  0  0
  3  8  1  0  0  0  0
  4  6  2  0  0  0  0
  4  9  1  0  0  0  0
  5 10  1  0  0  0  0
  6 11  1  0  0  0  0
  7  9  2  0  0  0  0
  7 12  1  0  0  0  0
  8 10  1  0  0  0  0
  8 13  2  0  0  0  0
  9 15  1  0  0  0  0
 10 18  2  0  0  0  0
 11 12  2  0  0  0  0
 11 22  1  0  0  0  0
 12 21  1  0  0  0  0
 13 19  1  0  0  0  0
 13 21  1  0  0  0  0
 14 17  1  0  0  0  0
 14 18  1  0  0  0  0
 14 19  2  0  0  0  0
 15 20  2  0  0  0  0
 16 22  1  0  0  0  0
 17 23  1  0  0  0  0
 17 24  1  0  0  0  0
 17 25  1  0  0  0  0
  1 26  1  0  0  0  0
  2 27  1  0  0  0  0
  3 28  1  0  0  0  0
  4 29  1  0  0  0  0
  5 30  1  0  0  0  0
  6 31  1  0  0  0  0
  7 32  1  0  0  0  0
 15 33  1  0  0  0  0
 16 34  1  0  0  0  0
 16 35  1  0  0  0  0
 16 36  1  0  0  0  0
M  END
> <idnumber>
Z86256172

> <heavy_atoms>
25

> <LogS>
-5.18

> <LogP>
3.407

> <rotating_bonds>
5

> <PSA>
61.31

> <hb_acceptors>
4

> <hb_donors>
0

> <Collection>
Functional

> <link>
https://www.enaminestore.com/catalog/Z86256172

> <ROCS_ShapeQuery>
x0446_0A_x1080_0A_x0929_0A_x0812_0A_x0719_0A_x1140_0A_x0528_0A_x0310_0A

> <ROCS_TanimotoCombo>
0.479 

> <ROCS_ShapeTanimoto>
0.281 

> <ROCS_ColorTanimoto>
0.198 

> <ROCS_RefTversky>
0.252 

> <ROCS_RefColorTversky>
0.209 

> <ROCS_RefTverskyCombo>
0.460 

> <ROCS_FitTversky>
1.715 

> <ROCS_FitColorTversky>
0.787 

> <ROCS_FitTverskyCombo>
2.502 

> <ROCS_ColorScore>
-7.459

> <ROCS_Overlap>
2973.456

> <ROCS_Rank>
25                  

$$$$
untitled-dbase-614405_186
  -OEChem-02092406493D

 41 44  0     0  0  0  0  0  0999 V2000
    3.8472    7.8660   24.4508 C   0  0  0  0  0  0  0  0  0  0  0  0
    5.1848    7.7557   24.8308 C   0  0  0  0  0  0  0  0  0  0  0  0
    3.3390    9.0973   24.0368 C   0  0  0  0  0  0  0  0  0  0  0  0
   13.0949   14.5800   22.2034 C   0  0  0  0  0  0  0  0  0  0  0  0
   12.6349   15.1492   21.0161 C   0  0  0  0  0  0  0  0  0  0  0  0
    6.0141    8.8768   24.7969 C   0  0  0  0  0  0  0  0  0  0  0  0
    4.1683   10.2183   24.0029 C   0  0  0  0  0  0  0  0  0  0  0  0
   12.1896   14.2279   23.2046 C   0  0  0  0  0  0  0  0  0  0  0  0
   11.2697   15.3666   20.8298 C   0  0  0  0  0  0  0  0  0  0  0  0
    6.8857   13.2591   24.4510 C   0  0  0  0  0  0  0  0  0  0  0  0
    8.0748   12.5552   24.1840 C   0  0  0  0  0  0  0  0  0  0  0  0
    5.5059   10.1081   24.3829 C   0  0  0  0  0  0  0  0  0  0  0  0
   10.8245   14.4452   23.0184 C   0  0  0  0  0  0  0  0  0  0  0  0
   10.3645   15.0146   21.8310 C   0  0  0  0  0  0  0  0  0  0  0  0
    7.6798   11.2303   24.1237 C   0  0  0  0  0  0  0  0  0  0  0  0
    9.4248   12.8223   23.9824 C   0  0  0  0  0  0  0  0  0  0  0  0
    9.7445   10.5452   23.7115 C   0  0  0  0  0  0  0  0  0  0  0  0
   10.7150    9.4429   23.4431 C   0  0  0  0  0  0  0  0  0  0  0  0
    8.2810   14.1869   21.0365 C   0  0  0  0  0  0  0  0  0  0  0  0
    5.8216   12.4552   24.5530 N   0  0  0  0  0  0  0  0  0  0  0  0
    8.4613   10.1640   23.8904 N   0  0  0  0  0  0  0  0  0  0  0  0
   10.2713   11.7925   23.7421 N   0  0  0  0  0  0  0  0  0  0  0  0
    6.3354   11.2279   24.3492 N   0  0  0  0  0  0  0  0  0  0  0  0
    9.9395   14.0937   24.0168 O   0  0  0  0  0  0  0  0  0  0  0  0
    9.0338   15.2330   21.6377 O   0  0  0  0  0  0  0  0  0  0  0  0
    8.8642   13.0111   21.3854 F   0  0  0  0  0  0  0  0  0  0  0  0
    7.0347   14.1721   21.5698 F   0  0  0  0  0  0  0  0  0  0  0  0
    3.2016    6.9931   24.4753 H   0  0  0  0  0  0  0  0  0  0  0  0
    5.5811    6.7969   25.1518 H   0  0  0  0  0  0  0  0  0  0  0  0
    2.2976    9.1820   23.7397 H   0  0  0  0  0  0  0  0  0  0  0  0
   14.1581   14.4105   22.3483 H   0  0  0  0  0  0  0  0  0  0  0  0
   13.3396   15.4234   20.2367 H   0  0  0  0  0  0  0  0  0  0  0  0
    7.0550    8.7769   25.0949 H   0  0  0  0  0  0  0  0  0  0  0  0
    3.7594   11.1718   23.6775 H   0  0  0  0  0  0  0  0  0  0  0  0
   12.5545   13.7846   24.1273 H   0  0  0  0  0  0  0  0  0  0  0  0
   10.9183   15.8120   19.9032 H   0  0  0  0  0  0  0  0  0  0  0  0
    6.7462   14.3236   24.5758 H   0  0  0  0  0  0  0  0  0  0  0  0
   10.7929    9.2587   22.3651 H   0  0  0  0  0  0  0  0  0  0  0  0
   11.7124    9.6897   23.8281 H   0  0  0  0  0  0  0  0  0  0  0  0
   10.4047    8.5124   23.9349 H   0  0  0  0  0  0  0  0  0  0  0  0
    8.2449   14.2483   19.9435 H   0  0  0  0  0  0  0  0  0  0  0  0
  1  2  1  0  0  0  0
  1  3  2  0  0  0  0
  2  6  2  0  0  0  0
  3  7  1  0  0  0  0
  4  5  1  0  0  0  0
  4  8  2  0  0  0  0
  5  9  2  0  0  0  0
  6 12  1  0  0  0  0
  7 12  2  0  0  0  0
  8 13  1  0  0  0  0
  9 14  1  0  0  0  0
 10 11  1  0  0  0  0
 10 20  2  0  0  0  0
 11 15  2  0  0  0  0
 11 16  1  0  0  0  0
 12 23  1  0  0  0  0
 13 14  2  0  0  0  0
 13 24  1  0  0  0  0
 14 25  1  0  0  0  0
 15 21  1  0  0  0  0
 15 23  1  0  0  0  0
 16 22  2  0  0  0  0
 16 24  1  0  0  0  0
 17 18  1  0  0  0  0
 17 21  2  0  0  0  0
 17 22  1  0  0  0  0
 19 25  1  0  0  0  0
 19 26  1  0  0  0  0
 19 27  1  0  0  0  0
 20 23  1  0  0  0  0
  1 28  1  0  0  0  0
  2 29  1  0  0  0  0
  3 30  1  0  0  0  0
  4 31  1  0  0  0  0
  5 32  1  0  0  0  0
  6 33  1  0  0  0  0
  7 34  1  0  0  0  0
  8 35  1  0  0  0  0
  9 36  1  0  0  0  0
 10 37  1  0  0  0  0
 18 38  1  0  0  0  0
 18 39  1  0  0  0  0
 18 40  1  0  0  0  0
 19 41  1  0  0  0  0
M  END
> <idnumber>
Z1140379328

> <heavy_atoms>
27

> <LogS>
-5.456

> <LogP>
4.087

> <rotating_bonds>
5

> <PSA>
62.06

> <hb_acceptors>
4

> <hb_donors>
0

> <Collection>
Advanced

> <link>
https://www.enaminestore.com/catalog/Z1140379328

> <ROCS_ShapeQuery>
x0446_0A_x1080_0A_x0929_0A_x0812_0A_x0719_0A_x1140_0A_x0528_0A_x0310_0A

> <ROCS_TanimotoCombo>
0.478 

> <ROCS_ShapeTanimoto>
0.267 

> <ROCS_ColorTanimoto>
0.211 

> <ROCS_RefTversky>
0.243 

> <ROCS_RefColorTversky>
0.225 

> <ROCS_RefTverskyCombo>
0.469 

> <ROCS_FitTversky>
1.567 

> <ROCS_FitColorTversky>
0.772 

> <ROCS_FitTverskyCombo>
2.339 

> <ROCS_ColorScore>
-8.064

> <ROCS_Overlap>
2878.328

> <ROCS_Rank>
26                  

$$$$
untitled-dbase-599690_34
  -OEChem-02092406493D

 31 33  0     0  0  0  0  0  0999 V2000
    5.7457   13.1149   25.0369 C   0  0  0  0  0  0  0  0  0  0  0  0
    5.4440   11.7617   25.1417 C   0  0  0  0  0  0  0  0  0  0  0  0
   13.2555   14.1813   23.3905 C   0  0  0  0  0  0  0  0  0  0  0  0
    6.9990   13.5050   24.5755 C   0  0  0  0  0  0  0  0  0  0  0  0
    6.3955   10.8017   24.7848 C   0  0  0  0  0  0  0  0  0  0  0  0
   11.9694   13.9357   23.8583 C   0  0  0  0  0  0  0  0  0  0  0  0
   13.3915   14.9045   22.2164 C   0  0  0  0  0  0  0  0  0  0  0  0
    7.9504   12.5336   24.2186 C   0  0  0  0  0  0  0  0  0  0  0  0
    7.6574   11.1638   24.3199 C   0  0  0  0  0  0  0  0  0  0  0  0
   10.8740   14.4141   23.1479 C   0  0  0  0  0  0  0  0  0  0  0  0
   11.1166   15.1270   21.9849 C   0  0  0  0  0  0  0  0  0  0  0  0
    9.2209   12.8564   23.7502 C   0  0  0  0  0  0  0  0  0  0  0  0
    9.7557   10.6671   23.5410 C   0  0  0  0  0  0  0  0  0  0  0  0
   10.7513    9.6213   23.1683 C   0  0  0  0  0  0  0  0  0  0  0  0
   12.3515   15.3854   21.4990 N   0  0  0  0  0  0  0  0  0  0  0  0
    8.5596   10.2263   23.9810 N   0  0  0  0  0  0  0  0  0  0  0  0
   10.1478   11.9439   23.4027 N   0  0  0  0  0  0  0  0  0  0  0  0
    9.9672   15.6047   21.2763 N   0  3  0  0  0  0  0  0  0  0  0  0
   10.1432   16.2523   20.2230 O   0  5  0  0  0  0  0  0  0  0  0  0
    8.8349   15.3548   21.7404 O   0  0  0  0  0  0  0  0  0  0  0  0
    9.5998   14.1672   23.6174 O   0  0  0  0  0  0  0  0  0  0  0  0
   11.5644   10.0607   22.1719 F   0  0  0  0  0  0  0  0  0  0  0  0
   10.1297    8.5091   22.6956 F   0  0  0  0  0  0  0  0  0  0  0  0
    5.0090   13.8622   25.3151 H   0  0  0  0  0  0  0  0  0  0  0  0
    4.4681   11.4481   25.5010 H   0  0  0  0  0  0  0  0  0  0  0  0
   14.1238   13.8174   23.9275 H   0  0  0  0  0  0  0  0  0  0  0  0
    7.2201   14.5665   24.4994 H   0  0  0  0  0  0  0  0  0  0  0  0
    6.1350    9.7489   24.8768 H   0  0  0  0  0  0  0  0  0  0  0  0
   11.8278   13.3717   24.7760 H   0  0  0  0  0  0  0  0  0  0  0  0
   14.3730   15.1225   21.8087 H   0  0  0  0  0  0  0  0  0  0  0  0
   11.3808    9.3230   24.0089 H   0  0  0  0  0  0  0  0  0  0  0  0
  1  2  1  0  0  0  0
  1  4  2  0  0  0  0
  2  5  2  0  0  0  0
  3  6  2  0  0  0  0
  3  7  1  0  0  0  0
  4  8  1  0  0  0  0
  5  9  1  0  0  0  0
  6 10  1  0  0  0  0
  7 15  2  0  0  0  0
  8  9  1  0  0  0  0
  8 12  2  0  0  0  0
  9 16  2  0  0  0  0
 10 11  2  0  0  0  0
 10 21  1  0  0  0  0
 11 15  1  0  0  0  0
 11 18  1  0  0  0  0
 12 17  1  0  0  0  0
 12 21  1  0  0  0  0
 13 14  1  0  0  0  0
 13 16  1  0  0  0  0
 13 17  2  0  0  0  0
 14 22  1  0  0  0  0
 14 23  1  0  0  0  0
 18 19  1  0  0  0  0
 18 20  2  0  0  0  0
  1 24  1  0  0  0  0
  2 25  1  0  0  0  0
  3 26  1  0  0  0  0
  4 27  1  0  0  0  0
  5 28  1  0  0  0  0
  6 29  1  0  0  0  0
  7 30  1  0  0  0  0
 14 31  1  0  0  0  0
M  CHG  2  18   1  19  -1
M  END
> <idnumber>
Z1134135023

> <heavy_atoms>
23

> <LogS>
-4.909

> <LogP>
1.511

> <rotating_bonds>
4

> <PSA>
91.04

> <hb_acceptors>
5

> <hb_donors>
0

> <Collection>
Legacy

> <link>
https://www.enaminestore.com/catalog/Z1134135023

> <ROCS_ShapeQuery>
x0446_0A_x1080_0A_x0929_0A_x0812_0A_x0719_0A_x1140_0A_x0528_0A_x0310_0A

> <ROCS_TanimotoCombo>
0.477 

> <ROCS_ShapeTanimoto>
0.277 

> <ROCS_ColorTanimoto>
0.200 

> <ROCS_RefTversky>
0.247 

> <ROCS_RefColorTversky>
0.216 

> <ROCS_RefTverskyCombo>
0.463 

> <ROCS_FitTversky>
1.768 

> <ROCS_FitColorTversky>
0.738 

> <ROCS_FitTverskyCombo>
2.506 

> <ROCS_ColorScore>
-7.712

> <ROCS_Overlap>
2923.638

> <ROCS_Rank>
27                  

$$$$
untitled-dbase-536621_3
  -OEChem-02092406493D

 36 39  0     0  0  0  0  0  0999 V2000
    5.8588   13.5309   25.0725 C   0  0  0  0  0  0  0  0  0  0  0  0
    5.4575   12.2022   25.2477 C   0  0  0  0  0  0  0  0  0  0  0  0
   13.4613   15.1844   22.0623 C   0  0  0  0  0  0  0  0  0  0  0  0
   13.3196   14.4523   23.2410 C   0  0  0  0  0  0  0  0  0  0  0  0
    7.1251   13.8290   24.5624 C   0  0  0  0  0  0  0  0  0  0  0  0
    6.3170   11.1546   24.9153 C   0  0  0  0  0  0  0  0  0  0  0  0
   12.3304   15.6200   21.3716 C   0  0  0  0  0  0  0  0  0  0  0  0
   12.0470   14.1556   23.7290 C   0  0  0  0  0  0  0  0  0  0  0  0
   10.3587    9.5482   23.3170 C   0  0  0  0  0  0  0  0  0  0  0  0
    7.9883   12.7862   24.2285 C   0  0  0  0  0  0  0  0  0  0  0  0
    7.5779   11.4598   24.4073 C   0  0  0  0  0  0  0  0  0  0  0  0
   11.0578   15.3234   21.8596 C   0  0  0  0  0  0  0  0  0  0  0  0
   10.9161   14.5911   23.0383 C   0  0  0  0  0  0  0  0  0  0  0  0
    9.4043    8.5934   23.7094 C   0  0  0  0  0  0  0  0  0  0  0  0
    9.7582   10.7682   23.5431 C   0  0  0  0  0  0  0  0  0  0  0  0
    9.3455   12.9823   23.6836 C   0  0  0  0  0  0  0  0  0  0  0  0
    9.5366    7.1269   23.6732 C   0  0  0  0  0  0  0  0  0  0  0  0
    8.2741    9.1455   24.1546 N   0  0  0  0  0  0  0  0  0  0  0  0
   10.1835   12.0478   23.3591 N   0  0  0  0  0  0  0  0  0  0  0  0
    8.5056   10.4701   24.0473 N   0  0  0  0  0  0  0  0  0  0  0  0
    9.9159   15.7754   21.1427 N   0  3  0  0  0  0  0  0  0  0  0  0
   10.0834   16.4313   20.0873 O   0  5  0  0  0  0  0  0  0  0  0  0
    8.7751   15.5052   21.5873 O   0  0  0  0  0  0  0  0  0  0  0  0
    9.6677   14.2833   23.5404 O   0  0  0  0  0  0  0  0  0  0  0  0
    5.1800   14.3375   25.3353 H   0  0  0  0  0  0  0  0  0  0  0  0
    4.4700   11.9856   25.6454 H   0  0  0  0  0  0  0  0  0  0  0  0
   14.4522   15.4153   21.6821 H   0  0  0  0  0  0  0  0  0  0  0  0
   14.2001   14.1133   23.7790 H   0  0  0  0  0  0  0  0  0  0  0  0
    7.4104   14.8690   24.4379 H   0  0  0  0  0  0  0  0  0  0  0  0
    5.9848   10.1312   25.0597 H   0  0  0  0  0  0  0  0  0  0  0  0
   12.4560   16.1900   20.4541 H   0  0  0  0  0  0  0  0  0  0  0  0
   11.9438   13.5848   24.6483 H   0  0  0  0  0  0  0  0  0  0  0  0
   11.3510    9.3820   22.9222 H   0  0  0  0  0  0  0  0  0  0  0  0
    9.9541    6.7391   24.6181 H   0  0  0  0  0  0  0  0  0  0  0  0
    8.5668    6.6247   23.5074 H   0  0  0  0  0  0  0  0  0  0  0  0
   10.1960    6.7879   22.8543 H   0  0  0  0  0  0  0  0  0  0  0  0
  1  2  1  0  0  0  0
  1  5  2  0  0  0  0
  2  6  2  0  0  0  0
  3  4  1  0  0  0  0
  3  7  2  0  0  0  0
  4  8  2  0  0  0  0
  5 10  1  0  0  0  0
  6 11  1  0  0  0  0
  7 12  1  0  0  0  0
  8 13  1  0  0  0  0
  9 14  1  0  0  0  0
  9 15  2  0  0  0  0
 10 11  2  0  0  0  0
 10 16  1  0  0  0  0
 11 20  1  0  0  0  0
 12 13  2  0  0  0  0
 12 21  1  0  0  0  0
 13 24  1  0  0  0  0
 14 17  1  0  0  0  0
 14 18  2  0  0  0  0
 15 19  1  0  0  0  0
 15 20  1  0  0  0  0
 16 19  2  0  0  0  0
 16 24  1  0  0  0  0
 18 20  1  0  0  0  0
 21 22  1  0  0  0  0
 21 23  2  0  0  0  0
  1 25  1  0  0  0  0
  2 26  1  0  0  0  0
  3 27  1  0  0  0  0
  4 28  1  0  0  0  0
  5 29  1  0  0  0  0
  6 30  1  0  0  0  0
  7 31  1  0  0  0  0
  8 32  1  0  0  0  0
  9 33  1  0  0  0  0
 17 34  1  0  0  0  0
 17 35  1  0  0  0  0
 17 36  1  0  0  0  0
M  CHG  2  21   1  22  -1
M  END
> <idnumber>
Z94861387

> <heavy_atoms>
24

> <LogS>
-5.92

> <LogP>
3.695

> <rotating_bonds>
3

> <PSA>
82.56

> <hb_acceptors>
4

> <hb_donors>
0

> <Collection>
Legacy

> <link>
https://www.enaminestore.com/catalog/Z94861387

> <ROCS_ShapeQuery>
x0446_0A_x1080_0A_x0929_0A_x0812_0A_x0719_0A_x1140_0A_x0528_0A_x0310_0A

> <ROCS_TanimotoCombo>
0.477 

> <ROCS_ShapeTanimoto>
0.277 

> <ROCS_ColorTanimoto>
0.200 

> <ROCS_RefTversky>
0.249 

> <ROCS_RefColorTversky>
0.215 

> <ROCS_RefTverskyCombo>
0.464 

> <ROCS_FitTversky>
1.716 

> <ROCS_FitColorTversky>
0.736 

> <ROCS_FitTverskyCombo>
2.452 

> <ROCS_ColorScore>
-7.699

> <ROCS_Overlap>
2937.772

> <ROCS_Rank>
28                  

$$$$
untitled-dbase-917566_2
  -OEChem-02092406493D

 46 49  0     0  0  0  0  0  0999 V2000
    6.2172   13.4606   24.9765 C   0  0  0  0  0  0  0  0  0  0  0  0
    5.9289   12.1763   25.4323 C   0  0  0  0  0  0  0  0  0  0  0  0
    7.2650   13.6672   24.0775 C   0  0  0  0  0  0  0  0  0  0  0  0
    6.6832   11.0925   24.9849 C   0  0  0  0  0  0  0  0  0  0  0  0
    8.0330   12.5828   23.6384 C   0  0  0  0  0  0  0  0  0  0  0  0
    7.7335   11.2992   24.0828 C   0  0  0  0  0  0  0  0  0  0  0  0
    9.5716   14.0495   22.2117 C   0  0  0  0  0  0  0  0  0  0  0  0
   10.6925   15.8714   21.7723 C   0  0  0  0  0  0  0  0  0  0  0  0
    9.1554   12.7162   22.6907 C   0  0  0  0  0  0  0  0  0  0  0  0
    8.5190   10.1576   23.5810 C   0  0  0  0  0  0  0  0  0  0  0  0
   11.8562   16.7871   21.7228 C   0  0  0  0  0  0  0  0  0  0  0  0
   11.9557   14.1737   23.0535 C   0  0  0  0  0  0  0  0  0  0  0  0
   13.1612   15.0155   22.6479 C   0  0  0  0  0  0  0  0  0  0  0  0
   14.3493   10.7211   24.8418 C   0  0  0  0  0  0  0  0  0  0  0  0
   13.4382    9.5813   24.4146 C   0  0  0  0  0  0  0  0  0  0  0  0
   12.3451   10.0651   23.4621 C   0  0  0  0  0  0  0  0  0  0  0  0
   11.4110    8.9232   23.0613 C   0  0  0  0  0  0  0  0  0  0  0  0
   10.3440    9.3971   22.0819 C   0  0  0  0  0  0  0  0  0  0  0  0
    8.7734   14.8621   21.5524 N   0  0  0  0  0  0  0  0  0  0  0  0
    9.4842   16.0181   21.2716 N   0  0  0  0  0  0  0  0  0  0  0  0
    9.8259   11.7043   22.2362 N   0  0  0  0  0  0  0  0  0  0  0  0
   10.7769   14.6439   22.3640 N   0  0  0  0  0  0  0  0  0  0  0  0
    9.5179   10.4454   22.6576 N   0  0  0  0  0  0  0  0  0  0  0  0
    8.2534    9.0291   23.9895 O   0  0  0  0  0  0  0  0  0  0  0  0
   12.8164   16.4060   22.7231 O   0  0  0  0  0  0  0  0  0  0  0  0
    5.6254   14.3035   25.3217 H   0  0  0  0  0  0  0  0  0  0  0  0
    5.1131   12.0185   26.1318 H   0  0  0  0  0  0  0  0  0  0  0  0
    7.4645   14.6804   23.7409 H   0  0  0  0  0  0  0  0  0  0  0  0
    6.4342   10.0982   25.3456 H   0  0  0  0  0  0  0  0  0  0  0  0
   12.3339   16.7606   20.7378 H   0  0  0  0  0  0  0  0  0  0  0  0
   11.5470   17.8153   21.9307 H   0  0  0  0  0  0  0  0  0  0  0  0
   12.1136   13.1167   22.8204 H   0  0  0  0  0  0  0  0  0  0  0  0
   11.7494   14.2885   24.1235 H   0  0  0  0  0  0  0  0  0  0  0  0
   13.9961   14.8318   23.3310 H   0  0  0  0  0  0  0  0  0  0  0  0
   13.4994   14.7789   21.6317 H   0  0  0  0  0  0  0  0  0  0  0  0
   14.8132   11.1844   23.9654 H   0  0  0  0  0  0  0  0  0  0  0  0
   13.7873   11.4932   25.3767 H   0  0  0  0  0  0  0  0  0  0  0  0
   15.1478   10.3601   25.4978 H   0  0  0  0  0  0  0  0  0  0  0  0
   12.9840    9.1311   25.3050 H   0  0  0  0  0  0  0  0  0  0  0  0
   14.0388    8.8037   23.9283 H   0  0  0  0  0  0  0  0  0  0  0  0
   12.8045   10.4962   22.5642 H   0  0  0  0  0  0  0  0  0  0  0  0
   11.7653   10.8625   23.9429 H   0  0  0  0  0  0  0  0  0  0  0  0
   10.9304    8.5049   23.9546 H   0  0  0  0  0  0  0  0  0  0  0  0
   11.9921    8.1101   22.6083 H   0  0  0  0  0  0  0  0  0  0  0  0
    9.6781    8.5761   21.7982 H   0  0  0  0  0  0  0  0  0  0  0  0
   10.8012    9.8026   21.1737 H   0  0  0  0  0  0  0  0  0  0  0  0
  1  2  1  0  0  0  0
  1  3  2  0  0  0  0
  2  4  2  0  0  0  0
  3  5  1  0  0  0  0
  4  6  1  0  0  0  0
  5  6  2  0  0  0  0
  5  9  1  0  0  0  0
  6 10  1  0  0  0  0
  7  9  1  0  0  0  0
  7 19  2  0  0  0  0
  7 22  1  0  0  0  0
  8 11  1  0  0  0  0
  8 20  2  0  0  0  0
  8 22  1  0  0  0  0
  9 21  2  0  0  0  0
 10 23  1  0  0  0  0
 10 24  2  0  0  0  0
 11 25  1  0  0  0  0
 12 13  1  0  0  0  0
 12 22  1  0  0  0  0
 13 25  1  0  0  0  0
 14 15  1  0  0  0  0
 15 16  1  0  0  0  0
 16 17  1  0  0  0  0
 17 18  1  0  0  0  0
 18 23  1  0  0  0  0
 19 20  1  0  0  0  0
 21 23  1  0  0  0  0
  1 26  1  0  0  0  0
  2 27  1  0  0  0  0
  3 28  1  0  0  0  0
  4 29  1  0  0  0  0
 11 30  1  0  0  0  0
 11 31  1  0  0  0  0
 12 32  1  0  0  0  0
 12 33  1  0  0  0  0
 13 34  1  0  0  0  0
 13 35  1  0  0  0  0
 14 36  1  0  0  0  0
 14 37  1  0  0  0  0
 14 38  1  0  0  0  0
 15 39  1  0  0  0  0
 15 40  1  0  0  0  0
 16 41  1  0  0  0  0
 16 42  1  0  0  0  0
 17 43  1  0  0  0  0
 17 44  1  0  0  0  0
 18 45  1  0  0  0  0
 18 46  1  0  0  0  0
M  END
> <idnumber>
Z2523773342

> <heavy_atoms>
25

> <LogS>
-4.038

> <LogP>
1.074

> <rotating_bonds>
5

> <PSA>
72.61

> <hb_acceptors>
5

> <hb_donors>
0

> <Collection>
HTS

> <link>
https://www.enaminestore.com/catalog/Z2523773342

> <ROCS_ShapeQuery>
x0446_0A_x1080_0A_x0929_0A_x0812_0A_x0719_0A_x1140_0A_x0528_0A_x0310_0A

> <ROCS_TanimotoCombo>
0.477 

> <ROCS_ShapeTanimoto>
0.275 

> <ROCS_ColorTanimoto>
0.202 

> <ROCS_RefTversky>
0.247 

> <ROCS_RefColorTversky>
0.223 

> <ROCS_RefTverskyCombo>
0.470 

> <ROCS_FitTversky>
1.701 

> <ROCS_FitColorTversky>
0.684 

> <ROCS_FitTverskyCombo>
2.385 

> <ROCS_ColorScore>
-7.980

> <ROCS_Overlap>
2919.866

> <ROCS_Rank>
29                  

$$$$
untitled-dbase-556677_26
  -OEChem-02092406493D

 52 57  0     0  0  0  0  0  0999 V2000
   10.1833    8.2214   22.4599 C   0  0  0  0  0  0  0  0  0  0  0  0
    7.3215   15.7026   24.5954 C   0  0  0  0  0  0  0  0  0  0  0  0
    6.1365   15.5857   25.3190 C   0  0  0  0  0  0  0  0  0  0  0  0
    9.1019    7.6309   23.0961 C   0  0  0  0  0  0  0  0  0  0  0  0
   10.3158    9.6090   22.4484 C   0  0  0  0  0  0  0  0  0  0  0  0
    7.9769   14.5600   24.1358 C   0  0  0  0  0  0  0  0  0  0  0  0
    5.6026   14.3249   25.5857 C   0  0  0  0  0  0  0  0  0  0  0  0
    8.1283    8.4077   23.7349 C   0  0  0  0  0  0  0  0  0  0  0  0
    9.3461   10.4122   23.0862 C   0  0  0  0  0  0  0  0  0  0  0  0
    7.4438   13.2939   24.4015 C   0  0  0  0  0  0  0  0  0  0  0  0
   11.3113   15.4829   21.5786 C   0  0  0  0  0  0  0  0  0  0  0  0
   11.7034   14.5912   22.5984 C   0  0  0  0  0  0  0  0  0  0  0  0
    6.2495   13.1710   25.1305 C   0  0  0  0  0  0  0  0  0  0  0  0
    8.2516    9.8112   23.7297 C   0  0  0  0  0  0  0  0  0  0  0  0
    9.2170   11.8127   23.2364 C   0  0  0  0  0  0  0  0  0  0  0  0
    8.0704   12.0564   23.9541 C   0  0  0  0  0  0  0  0  0  0  0  0
   13.0728   14.6971   22.6728 C   0  0  0  0  0  0  0  0  0  0  0  0
   12.4578   16.0836   21.0864 C   0  0  0  0  0  0  0  0  0  0  0  0
   11.3790   17.3199   19.5989 C   0  0  0  0  0  0  0  0  0  0  0  0
   10.0243   15.8339   21.0208 C   0  0  0  0  0  0  0  0  0  0  0  0
    6.2674   10.8259   25.0024 C   0  0  0  0  0  0  0  0  0  0  0  0
   10.8719   13.7105   23.4365 C   0  0  0  0  0  0  0  0  0  0  0  0
   14.0907   14.0497   23.5149 C   0  0  0  0  0  0  0  0  0  0  0  0
    5.6514    9.5007   25.3144 C   0  0  0  0  0  0  0  0  0  0  0  0
    8.9352   17.2597   19.3271 C   0  0  0  0  0  0  0  0  0  0  0  0
    5.6846   11.9119   25.4154 N   0  0  0  0  0  0  0  0  0  0  0  0
   12.5395   17.0085   20.0962 N   0  0  0  0  0  0  0  0  0  0  0  0
    7.4702   10.8410   24.2627 N   0  0  0  0  0  0  0  0  0  0  0  0
   10.1406   16.7960   19.9953 N   0  0  0  0  0  0  0  0  0  0  0  0
   10.1042   12.7423   22.7369 N   0  0  0  0  0  0  0  0  0  0  0  0
    8.9788   15.3322   21.4196 O   0  0  0  0  0  0  0  0  0  0  0  0
   10.8369   13.8475   24.6575 O   0  0  0  0  0  0  0  0  0  0  0  0
   13.5400   15.5950   21.7649 O   0  0  0  0  0  0  0  0  0  0  0  0
   10.9296    7.6030   21.9695 H   0  0  0  0  0  0  0  0  0  0  0  0
    7.7356   16.6854   24.3887 H   0  0  0  0  0  0  0  0  0  0  0  0
    5.6283   16.4768   25.6757 H   0  0  0  0  0  0  0  0  0  0  0  0
    9.0067    6.5479   23.1004 H   0  0  0  0  0  0  0  0  0  0  0  0
   11.1671   10.0623   21.9473 H   0  0  0  0  0  0  0  0  0  0  0  0
    8.8945   14.7027   23.5778 H   0  0  0  0  0  0  0  0  0  0  0  0
    4.6771   14.2475   26.1511 H   0  0  0  0  0  0  0  0  0  0  0  0
    7.3049    7.8955   24.2154 H   0  0  0  0  0  0  0  0  0  0  0  0
   11.3058   18.0610   18.7865 H   0  0  0  0  0  0  0  0  0  0  0  0
   14.4649   13.1204   23.0508 H   0  0  0  0  0  0  0  0  0  0  0  0
   14.9630   14.7041   23.6952 H   0  0  0  0  0  0  0  0  0  0  0  0
   13.7009   13.7865   24.5152 H   0  0  0  0  0  0  0  0  0  0  0  0
    4.9630    9.2179   24.5187 H   0  0  0  0  0  0  0  0  0  0  0  0
    5.1079    9.5592   26.2572 H   0  0  0  0  0  0  0  0  0  0  0  0
    6.4304    8.7438   25.4030 H   0  0  0  0  0  0  0  0  0  0  0  0
    8.7274   16.6185   18.4579 H   0  0  0  0  0  0  0  0  0  0  0  0
    8.0877   17.2145   20.0269 H   0  0  0  0  0  0  0  0  0  0  0  0
    9.0784   18.2974   18.9913 H   0  0  0  0  0  0  0  0  0  0  0  0
   10.2276   12.7333   21.7107 H   0  0  0  0  0  0  0  0  0  0  0  0
  1  4  1  0  0  0  0
  1  5  2  0  0  0  0
  2  3  1  0  0  0  0
  2  6  2  0  0  0  0
  3  7  2  0  0  0  0
  4  8  2  0  0  0  0
  5  9  1  0  0  0  0
  6 10  1  0  0  0  0
  7 13  1  0  0  0  0
  8 14  1  0  0  0  0
  9 14  2  0  0  0  0
  9 15  1  0  0  0  0
 10 13  2  0  0  0  0
 10 16  1  0  0  0  0
 11 12  1  0  0  0  0
 11 18  2  0  0  0  0
 11 20  1  0  0  0  0
 12 17  2  0  0  0  0
 12 22  1  0  0  0  0
 13 26  1  0  0  0  0
 14 28  1  0  0  0  0
 15 16  2  0  0  0  0
 15 30  1  0  0  0  0
 16 28  1  0  0  0  0
 17 23  1  0  0  0  0
 17 33  1  0  0  0  0
 18 27  1  0  0  0  0
 18 33  1  0  0  0  0
 19 27  2  0  0  0  0
 19 29  1  0  0  0  0
 20 29  1  0  0  0  0
 20 31  2  0  0  0  0
 21 24  1  0  0  0  0
 21 26  2  0  0  0  0
 21 28  1  0  0  0  0
 22 30  1  0  0  0  0
 22 32  2  0  0  0  0
 25 29  1  0  0  0  0
  1 34  1  0  0  0  0
  2 35  1  0  0  0  0
  3 36  1  0  0  0  0
  4 37  1  0  0  0  0
  5 38  1  0  0  0  0
  6 39  1  0  0  0  0
  7 40  1  0  0  0  0
  8 41  1  0  0  0  0
 19 42  1  0  0  0  0
 23 43  1  0  0  0  0
 23 44  1  0  0  0  0
 23 45  1  0  0  0  0
 24 46  1  0  0  0  0
 24 47  1  0  0  0  0
 24 48  1  0  0  0  0
 25 49  1  0  0  0  0
 25 50  1  0  0  0  0
 25 51  1  0  0  0  0
 30 52  1  0  0  0  0
M  END
> <idnumber>
Z99347664

> <heavy_atoms>
33

> <LogS>
-6.256

> <LogP>
3.681

> <rotating_bonds>
2

> <PSA>
92.21

> <hb_acceptors>
4

> <hb_donors>
1

> <Collection>
Legacy

> <link>
https://www.enaminestore.com/catalog/Z99347664

> <ROCS_ShapeQuery>
x0446_0A_x1080_0A_x0929_0A_x0812_0A_x0719_0A_x1140_0A_x0528_0A_x0310_0A

> <ROCS_TanimotoCombo>
0.476 

> <ROCS_ShapeTanimoto>
0.295 

> <ROCS_ColorTanimoto>
0.181 

> <ROCS_RefTversky>
0.269 

> <ROCS_RefColorTversky>
0.210 

> <ROCS_RefTverskyCombo>
0.479 

> <ROCS_FitTversky>
1.494 

> <ROCS_FitColorTversky>
0.566 

> <ROCS_FitTverskyCombo>
2.060 

> <ROCS_ColorScore>
-7.549

> <ROCS_Overlap>
3186.163

> <ROCS_Rank>
30                  

$$$$
untitled-dbase-326023_120
  -OEChem-02092406493D

 50 53  0     0  0  0  0  0  0999 V2000
   13.0625   14.4667   22.0312 C   0  0  0  0  0  0  0  0  0  0  0  0
   12.5817   15.0894   20.8794 C   0  0  0  0  0  0  0  0  0  0  0  0
   12.1833   14.1292   23.0603 C   0  0  0  0  0  0  0  0  0  0  0  0
   11.2219   15.3747   20.7567 C   0  0  0  0  0  0  0  0  0  0  0  0
    8.0301   12.6226   24.1694 C   0  0  0  0  0  0  0  0  0  0  0  0
    6.9562   13.5045   24.5087 C   0  0  0  0  0  0  0  0  0  0  0  0
   10.8235   14.4145   22.9376 C   0  0  0  0  0  0  0  0  0  0  0  0
   10.3427   15.0372   21.7858 C   0  0  0  0  0  0  0  0  0  0  0  0
    5.7591   12.8411   24.6685 C   0  0  0  0  0  0  0  0  0  0  0  0
    9.3897   12.8303   23.9158 C   0  0  0  0  0  0  0  0  0  0  0  0
    7.5846   11.3097   24.0875 C   0  0  0  0  0  0  0  0  0  0  0  0
    9.6229   10.5666   23.5679 C   0  0  0  0  0  0  0  0  0  0  0  0
   12.8021    8.8942   22.5710 C   0  0  0  0  0  0  0  0  0  0  0  0
   12.3739    9.8394   24.7439 C   0  0  0  0  0  0  0  0  0  0  0  0
   14.2648    9.3058   22.7115 C   0  0  0  0  0  0  0  0  0  0  0  0
   13.8464   10.2298   24.8328 C   0  0  0  0  0  0  0  0  0  0  0  0
    7.1036   14.9732   24.6730 C   0  0  0  0  0  0  0  0  0  0  0  0
    4.4302   13.3926   25.0170 C   0  0  0  0  0  0  0  0  0  0  0  0
    8.5777   16.5943   22.1267 C   0  0  0  0  0  0  0  0  0  0  0  0
   10.5432    9.4304   23.2269 C   0  0  0  0  0  0  0  0  0  0  0  0
   10.1916   11.7873   23.6121 N   0  0  0  0  0  0  0  0  0  0  0  0
    8.3387   10.2337   23.7891 N   0  0  0  0  0  0  0  0  0  0  0  0
   11.9492    9.8133   23.3374 N   0  0  0  0  0  0  0  0  0  0  0  0
   14.6493    9.3143   24.0869 O   0  0  0  0  0  0  0  0  0  0  0  0
    9.9650   14.0768   23.9625 O   0  0  0  0  0  0  0  0  0  0  0  0
    9.0171   15.3222   21.6545 O   0  0  0  0  0  0  0  0  0  0  0  0
    5.9184   11.1575   24.4113 S   0  0  0  0  0  0  0  0  0  0  0  0
   14.1215   14.2443   22.1267 H   0  0  0  0  0  0  0  0  0  0  0  0
   13.2660   15.3521   20.0784 H   0  0  0  0  0  0  0  0  0  0  0  0
   12.5642   13.6440   23.9550 H   0  0  0  0  0  0  0  0  0  0  0  0
   10.8543   15.8614   19.8575 H   0  0  0  0  0  0  0  0  0  0  0  0
   12.5264    8.9151   21.5104 H   0  0  0  0  0  0  0  0  0  0  0  0
   12.6763    7.8662   22.9352 H   0  0  0  0  0  0  0  0  0  0  0  0
   12.2295    8.8528   25.2033 H   0  0  0  0  0  0  0  0  0  0  0  0
   11.7790   10.5674   25.3073 H   0  0  0  0  0  0  0  0  0  0  0  0
   14.9052    8.5866   22.1908 H   0  0  0  0  0  0  0  0  0  0  0  0
   14.4503   10.2939   22.2733 H   0  0  0  0  0  0  0  0  0  0  0  0
   14.0185   11.2495   24.4668 H   0  0  0  0  0  0  0  0  0  0  0  0
   14.1801   10.1920   25.8746 H   0  0  0  0  0  0  0  0  0  0  0  0
    6.9355   15.4895   23.7174 H   0  0  0  0  0  0  0  0  0  0  0  0
    6.3893   15.3719   25.4084 H   0  0  0  0  0  0  0  0  0  0  0  0
    8.1072   15.2411   25.0355 H   0  0  0  0  0  0  0  0  0  0  0  0
    3.8707   13.6717   24.1111 H   0  0  0  0  0  0  0  0  0  0  0  0
    3.8214   12.6683   25.5815 H   0  0  0  0  0  0  0  0  0  0  0  0
    4.5128   14.2882   25.6536 H   0  0  0  0  0  0  0  0  0  0  0  0
    7.5020   16.6931   21.9622 H   0  0  0  0  0  0  0  0  0  0  0  0
    9.1126   17.3856   21.5955 H   0  0  0  0  0  0  0  0  0  0  0  0
    8.7889   16.6688   23.1960 H   0  0  0  0  0  0  0  0  0  0  0  0
   10.3715    8.5803   23.8962 H   0  0  0  0  0  0  0  0  0  0  0  0
   10.3713    9.0789   22.2041 H   0  0  0  0  0  0  0  0  0  0  0  0
  1  2  1  0  0  0  0
  1  3  2  0  0  0  0
  2  4  2  0  0  0  0
  3  7  1  0  0  0  0
  4  8  1  0  0  0  0
  5  6  1  0  0  0  0
  5 10  2  0  0  0  0
  5 11  1  0  0  0  0
  6  9  2  0  0  0  0
  6 17  1  0  0  0  0
  7  8  2  0  0  0  0
  7 25  1  0  0  0  0
  8 26  1  0  0  0  0
  9 18  1  0  0  0  0
  9 27  1  0  0  0  0
 10 21  1  0  0  0  0
 10 25  1  0  0  0  0
 11 22  2  0  0  0  0
 11 27  1  0  0  0  0
 12 20  1  0  0  0  0
 12 21  2  0  0  0  0
 12 22  1  0  0  0  0
 13 15  1  0  0  0  0
 13 23  1  0  0  0  0
 14 16  1  0  0  0  0
 14 23  1  0  0  0  0
 15 24  1  0  0  0  0
 16 24  1  0  0  0  0
 19 26  1  0  0  0  0
 20 23  1  0  0  0  0
  1 28  1  0  0  0  0
  2 29  1  0  0  0  0
  3 30  1  0  0  0  0
  4 31  1  0  0  0  0
 13 32  1  0  0  0  0
 13 33  1  0  0  0  0
 14 34  1  0  0  0  0
 14 35  1  0  0  0  0
 15 36  1  0  0  0  0
 15 37  1  0  0  0  0
 16 38  1  0  0  0  0
 16 39  1  0  0  0  0
 17 40  1  0  0  0  0
 17 41  1  0  0  0  0
 17 42  1  0  0  0  0
 18 43  1  0  0  0  0
 18 44  1  0  0  0  0
 18 45  1  0  0  0  0
 19 46  1  0  0  0  0
 19 47  1  0  0  0  0
 19 48  1  0  0  0  0
 20 49  1  0  0  0  0
 20 50  1  0  0  0  0
M  END
> <idnumber>
Z31211706

> <heavy_atoms>
27

> <LogS>
-4.75

> <LogP>
3.248

> <rotating_bonds>
5

> <PSA>
56.71

> <hb_acceptors>
5

> <hb_donors>
0

> <Collection>
Legacy

> <link>
https://www.enaminestore.com/catalog/Z31211706

> <ROCS_ShapeQuery>
x0446_0A_x1080_0A_x0929_0A_x0812_0A_x0719_0A_x1140_0A_x0528_0A_x0310_0A

> <ROCS_TanimotoCombo>
0.476 

> <ROCS_ShapeTanimoto>
0.268 

> <ROCS_ColorTanimoto>
0.208 

> <ROCS_RefTversky>
0.243 

> <ROCS_RefColorTversky>
0.227 

> <ROCS_RefTverskyCombo>
0.470 

> <ROCS_FitTversky>
1.611 

> <ROCS_FitColorTversky>
0.715 

> <ROCS_FitTverskyCombo>
2.325 

> <ROCS_ColorScore>
-8.139

> <ROCS_Overlap>
2875.400

> <ROCS_Rank>
31                  

$$$$
untitled-dbase-1168310_70
  -OEChem-02092406493D

 49 53  0     1  0  0  0  0  0999 V2000
    4.3632   12.7665   21.2258 C   0  0  0  0  0  0  0  0  0  0  0  0
    4.8992   11.9363   22.2130 C   0  0  0  0  0  0  0  0  0  0  0  0
    4.5449   14.1529   21.2661 C   0  0  0  0  0  0  0  0  0  0  0  0
   12.7256   14.4226   22.7761 C   0  0  0  0  0  0  0  0  0  0  0  0
    6.3778   15.8583   23.8390 C   0  0  0  0  0  0  0  0  0  0  0  0
    5.6381   12.4662   23.2782 C   0  0  0  0  0  0  0  0  0  0  0  0
    5.8307   13.8569   23.3344 C   0  0  0  0  0  0  0  0  0  0  0  0
    5.2842   14.6584   22.3360 C   0  0  0  0  0  0  0  0  0  0  0  0
   11.4230   14.1606   23.1488 C   0  0  0  0  0  0  0  0  0  0  0  0
   12.8851   15.3834   21.7986 C   0  0  0  0  0  0  0  0  0  0  0  0
   10.6376   15.6994   21.6715 C   0  0  0  0  0  0  0  0  0  0  0  0
    6.1983   11.5842   24.3103 C   0  0  0  0  0  0  0  0  0  0  0  0
   11.1320   13.1566   24.1815 C   0  0  0  0  0  0  0  0  0  0  0  0
    9.1879    9.5969   24.5883 C   0  0  0  0  0  0  0  0  0  0  0  0
    9.0918    9.7759   23.0613 C   0  0  0  0  0  0  0  0  0  0  0  0
    9.2962   12.0036   25.3619 C   0  0  0  0  0  0  0  0  0  0  0  0
    9.1389   12.2973   22.8514 C   0  0  0  0  0  0  0  0  0  0  0  0
    8.3950   10.7735   25.1689 C   0  0  1  0  0  0  0  0  0  0  0  0
    8.2475   11.0423   22.8683 C   0  0  2  0  0  0  0  0  0  0  0  0
   14.2573   15.7359   21.3304 C   0  0  0  0  0  0  0  0  0  0  0  0
    6.5062   14.6197   24.2592 N   0  0  0  0  0  0  0  0  0  0  0  0
   10.3511   14.7826   22.6154 N   0  0  0  0  0  0  0  0  0  0  0  0
   11.8595   16.0440   21.2222 N   0  0  0  0  0  0  0  0  0  0  0  0
    5.6497   15.9334   22.6843 N   0  0  0  0  0  0  0  0  0  0  0  0
    7.4706   11.0887   24.0978 N   0  0  0  0  0  0  0  0  0  0  0  0
    9.9178   12.4630   24.1032 N   0  0  0  0  0  0  0  0  0  0  0  0
    5.4984   11.3520   25.2934 O   0  0  0  0  0  0  0  0  0  0  0  0
   11.9888   13.0016   25.0504 O   0  0  0  0  0  0  0  0  0  0  0  0
    9.5683   16.3531   21.1050 O   0  0  0  0  0  0  0  0  0  0  0  0
    3.7943   12.3278   20.4097 H   0  0  0  0  0  0  0  0  0  0  0  0
    4.7344   10.8631   22.1453 H   0  0  0  0  0  0  0  0  0  0  0  0
    4.1292   14.7990   20.5014 H   0  0  0  0  0  0  0  0  0  0  0  0
   13.5686   13.9085   23.2215 H   0  0  0  0  0  0  0  0  0  0  0  0
    6.7829   16.7377   24.3191 H   0  0  0  0  0  0  0  0  0  0  0  0
    8.7205    8.6465   24.8713 H   0  0  0  0  0  0  0  0  0  0  0  0
   10.2281    9.5734   24.9289 H   0  0  0  0  0  0  0  0  0  0  0  0
   10.0813    9.8475   22.5983 H   0  0  0  0  0  0  0  0  0  0  0  0
    8.5804    8.9086   22.6273 H   0  0  0  0  0  0  0  0  0  0  0  0
    8.7089   12.8457   25.7488 H   0  0  0  0  0  0  0  0  0  0  0  0
   10.0810   11.7926   26.0973 H   0  0  0  0  0  0  0  0  0  0  0  0
    9.8183   12.2569   21.9940 H   0  0  0  0  0  0  0  0  0  0  0  0
    8.5242   13.1991   22.7419 H   0  0  0  0  0  0  0  0  0  0  0  0
    7.8758   10.5207   26.0983 H   0  0  0  0  0  0  0  0  0  0  0  0
    7.6232   10.9956   21.9720 H   0  0  0  0  0  0  0  0  0  0  0  0
   14.5475   15.0989   20.4863 H   0  0  0  0  0  0  0  0  0  0  0  0
   14.3113   16.7844   21.0106 H   0  0  0  0  0  0  0  0  0  0  0  0
   14.9958   15.6096   22.1326 H   0  0  0  0  0  0  0  0  0  0  0  0
    5.4211   16.7781   22.1774 H   0  0  0  0  0  0  0  0  0  0  0  0
    8.7479   16.0295   21.4983 H   0  0  0  0  0  0  0  0  0  0  0  0
  1  2  2  0  0  0  0
  1  3  1  0  0  0  0
  2  6  1  0  0  0  0
  3  8  2  0  0  0  0
  4  9  2  0  0  0  0
  4 10  1  0  0  0  0
  5 21  2  0  0  0  0
  5 24  1  0  0  0  0
  6  7  2  0  0  0  0
  6 12  1  0  0  0  0
  7  8  1  0  0  0  0
  7 21  1  0  0  0  0
  8 24  1  0  0  0  0
  9 13  1  0  0  0  0
  9 22  1  0  0  0  0
 10 20  1  0  0  0  0
 10 23  2  0  0  0  0
 11 22  2  0  0  0  0
 11 23  1  0  0  0  0
 11 29  1  0  0  0  0
 12 25  1  0  0  0  0
 12 27  2  0  0  0  0
 13 26  1  0  0  0  0
 13 28  2  0  0  0  0
 14 15  1  0  0  0  0
 14 18  1  0  0  0  0
 15 19  1  0  0  0  0
 16 18  1  0  0  0  0
 16 26  1  0  0  0  0
 17 19  1  0  0  0  0
 17 26  1  0  0  0  0
 18 25  1  0  0  0  0
 19 25  1  0  0  0  0
  1 30  1  0  0  0  0
  2 31  1  0  0  0  0
  3 32  1  0  0  0  0
  4 33  1  0  0  0  0
  5 34  1  0  0  0  0
 14 35  1  0  0  0  0
 14 36  1  0  0  0  0
 15 37  1  0  0  0  0
 15 38  1  0  0  0  0
 16 39  1  0  0  0  0
 16 40  1  0  0  0  0
 17 41  1  0  0  0  0
 17 42  1  0  0  0  0
 18 43  1  0  0  0  0
 19 44  1  0  0  0  0
 20 45  1  0  0  0  0
 20 46  1  0  0  0  0
 20 47  1  0  0  0  0
 24 48  1  0  0  0  0
 29 49  1  0  0  0  0
M  END
> <idnumber>
Z8381568831

> <heavy_atoms>
29

> <LogS>
-4.72

> <LogP>
1.08

> <rotating_bonds>
2

> <PSA>
115.31

> <hb_acceptors>
6

> <hb_donors>
2

> <Collection>
Advanced

> <link>
https://www.enaminestore.com/catalog/Z8381568831

> <ROCS_ShapeQuery>
x0446_0A_x1080_0A_x0929_0A_x0812_0A_x0719_0A_x1140_0A_x0528_0A_x0310_0A

> <ROCS_TanimotoCombo>
0.476 

> <ROCS_ShapeTanimoto>
0.263 

> <ROCS_ColorTanimoto>
0.213 

> <ROCS_RefTversky>
0.242 

> <ROCS_RefColorTversky>
0.267 

> <ROCS_RefTverskyCombo>
0.509 

> <ROCS_FitTversky>
1.487 

> <ROCS_FitColorTversky>
0.512 

> <ROCS_FitTverskyCombo>
1.999 

> <ROCS_ColorScore>
-9.659

> <ROCS_Overlap>
2864.381

> <ROCS_Rank>
32                  

$$$$
untitled-dbase-1163703_176
  -OEChem-02092406493D

 49 53  0     1  0  0  0  0  0999 V2000
   11.7295   13.7730   22.7029 C   0  0  0  0  0  0  0  0  0  0  0  0
    3.6384   13.6490   19.4068 C   0  0  0  0  0  0  0  0  0  0  0  0
   10.4554   14.2629   22.3670 C   0  0  0  0  0  0  0  0  0  0  0  0
    4.8505   14.1451   19.8080 C   0  0  0  0  0  0  0  0  0  0  0  0
   10.3076   15.4669   21.6593 C   0  0  0  0  0  0  0  0  0  0  0  0
   11.4634   16.1573   21.3026 C   0  0  0  0  0  0  0  0  0  0  0  0
   12.8676   14.4833   22.3336 C   0  0  0  0  0  0  0  0  0  0  0  0
   12.7340   15.6767   21.6329 C   0  0  0  0  0  0  0  0  0  0  0  0
    4.5961   14.6480   21.0957 C   0  0  0  0  0  0  0  0  0  0  0  0
    9.2782   13.6017   22.7057 C   0  0  0  0  0  0  0  0  0  0  0  0
    8.0301   15.2110   21.7183 C   0  0  0  0  0  0  0  0  0  0  0  0
   10.1019   10.2652   23.9100 C   0  0  0  0  0  0  0  0  0  0  0  0
    9.7584   11.0042   25.2119 C   0  0  0  0  0  0  0  0  0  0  0  0
    7.9784   10.6118   22.5460 C   0  0  0  0  0  0  0  0  0  0  0  0
    7.4040   11.8437   24.7188 C   0  0  0  0  0  0  0  0  0  0  0  0
    9.4258   11.0808   22.7935 C   0  0  1  0  0  0  0  0  0  0  0  0
    8.9010   12.2065   24.7785 C   0  0  2  0  0  0  0  0  0  0  0  0
    7.1369   10.6210   23.8299 C   0  0  0  0  0  0  0  0  0  0  0  0
    6.1156   14.1443   19.0576 C   0  0  0  0  0  0  0  0  0  0  0  0
    5.5574   15.3188   22.0339 C   0  0  0  0  0  0  0  0  0  0  0  0
    9.0939   15.9445   21.3327 N   0  0  0  0  0  0  0  0  0  0  0  0
    3.3236   14.4769   21.4649 N   0  0  0  0  0  0  0  0  0  0  0  0
    8.0478   14.0514   22.3950 N   0  0  0  0  0  0  0  0  0  0  0  0
    9.3453   12.4119   23.3984 N   0  0  0  0  0  0  0  0  0  0  0  0
    6.7592   15.7195   21.3720 N   0  0  0  0  0  0  0  0  0  0  0  0
    2.7191   13.8411   20.3871 O   0  0  0  0  0  0  0  0  0  0  0  0
   11.3399   17.3125   20.6280 F   0  0  0  0  0  0  0  0  0  0  0  0
    5.8184   10.5935   23.4969 F   0  0  0  0  0  0  0  0  0  0  0  0
   14.4034   13.8252   22.7766 Cl  0  0  0  0  0  0  0  0  0  0  0  0
   14.2395   16.7076   21.0940 Br  0  0  0  0  0  0  0  0  0  0  0  0
   11.8403   12.8399   23.2515 H   0  0  0  0  0  0  0  0  0  0  0  0
    3.2794   13.1590   18.5138 H   0  0  0  0  0  0  0  0  0  0  0  0
   11.1896   10.2659   23.7705 H   0  0  0  0  0  0  0  0  0  0  0  0
    9.7721    9.2216   23.9322 H   0  0  0  0  0  0  0  0  0  0  0  0
    9.2454   10.3549   25.9286 H   0  0  0  0  0  0  0  0  0  0  0  0
   10.6844   11.3527   25.6847 H   0  0  0  0  0  0  0  0  0  0  0  0
    7.4975   11.2437   21.7889 H   0  0  0  0  0  0  0  0  0  0  0  0
    7.9782    9.5978   22.1281 H   0  0  0  0  0  0  0  0  0  0  0  0
    7.0265   11.6388   25.7280 H   0  0  0  0  0  0  0  0  0  0  0  0
    6.8195   12.6970   24.3522 H   0  0  0  0  0  0  0  0  0  0  0  0
   10.0144   11.0680   21.8699 H   0  0  0  0  0  0  0  0  0  0  0  0
    9.0766   13.0793   25.4161 H   0  0  0  0  0  0  0  0  0  0  0  0
    7.3339    9.7065   24.4004 H   0  0  0  0  0  0  0  0  0  0  0  0
    6.2218   15.0581   18.4469 H   0  0  0  0  0  0  0  0  0  0  0  0
    6.9969   14.0864   19.7222 H   0  0  0  0  0  0  0  0  0  0  0  0
    6.1971   13.2787   18.3749 H   0  0  0  0  0  0  0  0  0  0  0  0
    5.1036   16.2112   22.4786 H   0  0  0  0  0  0  0  0  0  0  0  0
    5.8347   14.6509   22.8561 H   0  0  0  0  0  0  0  0  0  0  0  0
    6.7266   16.3875   20.6262 H   0  0  0  0  0  0  0  0  0  0  0  0
  1  3  1  0  0  0  0
  1  7  2  0  0  0  0
  2  4  2  0  0  0  0
  2 26  1  0  0  0  0
  3  5  2  0  0  0  0
  3 10  1  0  0  0  0
  4  9  1  0  0  0  0
  4 19  1  0  0  0  0
  5  6  1  0  0  0  0
  5 21  1  0  0  0  0
  6  8  2  0  0  0  0
  6 27  1  0  0  0  0
  7  8  1  0  0  0  0
  7 29  1  0  0  0  0
  8 30  1  0  0  0  0
  9 20  1  0  0  0  0
  9 22  2  0  0  0  0
 10 23  2  0  0  0  0
 10 24  1  0  0  0  0
 11 21  2  0  0  0  0
 11 23  1  0  0  0  0
 11 25  1  0  0  0  0
 12 13  1  0  0  0  0
 12 16  1  0  0  0  0
 13 17  1  0  0  0  0
 14 16  1  0  0  0  0
 14 18  1  0  0  0  0
 15 17  1  0  0  0  0
 15 18  1  0  0  0  0
 16 24  1  6  0  0  0
 17 24  1  6  0  0  0
 18 28  1  6  0  0  0
 20 25  1  0  0  0  0
 22 26  1  0  0  0  0
  1 31  1  0  0  0  0
  2 32  1  0  0  0  0
 12 33  1  0  0  0  0
 12 34  1  0  0  0  0
 13 35  1  0  0  0  0
 13 36  1  0  0  0  0
 14 37  1  0  0  0  0
 14 38  1  0  0  0  0
 15 39  1  0  0  0  0
 15 40  1  0  0  0  0
 16 41  1  0  0  0  0
 17 42  1  0  0  0  0
 18 43  1  0  0  0  0
 19 44  1  0  0  0  0
 19 45  1  0  0  0  0
 19 46  1  0  0  0  0
 20 47  1  0  0  0  0
 20 48  1  0  0  0  0
 25 49  1  0  0  0  0
M  END
> <idnumber>
Z8206215868

> <heavy_atoms>
30

> <LogS>
-6.607

> <LogP>
4.746

> <rotating_bonds>
4

> <PSA>
67.08

> <hb_acceptors>
5

> <hb_donors>
1

> <Collection>
Advanced

> <link>
https://www.enaminestore.com/catalog/Z8206215868

> <ROCS_ShapeQuery>
x0446_0A_x1080_0A_x0929_0A_x0812_0A_x0719_0A_x1140_0A_x0528_0A_x0310_0A

> <ROCS_TanimotoCombo>
0.475 

> <ROCS_ShapeTanimoto>
0.266 

> <ROCS_ColorTanimoto>
0.209 

> <ROCS_RefTversky>
0.245 

> <ROCS_RefColorTversky>
0.245 

> <ROCS_RefTverskyCombo>
0.490 

> <ROCS_FitTversky>
1.495 

> <ROCS_FitColorTversky>
0.588 

> <ROCS_FitTverskyCombo>
2.082 

> <ROCS_ColorScore>
-8.827

> <ROCS_Overlap>
2894.438

> <ROCS_Rank>
33                  

$$$$
untitled-dbase-501364_45
  -OEChem-02092406493D

 43 45  0     0  0  0  0  0  0999 V2000
    4.6619   13.5435   24.3308 C   0  0  0  0  0  0  0  0  0  0  0  0
    5.4435   13.9549   23.2037 C   0  0  0  0  0  0  0  0  0  0  0  0
    6.8675   13.9432   23.1567 C   0  0  0  0  0  0  0  0  0  0  0  0
    9.6257   11.8569   24.0079 C   0  0  0  0  0  0  0  0  0  0  0  0
    7.3490   14.3914   21.9464 C   0  0  0  0  0  0  0  0  0  0  0  0
    9.6555   10.5146   23.7446 C   0  0  0  0  0  0  0  0  0  0  0  0
    4.8908   14.4120   22.0274 C   0  0  0  0  0  0  0  0  0  0  0  0
    7.5989   11.0285   23.8034 C   0  0  0  0  0  0  0  0  0  0  0  0
   10.7827   12.6715   24.1927 C   0  0  0  0  0  0  0  0  0  0  0  0
   12.0787   10.5018   23.7940 C   0  0  0  0  0  0  0  0  0  0  0  0
    8.7005   14.5300   21.5060 C   0  0  0  0  0  0  0  0  0  0  0  0
   11.0896   12.0023   20.4788 C   0  0  0  0  0  0  0  0  0  0  0  0
   10.8281    8.3849   23.3502 C   0  0  0  0  0  0  0  0  0  0  0  0
   13.2191   12.6603   24.2443 C   0  0  0  0  0  0  0  0  0  0  0  0
    7.7488   13.4953   24.2912 C   0  0  0  0  0  0  0  0  0  0  0  0
   10.7541   13.3436   21.0952 C   0  0  0  0  0  0  0  0  0  0  0  0
    4.0285   13.2100   25.2442 N   0  0  0  0  0  0  0  0  0  0  0  0
    8.3950    9.9958   23.6171 N   0  0  0  0  0  0  0  0  0  0  0  0
    8.3000   12.1818   24.0444 N   0  0  0  0  0  0  0  0  0  0  0  0
   10.8493    9.8152   23.6323 N   0  0  0  0  0  0  0  0  0  0  0  0
   11.9774   11.9132   24.0702 N   0  0  0  0  0  0  0  0  0  0  0  0
    3.5708   14.5498   21.7355 N   0  0  0  0  0  0  0  0  0  0  0  0
   10.7443   13.8767   24.4277 O   0  0  0  0  0  0  0  0  0  0  0  0
   13.1679    9.9246   23.7032 O   0  0  0  0  0  0  0  0  0  0  0  0
    9.2403   15.6015   21.1443 O   0  0  0  0  0  0  0  0  0  0  0  0
    9.3856   13.3344   21.5157 O   0  0  0  0  0  0  0  0  0  0  0  0
    6.0867   14.8240   20.8732 S   0  0  0  0  0  0  0  0  0  0  0  0
    5.9005   11.0170   23.7661 Cl  0  0  0  0  0  0  0  0  0  0  0  0
   10.9526   11.1947   21.2033 H   0  0  0  0  0  0  0  0  0  0  0  0
   10.4546   11.8079   19.6083 H   0  0  0  0  0  0  0  0  0  0  0  0
   12.1262   11.9883   20.1260 H   0  0  0  0  0  0  0  0  0  0  0  0
   10.8444    8.2250   22.2620 H   0  0  0  0  0  0  0  0  0  0  0  0
   11.7098    7.9088   23.8039 H   0  0  0  0  0  0  0  0  0  0  0  0
    9.9141    7.9416   23.7721 H   0  0  0  0  0  0  0  0  0  0  0  0
   13.5090   12.6486   25.3054 H   0  0  0  0  0  0  0  0  0  0  0  0
   14.0139   12.1959   23.6421 H   0  0  0  0  0  0  0  0  0  0  0  0
   13.0705   13.6997   23.9164 H   0  0  0  0  0  0  0  0  0  0  0  0
    8.5808   14.1931   24.4456 H   0  0  0  0  0  0  0  0  0  0  0  0
    7.1922   13.4613   25.2357 H   0  0  0  0  0  0  0  0  0  0  0  0
   10.8932   14.1469   20.3655 H   0  0  0  0  0  0  0  0  0  0  0  0
   11.3889   13.5360   21.9653 H   0  0  0  0  0  0  0  0  0  0  0  0
    2.8396   14.2638   22.3960 H   0  0  0  0  0  0  0  0  0  0  0  0
    3.2526   14.8563   20.8094 H   0  0  0  0  0  0  0  0  0  0  0  0
  1  2  1  0  0  0  0
  1 17  3  0  0  0  0
  2  3  1  0  0  0  0
  2  7  2  0  0  0  0
  3  5  2  0  0  0  0
  3 15  1  0  0  0  0
  4  6  2  0  0  0  0
  4  9  1  0  0  0  0
  4 19  1  0  0  0  0
  5 11  1  0  0  0  0
  5 27  1  0  0  0  0
  6 18  1  0  0  0  0
  6 20  1  0  0  0  0
  7 22  1  0  0  0  0
  7 27  1  0  0  0  0
  8 18  2  0  0  0  0
  8 19  1  0  0  0  0
  8 28  1  0  0  0  0
  9 21  1  0  0  0  0
  9 23  2  0  0  0  0
 10 20  1  0  0  0  0
 10 21  1  0  0  0  0
 10 24  2  0  0  0  0
 11 25  2  0  0  0  0
 11 26  1  0  0  0  0
 12 16  1  0  0  0  0
 13 20  1  0  0  0  0
 14 21  1  0  0  0  0
 15 19  1  0  0  0  0
 16 26  1  0  0  0  0
 12 29  1  0  0  0  0
 12 30  1  0  0  0  0
 12 31  1  0  0  0  0
 13 32  1  0  0  0  0
 13 33  1  0  0  0  0
 13 34  1  0  0  0  0
 14 35  1  0  0  0  0
 14 36  1  0  0  0  0
 14 37  1  0  0  0  0
 15 38  1  0  0  0  0
 15 39  1  0  0  0  0
 16 40  1  0  0  0  0
 16 41  1  0  0  0  0
 22 42  1  0  0  0  0
 22 43  1  0  0  0  0
M  END
> <idnumber>
Z80555953

> <heavy_atoms>
28

> <LogS>
-4.89

> <LogP>
1.606

> <rotating_bonds>
5

> <PSA>
134.55

> <hb_acceptors>
6

> <hb_donors>
1

> <Collection>
Legacy

> <link>
https://www.enaminestore.com/catalog/Z80555953

> <ROCS_ShapeQuery>
x0446_0A_x1080_0A_x0929_0A_x0812_0A_x0719_0A_x1140_0A_x0528_0A_x0310_0A

> <ROCS_TanimotoCombo>
0.475 

> <ROCS_ShapeTanimoto>
0.262 

> <ROCS_ColorTanimoto>
0.213 

> <ROCS_RefTversky>
0.240 

> <ROCS_RefColorTversky>
0.236 

> <ROCS_RefTverskyCombo>
0.476 

> <ROCS_FitTversky>
1.545 

> <ROCS_FitColorTversky>
0.687 

> <ROCS_FitTverskyCombo>
2.231 

> <ROCS_ColorScore>
-8.467

> <ROCS_Overlap>
2836.189

> <ROCS_Rank>
34                  

$$$$
untitled-dbase-1000756_36
  -OEChem-02092406493D

 40 43  0     1  0  0  0  0  0999 V2000
    6.7582   13.5977   24.1288 C   0  0  0  0  0  0  0  0  0  0  0  0
    5.6743   13.1323   24.8647 C   0  0  0  0  0  0  0  0  0  0  0  0
    6.5412   11.0177   25.0180 C   0  0  0  0  0  0  0  0  0  0  0  0
    7.7697   12.7004   23.7907 C   0  0  0  0  0  0  0  0  0  0  0  0
    7.6655   11.3733   24.2790 C   0  0  0  0  0  0  0  0  0  0  0  0
   10.5985   14.8190   22.4129 C   0  0  0  0  0  0  0  0  0  0  0  0
   11.1195   16.0024   22.8741 C   0  0  0  0  0  0  0  0  0  0  0  0
   12.7096   14.8830   22.0731 C   0  0  0  0  0  0  0  0  0  0  0  0
    9.2354   14.2558   22.3886 C   0  0  0  0  0  0  0  0  0  0  0  0
   10.6788   11.8102   24.3932 C   0  0  0  0  0  0  0  0  0  0  0  0
    9.8003   10.7546   25.0954 C   0  0  0  0  0  0  0  0  0  0  0  0
    9.3488   10.6456   22.7895 C   0  0  0  0  0  0  0  0  0  0  0  0
   10.0178   12.0000   23.0125 C   0  0  1  0  0  0  0  0  0  0  0  0
   10.4315   17.1292   23.5209 C   0  0  0  0  0  0  0  0  0  0  0  0
   14.4477   14.9604   20.2677 C   0  0  0  0  0  0  0  0  0  0  0  0
   13.9915   14.3424   21.5961 C   0  0  0  0  0  0  0  0  0  0  0  0
    5.5325   11.8644   25.3068 N   0  0  0  0  0  0  0  0  0  0  0  0
   12.4727   16.0375   22.6538 N   0  0  0  0  0  0  0  0  0  0  0  0
    8.9623   13.0474   23.0476 N   0  0  0  0  0  0  0  0  0  0  0  0
    8.7384   10.4514   24.1092 N   0  0  2  0  0  0  0  0  0  0  0  0
    8.3703   14.9673   21.8731 O   0  0  0  0  0  0  0  0  0  0  0  0
   11.6213   14.0858   21.8915 O   0  0  0  0  0  0  0  0  0  0  0  0
    6.7563   14.6424   23.8534 H   0  0  0  0  0  0  0  0  0  0  0  0
    4.8613   13.8014   25.1278 H   0  0  0  0  0  0  0  0  0  0  0  0
    6.4187   10.0115   25.4066 H   0  0  0  0  0  0  0  0  0  0  0  0
   10.7403   12.7440   24.9612 H   0  0  0  0  0  0  0  0  0  0  0  0
   11.6967   11.4217   24.2719 H   0  0  0  0  0  0  0  0  0  0  0  0
   10.3850    9.8482   25.2860 H   0  0  0  0  0  0  0  0  0  0  0  0
    9.4142   11.1104   26.0575 H   0  0  0  0  0  0  0  0  0  0  0  0
    8.6299   10.6322   21.9613 H   0  0  0  0  0  0  0  0  0  0  0  0
   10.0910    9.8601   22.6026 H   0  0  0  0  0  0  0  0  0  0  0  0
   10.7564   12.2001   22.2291 H   0  0  0  0  0  0  0  0  0  0  0  0
   10.4043   17.0086   24.6184 H   0  0  0  0  0  0  0  0  0  0  0  0
   10.9201   18.0977   23.3073 H   0  0  0  0  0  0  0  0  0  0  0  0
    9.3871   17.2378   23.1746 H   0  0  0  0  0  0  0  0  0  0  0  0
   13.6791   14.8327   19.4979 H   0  0  0  0  0  0  0  0  0  0  0  0
   15.3703   14.4957   19.9060 H   0  0  0  0  0  0  0  0  0  0  0  0
   14.6316   16.0339   20.3840 H   0  0  0  0  0  0  0  0  0  0  0  0
   14.7979   14.4951   22.3423 H   0  0  0  0  0  0  0  0  0  0  0  0
   13.9432   13.2418   21.4657 H   0  0  0  0  0  0  0  0  0  0  0  0
  1  2  2  0  0  0  0
  1  4  1  0  0  0  0
  2 17  1  0  0  0  0
  3  5  1  0  0  0  0
  3 17  2  0  0  0  0
  4  5  2  0  0  0  0
  4 19  1  0  0  0  0
  5 20  1  0  0  0  0
  6  7  2  0  0  0  0
  6  9  1  0  0  0  0
  6 22  1  0  0  0  0
  7 14  1  0  0  0  0
  7 18  1  0  0  0  0
  8 16  1  0  0  0  0
  8 18  2  0  0  0  0
  8 22  1  0  0  0  0
  9 19  1  0  0  0  0
  9 21  2  0  0  0  0
 10 11  1  0  0  0  0
 10 13  1  0  0  0  0
 11 20  1  0  0  0  0
 12 13  1  0  0  0  0
 12 20  1  0  0  0  0
 13 19  1  0  0  0  0
 15 16  1  0  0  0  0
  1 23  1  0  0  0  0
  2 24  1  0  0  0  0
  3 25  1  0  0  0  0
 10 26  1  0  0  0  0
 10 27  1  0  0  0  0
 11 28  1  0  0  0  0
 11 29  1  0  0  0  0
 12 30  1  0  0  0  0
 12 31  1  0  0  0  0
 13 32  1  0  0  0  0
 14 33  1  0  0  0  0
 14 34  1  0  0  0  0
 14 35  1  0  0  0  0
 15 36  1  0  0  0  0
 15 37  1  0  0  0  0
 15 38  1  0  0  0  0
 16 39  1  0  0  0  0
 16 40  1  0  0  0  0
M  END
> <idnumber>
Z3027255137

> <heavy_atoms>
22

> <LogS>
-2.367

> <LogP>
0.325

> <rotating_bonds>
2

> <PSA>
62.47

> <hb_acceptors>
4

> <hb_donors>
0

> <Collection>
HTS

> <link>
https://www.enaminestore.com/catalog/Z3027255137

> <ROCS_ShapeQuery>
x0446_0A_x1080_0A_x0929_0A_x0812_0A_x0719_0A_x1140_0A_x0528_0A_x0310_0A

> <ROCS_TanimotoCombo>
0.475 

> <ROCS_ShapeTanimoto>
0.258 

> <ROCS_ColorTanimoto>
0.217 

> <ROCS_RefTversky>
0.233 

> <ROCS_RefColorTversky>
0.244 

> <ROCS_RefTverskyCombo>
0.476 

> <ROCS_FitTversky>
1.715 

> <ROCS_FitColorTversky>
0.667 

> <ROCS_FitTverskyCombo>
2.382 

> <ROCS_ColorScore>
-8.757

> <ROCS_Overlap>
2748.944

> <ROCS_Rank>
35                  

$$$$
untitled-dbase-511840_15
  -OEChem-02092406493D

 36 38  0     0  0  0  0  0  0999 V2000
    5.7964   12.9584   25.4977 C   0  0  0  0  0  0  0  0  0  0  0  0
    5.5462   11.5946   25.6017 C   0  0  0  0  0  0  0  0  0  0  0  0
    6.9701   13.3968   24.8926 C   0  0  0  0  0  0  0  0  0  0  0  0
   13.0156   14.2830   22.9503 C   0  0  0  0  0  0  0  0  0  0  0  0
    6.4695   10.6724   25.1004 C   0  0  0  0  0  0  0  0  0  0  0  0
   11.7991   13.9906   23.5669 C   0  0  0  0  0  0  0  0  0  0  0  0
   11.8471   15.5051   21.2245 C   0  0  0  0  0  0  0  0  0  0  0  0
    7.8935   12.4631   24.3910 C   0  0  0  0  0  0  0  0  0  0  0  0
   13.0396   15.0403   21.7791 C   0  0  0  0  0  0  0  0  0  0  0  0
    7.6520   11.0831   24.4899 C   0  0  0  0  0  0  0  0  0  0  0  0
   10.6066   14.4554   23.0123 C   0  0  0  0  0  0  0  0  0  0  0  0
   10.6306   15.2127   21.8411 C   0  0  0  0  0  0  0  0  0  0  0  0
    9.0851   12.8349   23.7749 C   0  0  0  0  0  0  0  0  0  0  0  0
    9.6465   10.6683   23.4382 C   0  0  0  0  0  0  0  0  0  0  0  0
   14.3082   15.3469   21.1375 C   0  0  0  0  0  0  0  0  0  0  0  0
    8.8258   14.8313   20.3401 C   0  0  0  0  0  0  0  0  0  0  0  0
   10.6138    9.6620   22.9133 C   0  0  0  0  0  0  0  0  0  0  0  0
    8.5282   10.1814   24.0135 N   0  0  0  0  0  0  0  0  0  0  0  0
    9.9840   11.9591   23.2873 N   0  0  0  0  0  0  0  0  0  0  0  0
   14.3959   16.0110   20.1009 O   0  0  0  0  0  0  0  0  0  0  0  0
    9.4094   14.1592   23.6322 O   0  0  0  0  0  0  0  0  0  0  0  0
    9.4730   15.6745   21.2910 O   0  0  0  0  0  0  0  0  0  0  0  0
   10.2133    8.3691   23.0979 F   0  0  0  0  0  0  0  0  0  0  0  0
   10.8460    9.7744   21.5719 F   0  0  0  0  0  0  0  0  0  0  0  0
   11.8400    9.7533   23.5058 F   0  0  0  0  0  0  0  0  0  0  0  0
    5.0817   13.6764   25.8877 H   0  0  0  0  0  0  0  0  0  0  0  0
    4.6327   11.2434   26.0726 H   0  0  0  0  0  0  0  0  0  0  0  0
    7.1516   14.4659   24.8190 H   0  0  0  0  0  0  0  0  0  0  0  0
   13.9386   13.9157   23.3913 H   0  0  0  0  0  0  0  0  0  0  0  0
    6.2507    9.6104   25.1950 H   0  0  0  0  0  0  0  0  0  0  0  0
   11.7870   13.3999   24.4788 H   0  0  0  0  0  0  0  0  0  0  0  0
   11.8625   16.0979   20.3128 H   0  0  0  0  0  0  0  0  0  0  0  0
   15.2318   14.9561   21.6174 H   0  0  0  0  0  0  0  0  0  0  0  0
    7.9161   15.3180   19.9801 H   0  0  0  0  0  0  0  0  0  0  0  0
    8.5793   13.8749   20.8080 H   0  0  0  0  0  0  0  0  0  0  0  0
    9.5018   14.6597   19.4990 H   0  0  0  0  0  0  0  0  0  0  0  0
  1  2  1  0  0  0  0
  1  3  2  0  0  0  0
  2  5  2  0  0  0  0
  3  8  1  0  0  0  0
  4  6  2  0  0  0  0
  4  9  1  0  0  0  0
  5 10  1  0  0  0  0
  6 11  1  0  0  0  0
  7  9  2  0  0  0  0
  7 12  1  0  0  0  0
  8 10  1  0  0  0  0
  8 13  2  0  0  0  0
  9 15  1  0  0  0  0
 10 18  2  0  0  0  0
 11 12  2  0  0  0  0
 11 21  1  0  0  0  0
 12 22  1  0  0  0  0
 13 19  1  0  0  0  0
 13 21  1  0  0  0  0
 14 17  1  0  0  0  0
 14 18  1  0  0  0  0
 14 19  2  0  0  0  0
 15 20  2  0  0  0  0
 16 22  1  0  0  0  0
 17 23  1  0  0  0  0
 17 24  1  0  0  0  0
 17 25  1  0  0  0  0
  1 26  1  0  0  0  0
  2 27  1  0  0  0  0
  3 28  1  0  0  0  0
  4 29  1  0  0  0  0
  5 30  1  0  0  0  0
  6 31  1  0  0  0  0
  7 32  1  0  0  0  0
 15 33  1  0  0  0  0
 16 34  1  0  0  0  0
 16 35  1  0  0  0  0
 16 36  1  0  0  0  0
M  END
> <idnumber>
Z86233690

> <heavy_atoms>
25

> <LogS>
-5.18

> <LogP>
3.407

> <rotating_bonds>
5

> <PSA>
61.31

> <hb_acceptors>
4

> <hb_donors>
0

> <Collection>
Functional

> <link>
https://www.enaminestore.com/catalog/Z86233690

> <ROCS_ShapeQuery>
x0446_0A_x1080_0A_x0929_0A_x0812_0A_x0719_0A_x1140_0A_x0528_0A_x0310_0A

> <ROCS_TanimotoCombo>
0.475 

> <ROCS_ShapeTanimoto>
0.277 

> <ROCS_ColorTanimoto>
0.198 

> <ROCS_RefTversky>
0.249 

> <ROCS_RefColorTversky>
0.209 

> <ROCS_RefTverskyCombo>
0.458 

> <ROCS_FitTversky>
1.698 

> <ROCS_FitColorTversky>
0.787 

> <ROCS_FitTverskyCombo>
2.485 

> <ROCS_ColorScore>
-7.460

> <ROCS_Overlap>
2942.221

> <ROCS_Rank>
36                  

$$$$
untitled-dbase-1168173_91
  -OEChem-02092406493D

 50 55  0     1  0  0  0  0  0999 V2000
    3.4456   11.6249   18.2858 C   0  0  0  0  0  0  0  0  0  0  0  0
    4.1726   10.6505   18.9696 C   0  0  0  0  0  0  0  0  0  0  0  0
    2.9477   12.7330   18.9715 C   0  0  0  0  0  0  0  0  0  0  0  0
   12.8136   15.1461   23.1209 C   0  0  0  0  0  0  0  0  0  0  0  0
   12.3748   13.8240   23.0000 C   0  0  0  0  0  0  0  0  0  0  0  0
    4.4016   10.7841   20.3391 C   0  0  0  0  0  0  0  0  0  0  0  0
    3.1767   12.8665   20.3409 C   0  0  0  0  0  0  0  0  0  0  0  0
   12.0604   16.2085   22.6040 C   0  0  0  0  0  0  0  0  0  0  0  0
   11.1700   13.5128   22.3600 C   0  0  0  0  0  0  0  0  0  0  0  0
    3.9036   11.8921   21.0247 C   0  0  0  0  0  0  0  0  0  0  0  0
   10.8508   15.9100   21.9601 C   0  0  0  0  0  0  0  0  0  0  0  0
   10.4412   14.5878   21.8555 C   0  0  0  0  0  0  0  0  0  0  0  0
   10.7049   12.1228   22.2308 C   0  0  0  0  0  0  0  0  0  0  0  0
    6.0924   11.9959   24.1798 C   0  0  0  0  0  0  0  0  0  0  0  0
    4.2452   13.4139   23.0839 C   0  0  0  0  0  0  0  0  0  0  0  0
    9.0505    9.9837   24.6461 C   0  0  0  0  0  0  0  0  0  0  0  0
    9.4690   12.3028   24.4758 C   0  0  0  0  0  0  0  0  0  0  0  0
    7.7480   10.6355   22.7842 C   0  0  0  0  0  0  0  0  0  0  0  0
    4.1458   12.0340   22.4807 C   0  0  2  0  0  0  0  0  0  0  0  0
    5.4701   12.5813   22.9383 C   0  0  2  0  0  0  0  0  0  0  0  0
    8.3868   11.3272   24.9720 C   0  0  1  0  0  0  0  0  0  0  0  0
    9.2092   10.3332   23.1619 C   0  0  1  0  0  0  0  0  0  0  0  0
    9.9202   16.7225   21.3680 N   0  0  0  0  0  0  0  0  0  0  0  0
    8.9435   15.9548   20.8971 N   0  0  0  0  0  0  0  0  0  0  0  0
    9.2543   14.6807   21.1878 N   0  0  0  0  0  0  0  0  0  0  0  0
    9.9109   11.6251   23.2455 N   0  0  0  0  0  0  0  0  0  0  0  0
    7.2940   11.3502   23.9857 N   0  0  0  0  0  0  0  0  0  0  0  0
   11.0396   11.5022   21.2243 O   0  0  0  0  0  0  0  0  0  0  0  0
    5.5381   12.1109   25.2734 O   0  0  0  0  0  0  0  0  0  0  0  0
    3.2675   11.5211   17.2195 H   0  0  0  0  0  0  0  0  0  0  0  0
    4.5606    9.7877   18.4360 H   0  0  0  0  0  0  0  0  0  0  0  0
    2.3814   13.4916   18.4388 H   0  0  0  0  0  0  0  0  0  0  0  0
   13.7547   15.3536   23.6239 H   0  0  0  0  0  0  0  0  0  0  0  0
   12.9895   13.0276   23.4152 H   0  0  0  0  0  0  0  0  0  0  0  0
    4.9685   10.0192   20.8631 H   0  0  0  0  0  0  0  0  0  0  0  0
    2.7837   13.7334   20.8659 H   0  0  0  0  0  0  0  0  0  0  0  0
   12.4089   17.2313   22.7023 H   0  0  0  0  0  0  0  0  0  0  0  0
    4.1588   14.2763   22.4330 H   0  0  0  0  0  0  0  0  0  0  0  0
    3.8143   13.5624   24.0674 H   0  0  0  0  0  0  0  0  0  0  0  0
   10.0067    9.8327   25.1586 H   0  0  0  0  0  0  0  0  0  0  0  0
    8.3954    9.1243   24.8251 H   0  0  0  0  0  0  0  0  0  0  0  0
    9.0923   13.3057   24.2530 H   0  0  0  0  0  0  0  0  0  0  0  0
   10.3196   12.3670   25.1621 H   0  0  0  0  0  0  0  0  0  0  0  0
    7.6392   11.2630   21.8946 H   0  0  0  0  0  0  0  0  0  0  0  0
    7.1518    9.7238   22.6757 H   0  0  0  0  0  0  0  0  0  0  0  0
    3.6716   11.2821   23.1057 H   0  0  0  0  0  0  0  0  0  0  0  0
    6.1984   12.8780   22.2051 H   0  0  0  0  0  0  0  0  0  0  0  0
    8.0541   11.4840   25.9993 H   0  0  0  0  0  0  0  0  0  0  0  0
    9.7124    9.6021   22.5271 H   0  0  0  0  0  0  0  0  0  0  0  0
    8.6213   13.9427   20.9037 H   0  0  0  0  0  0  0  0  0  0  0  0
  1  2  1  0  0  0  0
  1  3  2  0  0  0  0
  2  6  2  0  0  0  0
  3  7  1  0  0  0  0
  4  5  2  0  0  0  0
  4  8  1  0  0  0  0
  5  9  1  0  0  0  0
  6 10  1  0  0  0  0
  7 10  2  0  0  0  0
  8 11  2  0  0  0  0
  9 12  2  0  0  0  0
  9 13  1  0  0  0  0
 10 19  1  1  0  0  0
 11 12  1  0  0  0  0
 11 23  1  0  0  0  0
 12 25  1  0  0  0  0
 13 26  1  0  0  0  0
 13 28  2  0  0  0  0
 14 20  1  6  0  0  0
 14 27  1  0  0  0  0
 14 29  2  0  0  0  0
 15 19  1  0  0  0  0
 15 20  1  0  0  0  0
 16 21  1  1  0  0  0
 16 22  1  1  0  0  0
 17 21  1  0  0  0  0
 17 26  1  0  0  0  0
 18 22  1  0  0  0  0
 18 27  1  0  0  0  0
 19 20  1  0  0  0  0
 21 27  1  0  0  0  0
 22 26  1  0  0  0  0
 23 24  2  0  0  0  0
 24 25  1  0  0  0  0
  1 30  1  0  0  0  0
  2 31  1  0  0  0  0
  3 32  1  0  0  0  0
  4 33  1  0  0  0  0
  5 34  1  0  0  0  0
  6 35  1  0  0  0  0
  7 36  1  0  0  0  0
  8 37  1  0  0  0  0
 15 38  1  0  0  0  0
 15 39  1  0  0  0  0
 16 40  1  0  0  0  0
 16 41  1  0  0  0  0
 17 42  1  0  0  0  0
 17 43  1  0  0  0  0
 18 44  1  0  0  0  0
 18 45  1  0  0  0  0
 19 46  1  0  0  0  0
 20 47  1  0  0  0  0
 21 48  1  0  0  0  0
 22 49  1  0  0  0  0
 25 50  1  0  0  0  0
M  END
> <idnumber>
Z8379083849

> <heavy_atoms>
29

> <LogS>
-4.745

> <LogP>
1.686

> <rotating_bonds>
3

> <PSA>
82.19

> <hb_acceptors>
4

> <hb_donors>
1

> <Collection>
Advanced

> <link>
https://www.enaminestore.com/catalog/Z8379083849

> <ROCS_ShapeQuery>
x0446_0A_x1080_0A_x0929_0A_x0812_0A_x0719_0A_x1140_0A_x0528_0A_x0310_0A

> <ROCS_TanimotoCombo>
0.475 

> <ROCS_ShapeTanimoto>
0.262 

> <ROCS_ColorTanimoto>
0.212 

> <ROCS_RefTversky>
0.242 

> <ROCS_RefColorTversky>
0.252 

> <ROCS_RefTverskyCombo>
0.494 

> <ROCS_FitTversky>
1.487 

> <ROCS_FitColorTversky>
0.573 

> <ROCS_FitTverskyCombo>
2.060 

> <ROCS_ColorScore>
-9.104

> <ROCS_Overlap>
2859.027

> <ROCS_Rank>
37                  

$$$$
untitled-dbase-325356_85
  -OEChem-02092406493D

 53 58  0     0  0  0  0  0  0999 V2000
    7.3897   17.6796   23.9641 C   0  0  0  0  0  0  0  0  0  0  0  0
    8.1758   17.0608   24.9360 C   0  0  0  0  0  0  0  0  0  0  0  0
    6.5731   16.9111   23.1345 C   0  0  0  0  0  0  0  0  0  0  0  0
   13.0339   16.0009   22.2634 C   0  0  0  0  0  0  0  0  0  0  0  0
   13.1293   14.7665   22.9130 C   0  0  0  0  0  0  0  0  0  0  0  0
    8.1454   15.6736   25.0784 C   0  0  0  0  0  0  0  0  0  0  0  0
    6.5426   15.5239   23.2768 C   0  0  0  0  0  0  0  0  0  0  0  0
   11.8283   16.4250   21.6891 C   0  0  0  0  0  0  0  0  0  0  0  0
   12.0272   13.9102   23.0139 C   0  0  0  0  0  0  0  0  0  0  0  0
    6.3835   12.9021   25.2557 C   0  0  0  0  0  0  0  0  0  0  0  0
    8.1205   12.4970   23.7480 C   0  0  0  0  0  0  0  0  0  0  0  0
    7.3288   14.9051   24.2487 C   0  0  0  0  0  0  0  0  0  0  0  0
    7.2973   13.4712   24.3955 C   0  0  0  0  0  0  0  0  0  0  0  0
   10.7160   15.5759   21.7834 C   0  0  0  0  0  0  0  0  0  0  0  0
   10.8413   14.3564   22.4345 C   0  0  0  0  0  0  0  0  0  0  0  0
    9.1597   12.5948   22.8172 C   0  0  0  0  0  0  0  0  0  0  0  0
    7.7830   11.2135   24.1577 C   0  0  0  0  0  0  0  0  0  0  0  0
    9.3438   10.3003   22.8512 C   0  0  0  0  0  0  0  0  0  0  0  0
   14.0059   10.3968   23.3504 C   0  0  0  0  0  0  0  0  0  0  0  0
   13.6928    9.9767   21.9187 C   0  0  0  0  0  0  0  0  0  0  0  0
   13.2082    9.5545   24.3393 C   0  0  0  0  0  0  0  0  0  0  0  0
   12.1860    9.9720   21.6570 C   0  0  0  0  0  0  0  0  0  0  0  0
   11.7166    9.5633   24.0009 C   0  0  0  0  0  0  0  0  0  0  0  0
   10.0503    9.0829   22.3288 C   0  0  0  0  0  0  0  0  0  0  0  0
    9.4321   15.7182   21.3275 N   0  0  0  0  0  0  0  0  0  0  0  0
    9.7756   11.4810   22.3665 N   0  0  0  0  0  0  0  0  0  0  0  0
    8.3623   10.0704   23.7417 N   0  0  0  0  0  0  0  0  0  0  0  0
    8.7504   14.6307   21.6707 N   0  0  0  0  0  0  0  0  0  0  0  0
    9.5914   13.8177   22.3312 N   0  0  0  0  0  0  0  0  0  0  0  0
   11.4831    9.1140   22.6212 N   0  0  0  0  0  0  0  0  0  0  0  0
    6.5088   11.1966   25.2893 S   0  0  0  0  0  0  0  0  0  0  0  0
    7.4125   18.7598   23.8538 H   0  0  0  0  0  0  0  0  0  0  0  0
    8.8108   17.6591   25.5829 H   0  0  0  0  0  0  0  0  0  0  0  0
    5.9601   17.3932   22.3786 H   0  0  0  0  0  0  0  0  0  0  0  0
   13.9092   16.6425   22.2018 H   0  0  0  0  0  0  0  0  0  0  0  0
   14.0787   14.4653   23.3492 H   0  0  0  0  0  0  0  0  0  0  0  0
    8.7641   15.2060   25.8408 H   0  0  0  0  0  0  0  0  0  0  0  0
    5.9006   14.9389   22.6222 H   0  0  0  0  0  0  0  0  0  0  0  0
   11.7634   17.3848   21.1873 H   0  0  0  0  0  0  0  0  0  0  0  0
   12.1020   12.9534   23.5175 H   0  0  0  0  0  0  0  0  0  0  0  0
    5.6443   13.3968   25.8718 H   0  0  0  0  0  0  0  0  0  0  0  0
   15.0783   10.2698   23.5428 H   0  0  0  0  0  0  0  0  0  0  0  0
   13.7765   11.4590   23.4896 H   0  0  0  0  0  0  0  0  0  0  0  0
   14.1850   10.6647   21.2193 H   0  0  0  0  0  0  0  0  0  0  0  0
   14.1048    8.9792   21.7280 H   0  0  0  0  0  0  0  0  0  0  0  0
   13.5828    8.5247   24.3338 H   0  0  0  0  0  0  0  0  0  0  0  0
   13.3567    9.9434   25.3547 H   0  0  0  0  0  0  0  0  0  0  0  0
   11.8216   11.0029   21.7434 H   0  0  0  0  0  0  0  0  0  0  0  0
   11.9926    9.6429   20.6273 H   0  0  0  0  0  0  0  0  0  0  0  0
   11.1738    8.9303   24.7154 H   0  0  0  0  0  0  0  0  0  0  0  0
   11.3447   10.5877   24.1254 H   0  0  0  0  0  0  0  0  0  0  0  0
    9.6345    8.1735   22.7760 H   0  0  0  0  0  0  0  0  0  0  0  0
    9.9320    8.9952   21.2437 H   0  0  0  0  0  0  0  0  0  0  0  0
  1  2  1  0  0  0  0
  1  3  2  0  0  0  0
  2  6  2  0  0  0  0
  3  7  1  0  0  0  0
  4  5  1  0  0  0  0
  4  8  2  0  0  0  0
  5  9  2  0  0  0  0
  6 12  1  0  0  0  0
  7 12  2  0  0  0  0
  8 14  1  0  0  0  0
  9 15  1  0  0  0  0
 10 13  2  0  0  0  0
 10 31  1  0  0  0  0
 11 13  1  0  0  0  0
 11 16  1  0  0  0  0
 11 17  2  0  0  0  0
 12 13  1  0  0  0  0
 14 15  2  0  0  0  0
 14 25  1  0  0  0  0
 15 29  1  0  0  0  0
 16 26  2  0  0  0  0
 16 29  1  0  0  0  0
 17 27  1  0  0  0  0
 17 31  1  0  0  0  0
 18 24  1  0  0  0  0
 18 26  1  0  0  0  0
 18 27  2  0  0  0  0
 19 20  1  0  0  0  0
 19 21  1  0  0  0  0
 20 22  1  0  0  0  0
 21 23  1  0  0  0  0
 22 30  1  0  0  0  0
 23 30  1  0  0  0  0
 24 30  1  0  0  0  0
 25 28  2  0  0  0  0
 28 29  1  0  0  0  0
  1 32  1  0  0  0  0
  2 33  1  0  0  0  0
  3 34  1  0  0  0  0
  4 35  1  0  0  0  0
  5 36  1  0  0  0  0
  6 37  1  0  0  0  0
  7 38  1  0  0  0  0
  8 39  1  0  0  0  0
  9 40  1  0  0  0  0
 10 41  1  0  0  0  0
 19 42  1  0  0  0  0
 19 43  1  0  0  0  0
 20 44  1  0  0  0  0
 20 45  1  0  0  0  0
 21 46  1  0  0  0  0
 21 47  1  0  0  0  0
 22 48  1  0  0  0  0
 22 49  1  0  0  0  0
 23 50  1  0  0  0  0
 23 51  1  0  0  0  0
 24 52  1  0  0  0  0
 24 53  1  0  0  0  0
M  END
> <idnumber>
Z31204204

> <heavy_atoms>
31

> <LogS>
-6.18

> <LogP>
5.726

> <rotating_bonds>
4

> <PSA>
59.73

> <hb_acceptors>
5

> <hb_donors>
0

> <Collection>
Legacy

> <link>
https://www.enaminestore.com/catalog/Z31204204

> <ROCS_ShapeQuery>
x0446_0A_x1080_0A_x0929_0A_x0812_0A_x0719_0A_x1140_0A_x0528_0A_x0310_0A

> <ROCS_TanimotoCombo>
0.475 

> <ROCS_ShapeTanimoto>
0.295 

> <ROCS_ColorTanimoto>
0.180 

> <ROCS_RefTversky>
0.266 

> <ROCS_RefColorTversky>
0.206 

> <ROCS_RefTverskyCombo>
0.472 

> <ROCS_FitTversky>
1.571 

> <ROCS_FitColorTversky>
0.584 

> <ROCS_FitTverskyCombo>
2.155 

> <ROCS_ColorScore>
-7.407

> <ROCS_Overlap>
3150.559

> <ROCS_Rank>
38                  

$$$$
untitled-dbase-1012781_81
  -OEChem-02092406493D

 38 41  0     1  0  0  0  0  0999 V2000
   12.7057   15.7999   22.4896 C   0  0  0  0  0  0  0  0  0  0  0  0
   12.8169   15.1039   21.3108 C   0  0  0  0  0  0  0  0  0  0  0  0
   11.3525   15.6632   22.8528 C   0  0  0  0  0  0  0  0  0  0  0  0
    7.9689   12.5311   21.7251 C   0  0  0  0  0  0  0  0  0  0  0  0
    7.6941   13.8896   24.2743 C   0  0  0  0  0  0  0  0  0  0  0  0
    8.8943   10.3945   25.3286 C   0  0  0  0  0  0  0  0  0  0  0  0
    9.0241    9.7436   23.9444 C   0  0  0  0  0  0  0  0  0  0  0  0
    9.5805   10.8684   21.6488 C   0  0  0  0  0  0  0  0  0  0  0  0
    7.7606   11.7045   22.9712 C   0  0  2  0  0  0  0  0  0  0  0  0
    7.6954   12.3925   24.3360 C   0  0  1  0  0  0  0  0  0  0  0  0
    8.9853   11.8910   25.0031 C   0  0  2  0  0  0  0  0  0  0  0  0
    9.0915   10.9712   23.0551 C   0  0  1  0  0  0  0  0  0  0  0  0
   10.6664   16.2304   24.0712 C   0  0  0  0  0  0  0  0  0  0  0  0
    9.1827   15.8766   24.1379 C   0  0  0  0  0  0  0  0  0  0  0  0
   10.6540   14.9375   21.9756 N   0  0  0  0  0  0  0  0  0  0  0  0
   11.5719   14.6120   21.0495 N   0  0  0  0  0  0  0  0  0  0  0  0
    8.9550   14.4510   24.2065 N   0  0  0  0  0  0  0  0  0  0  0  0
    7.2858   13.4798   21.3711 O   0  0  0  0  0  0  0  0  0  0  0  0
    6.6281   14.4939   24.2857 O   0  0  0  0  0  0  0  0  0  0  0  0
    9.0250   12.0314   21.0050 O   0  0  0  0  0  0  0  0  0  0  0  0
    9.8825   11.8671   23.8688 O   0  0  0  0  0  0  0  0  0  0  0  0
   13.4933   16.3283   23.0069 H   0  0  0  0  0  0  0  0  0  0  0  0
   13.6508   14.9190   20.6492 H   0  0  0  0  0  0  0  0  0  0  0  0
    7.9664   10.1273   25.8427 H   0  0  0  0  0  0  0  0  0  0  0  0
    9.7379   10.0851   25.9556 H   0  0  0  0  0  0  0  0  0  0  0  0
    9.9520    9.1628   23.8941 H   0  0  0  0  0  0  0  0  0  0  0  0
    8.1848    9.0830   23.7083 H   0  0  0  0  0  0  0  0  0  0  0  0
   10.6701   10.9196   21.5723 H   0  0  0  0  0  0  0  0  0  0  0  0
    9.2072    9.9823   21.1266 H   0  0  0  0  0  0  0  0  0  0  0  0
    6.9228   11.0210   22.7944 H   0  0  0  0  0  0  0  0  0  0  0  0
    6.8089   12.0868   24.9021 H   0  0  0  0  0  0  0  0  0  0  0  0
    9.3711   12.5131   25.8147 H   0  0  0  0  0  0  0  0  0  0  0  0
   10.7785   17.3220   24.0572 H   0  0  0  0  0  0  0  0  0  0  0  0
   11.1779   15.8861   24.9791 H   0  0  0  0  0  0  0  0  0  0  0  0
    8.7357   16.3114   25.0375 H   0  0  0  0  0  0  0  0  0  0  0  0
    8.6372   16.2567   23.2678 H   0  0  0  0  0  0  0  0  0  0  0  0
   11.2791   14.0485   20.2611 H   0  0  0  0  0  0  0  0  0  0  0  0
    9.7602   13.8322   24.2049 H   0  0  0  0  0  0  0  0  0  0  0  0
  1  2  2  0  0  0  0
  1  3  1  0  0  0  0
  2 16  1  0  0  0  0
  3 13  1  0  0  0  0
  3 15  2  0  0  0  0
  4  9  1  6  0  0  0
  4 18  2  0  0  0  0
  4 20  1  0  0  0  0
  5 10  1  6  0  0  0
  5 17  1  0  0  0  0
  5 19  2  0  0  0  0
  6  7  1  0  0  0  0
  6 11  1  0  0  0  0
  7 12  1  0  0  0  0
  8 12  1  0  0  0  0
  8 20  1  0  0  0  0
  9 10  1  0  0  0  0
  9 12  1  0  0  0  0
 10 11  1  0  0  0  0
 11 21  1  1  0  0  0
 12 21  1  6  0  0  0
 13 14  1  0  0  0  0
 14 17  1  0  0  0  0
 15 16  1  0  0  0  0
  1 22  1  0  0  0  0
  2 23  1  0  0  0  0
  6 24  1  0  0  0  0
  6 25  1  0  0  0  0
  7 26  1  0  0  0  0
  7 27  1  0  0  0  0
  8 28  1  0  0  0  0
  8 29  1  0  0  0  0
  9 30  1  0  0  0  0
 10 31  1  0  0  0  0
 11 32  1  0  0  0  0
 13 33  1  0  0  0  0
 13 34  1  0  0  0  0
 14 35  1  0  0  0  0
 14 36  1  0  0  0  0
 16 37  1  0  0  0  0
 17 38  1  0  0  0  0
M  END
> <idnumber>
Z3204185833

> <heavy_atoms>
21

> <LogS>
-1.927

> <LogP>
-1.009

> <rotating_bonds>
4

> <PSA>
93.31

> <hb_acceptors>
4

> <hb_donors>
2

> <Collection>
Advanced

> <link>
https://www.enaminestore.com/catalog/Z3204185833

> <ROCS_ShapeQuery>
x0446_0A_x1080_0A_x0929_0A_x0812_0A_x0719_0A_x1140_0A_x0528_0A_x0310_0A

> <ROCS_TanimotoCombo>
0.475 

> <ROCS_ShapeTanimoto>
0.236 

> <ROCS_ColorTanimoto>
0.238 

> <ROCS_RefTversky>
0.216 

> <ROCS_RefColorTversky>
0.275 

> <ROCS_RefTverskyCombo>
0.492 

> <ROCS_FitTversky>
1.641 

> <ROCS_FitColorTversky>
0.637 

> <ROCS_FitTverskyCombo>
2.278 

> <ROCS_ColorScore>
-9.933

> <ROCS_Overlap>
2556.949

> <ROCS_Rank>
39                  

$$$$
untitled-dbase-622388_2
  -OEChem-02092406493D

 38 41  0     0  0  0  0  0  0999 V2000
    5.8542   13.3877   25.4195 C   0  0  0  0  0  0  0  0  0  0  0  0
    5.5060   12.0433   25.5883 C   0  0  0  0  0  0  0  0  0  0  0  0
   13.0928   14.6013   22.9440 C   0  0  0  0  0  0  0  0  0  0  0  0
   13.0938   15.3687   21.7793 C   0  0  0  0  0  0  0  0  0  0  0  0
    7.0617   13.7374   24.8097 C   0  0  0  0  0  0  0  0  0  0  0  0
    6.3606   11.0313   25.1497 C   0  0  0  0  0  0  0  0  0  0  0  0
   11.8847   14.2441   23.5429 C   0  0  0  0  0  0  0  0  0  0  0  0
   11.8867   15.7790   21.2134 C   0  0  0  0  0  0  0  0  0  0  0  0
    7.9198   12.7305   24.3693 C   0  0  0  0  0  0  0  0  0  0  0  0
    7.5628   11.3880   24.5427 C   0  0  0  0  0  0  0  0  0  0  0  0
   10.6776   14.6545   22.9771 C   0  0  0  0  0  0  0  0  0  0  0  0
   10.6786   15.4219   21.8123 C   0  0  0  0  0  0  0  0  0  0  0  0
   10.2867    9.5911   23.1542 C   0  0  0  0  0  0  0  0  0  0  0  0
    9.3968    8.5978   23.5993 C   0  0  0  0  0  0  0  0  0  0  0  0
    9.6758   10.7859   23.4695 C   0  0  0  0  0  0  0  0  0  0  0  0
    9.2175   12.9820   23.7137 C   0  0  0  0  0  0  0  0  0  0  0  0
    9.5523    7.1342   23.5153 C   0  0  0  0  0  0  0  0  0  0  0  0
    8.9829   17.0844   21.6824 C   0  0  0  0  0  0  0  0  0  0  0  0
    8.2961    9.1034   24.1587 N   0  0  0  0  0  0  0  0  0  0  0  0
   10.0484   12.0822   23.2883 N   0  0  0  0  0  0  0  0  0  0  0  0
    8.4814   10.4367   24.0723 N   0  0  0  0  0  0  0  0  0  0  0  0
    9.4890   14.2954   23.5801 O   0  0  0  0  0  0  0  0  0  0  0  0
    9.5064   15.8298   21.2508 O   0  0  0  0  0  0  0  0  0  0  0  0
   11.7815    9.3480   22.3958 Cl  0  0  0  0  0  0  0  0  0  0  0  0
    5.1795   14.1659   25.7661 H   0  0  0  0  0  0  0  0  0  0  0  0
    4.5637   11.7866   26.0644 H   0  0  0  0  0  0  0  0  0  0  0  0
   14.0329   14.2815   23.3846 H   0  0  0  0  0  0  0  0  0  0  0  0
   14.0342   15.6467   21.3131 H   0  0  0  0  0  0  0  0  0  0  0  0
    7.3061   14.7889   24.6931 H   0  0  0  0  0  0  0  0  0  0  0  0
    6.0713    9.9946   25.2910 H   0  0  0  0  0  0  0  0  0  0  0  0
   11.8908   13.6459   24.4501 H   0  0  0  0  0  0  0  0  0  0  0  0
   11.8946   16.3780   20.3070 H   0  0  0  0  0  0  0  0  0  0  0  0
   10.0574    6.7344   24.4106 H   0  0  0  0  0  0  0  0  0  0  0  0
    8.5809    6.6177   23.4218 H   0  0  0  0  0  0  0  0  0  0  0  0
   10.1438    6.8290   22.6342 H   0  0  0  0  0  0  0  0  0  0  0  0
    8.0468   17.2895   21.1573 H   0  0  0  0  0  0  0  0  0  0  0  0
    9.7097   17.8740   21.4757 H   0  0  0  0  0  0  0  0  0  0  0  0
    8.7927   17.0393   22.7573 H   0  0  0  0  0  0  0  0  0  0  0  0
  1  2  1  0  0  0  0
  1  5  2  0  0  0  0
  2  6  2  0  0  0  0
  3  4  1  0  0  0  0
  3  7  2  0  0  0  0
  4  8  2  0  0  0  0
  5  9  1  0  0  0  0
  6 10  1  0  0  0  0
  7 11  1  0  0  0  0
  8 12  1  0  0  0  0
  9 10  2  0  0  0  0
  9 16  1  0  0  0  0
 10 21  1  0  0  0  0
 11 12  2  0  0  0  0
 11 22  1  0  0  0  0
 12 23  1  0  0  0  0
 13 14  1  0  0  0  0
 13 15  2  0  0  0  0
 13 24  1  0  0  0  0
 14 17  1  0  0  0  0
 14 19  2  0  0  0  0
 15 20  1  0  0  0  0
 15 21  1  0  0  0  0
 16 20  2  0  0  0  0
 16 22  1  0  0  0  0
 18 23  1  0  0  0  0
 19 21  1  0  0  0  0
  1 25  1  0  0  0  0
  2 26  1  0  0  0  0
  3 27  1  0  0  0  0
  4 28  1  0  0  0  0
  5 29  1  0  0  0  0
  6 30  1  0  0  0  0
  7 31  1  0  0  0  0
  8 32  1  0  0  0  0
 17 33  1  0  0  0  0
 17 34  1  0  0  0  0
 17 35  1  0  0  0  0
 18 36  1  0  0  0  0
 18 37  1  0  0  0  0
 18 38  1  0  0  0  0
M  END
> <idnumber>
Z196118744

> <heavy_atoms>
24

> <LogS>
-5.88

> <LogP>
4.518

> <rotating_bonds>
3

> <PSA>
48.65

> <hb_acceptors>
3

> <hb_donors>
0

> <Collection>
Legacy

> <link>
https://www.enaminestore.com/catalog/Z196118744

> <ROCS_ShapeQuery>
x0446_0A_x1080_0A_x0929_0A_x0812_0A_x0719_0A_x1140_0A_x0528_0A_x0310_0A

> <ROCS_TanimotoCombo>
0.474 

> <ROCS_ShapeTanimoto>
0.276 

> <ROCS_ColorTanimoto>
0.199 

> <ROCS_RefTversky>
0.247 

> <ROCS_RefColorTversky>
0.210 

> <ROCS_RefTverskyCombo>
0.457 

> <ROCS_FitTversky>
1.722 

> <ROCS_FitColorTversky>
0.790 

> <ROCS_FitTverskyCombo>
2.512 

> <ROCS_ColorScore>
-7.506

> <ROCS_Overlap>
2919.228

> <ROCS_Rank>
40                  

$$$$
untitled-dbase-1166031_2
  -OEChem-02092406493D

 46 49  0     1  0  0  0  0  0999 V2000
    5.8287   14.4862   23.7802 C   0  0  0  0  0  0  0  0  0  0  0  0
    5.4745   13.1619   23.9309 C   0  0  0  0  0  0  0  0  0  0  0  0
    4.1669   14.4245   22.3503 C   0  0  0  0  0  0  0  0  0  0  0  0
   12.6691   16.3610   22.4649 C   0  0  0  0  0  0  0  0  0  0  0  0
    6.0485   12.1203   24.7939 C   0  0  0  0  0  0  0  0  0  0  0  0
   10.9862   13.5738   22.8133 C   0  0  0  0  0  0  0  0  0  0  0  0
   11.3020   16.5925   21.8711 C   0  0  0  0  0  0  0  0  0  0  0  0
   11.0484   15.3201   21.0640 C   0  0  0  0  0  0  0  0  0  0  0  0
    8.6325    9.3506   23.4780 C   0  0  0  0  0  0  0  0  0  0  0  0
    8.8862   10.4244   22.4076 C   0  0  0  0  0  0  0  0  0  0  0  0
   10.1904   10.9517   24.3413 C   0  0  0  0  0  0  0  0  0  0  0  0
    7.9779   10.7513   25.4821 C   0  0  0  0  0  0  0  0  0  0  0  0
    8.3264   12.5189   23.7367 C   0  0  0  0  0  0  0  0  0  0  0  0
   11.8586   14.2544   21.7801 C   0  0  1  0  0  0  0  0  0  0  0  0
    9.1107    9.9740   24.7993 C   0  0  1  0  0  0  0  0  0  0  0  0
    9.4597   11.6283   23.1803 C   0  0  2  0  0  0  0  0  0  0  0  0
    5.0803   15.2117   22.8739 N   0  0  0  0  0  0  0  0  0  0  0  0
   12.9338   14.9993   22.3765 N   0  0  0  0  0  0  0  0  0  0  0  0
    7.3979   11.7877   24.6200 N   0  0  0  0  0  0  0  0  0  0  0  0
    3.2583   14.8192   21.4190 N   0  0  0  0  0  0  0  0  0  0  0  0
   10.3447   12.4371   22.3531 N   0  0  0  0  0  0  0  0  0  0  0  0
   13.3788   17.2220   22.9614 O   0  0  0  0  0  0  0  0  0  0  0  0
    5.2879   11.6151   25.6183 O   0  0  0  0  0  0  0  0  0  0  0  0
   10.9051   14.0461   23.9412 O   0  0  0  0  0  0  0  0  0  0  0  0
    4.1507   12.7997   22.9025 S   0  0  0  0  0  0  0  0  0  0  0  0
    6.6325   14.9799   24.3108 H   0  0  0  0  0  0  0  0  0  0  0  0
   10.5776   16.7056   22.6836 H   0  0  0  0  0  0  0  0  0  0  0  0
   11.2957   17.4824   21.2370 H   0  0  0  0  0  0  0  0  0  0  0  0
    9.9795   15.0915   21.0047 H   0  0  0  0  0  0  0  0  0  0  0  0
   11.4266   15.4553   20.0431 H   0  0  0  0  0  0  0  0  0  0  0  0
    7.5818    9.0439   23.5106 H   0  0  0  0  0  0  0  0  0  0  0  0
    9.2272    8.4593   23.2451 H   0  0  0  0  0  0  0  0  0  0  0  0
    9.6093   10.0330   21.6810 H   0  0  0  0  0  0  0  0  0  0  0  0
    7.9721   10.6736   21.8579 H   0  0  0  0  0  0  0  0  0  0  0  0
   10.4931   11.6509   25.1281 H   0  0  0  0  0  0  0  0  0  0  0  0
   11.0799   10.4081   23.9983 H   0  0  0  0  0  0  0  0  0  0  0  0
    7.1914   10.0603   25.8056 H   0  0  0  0  0  0  0  0  0  0  0  0
    8.3526   11.2574   26.3801 H   0  0  0  0  0  0  0  0  0  0  0  0
    8.7416   13.3375   24.3385 H   0  0  0  0  0  0  0  0  0  0  0  0
    7.7708   12.9695   22.9072 H   0  0  0  0  0  0  0  0  0  0  0  0
   12.2455   13.4981   21.0797 H   0  0  0  0  0  0  0  0  0  0  0  0
    9.5069    9.2166   25.4830 H   0  0  0  0  0  0  0  0  0  0  0  0
   13.7975   14.5748   22.6999 H   0  0  0  0  0  0  0  0  0  0  0  0
    3.2038   15.7918   21.0980 H   0  0  0  0  0  0  0  0  0  0  0  0
    2.5323   14.1832   21.0717 H   0  0  0  0  0  0  0  0  0  0  0  0
   10.4990   12.1522   21.3886 H   0  0  0  0  0  0  0  0  0  0  0  0
  1  2  2  0  0  0  0
  1 17  1  0  0  0  0
  2  5  1  0  0  0  0
  2 25  1  0  0  0  0
  3 17  2  0  0  0  0
  3 20  1  0  0  0  0
  3 25  1  0  0  0  0
  4  7  1  0  0  0  0
  4 18  1  0  0  0  0
  4 22  2  0  0  0  0
  5 19  1  0  0  0  0
  5 23  2  0  0  0  0
  6 14  1  1  0  0  0
  6 21  1  0  0  0  0
  6 24  2  0  0  0  0
  7  8  1  0  0  0  0
  8 14  1  0  0  0  0
  9 10  1  0  0  0  0
  9 15  1  0  0  0  0
 10 16  1  0  0  0  0
 11 15  1  0  0  0  0
 11 16  1  0  0  0  0
 12 15  1  0  0  0  0
 12 19  1  0  0  0  0
 13 16  1  0  0  0  0
 13 19  1  0  0  0  0
 14 18  1  0  0  0  0
 16 21  1  0  0  0  0
  1 26  1  0  0  0  0
  7 27  1  0  0  0  0
  7 28  1  0  0  0  0
  8 29  1  0  0  0  0
  8 30  1  0  0  0  0
  9 31  1  0  0  0  0
  9 32  1  0  0  0  0
 10 33  1  0  0  0  0
 10 34  1  0  0  0  0
 11 35  1  0  0  0  0
 11 36  1  0  0  0  0
 12 37  1  0  0  0  0
 12 38  1  0  0  0  0
 13 39  1  0  0  0  0
 13 40  1  0  0  0  0
 14 41  1  0  0  0  0
 15 42  1  0  0  0  0
 18 43  1  0  0  0  0
 20 44  1  0  0  0  0
 20 45  1  0  0  0  0
 21 46  1  0  0  0  0
M  END
> <idnumber>
Z8285028994

> <heavy_atoms>
25

> <LogS>
-3.219

> <LogP>
-1.133

> <rotating_bonds>
3

> <PSA>
117.42

> <hb_acceptors>
5

> <hb_donors>
3

> <Collection>
Advanced

> <link>
https://www.enaminestore.com/catalog/Z8285028994

> <ROCS_ShapeQuery>
x0446_0A_x1080_0A_x0929_0A_x0812_0A_x0719_0A_x1140_0A_x0528_0A_x0310_0A

> <ROCS_TanimotoCombo>
0.474 

> <ROCS_ShapeTanimoto>
0.257 

> <ROCS_ColorTanimoto>
0.218 

> <ROCS_RefTversky>
0.233 

> <ROCS_RefColorTversky>
0.262 

> <ROCS_RefTverskyCombo>
0.496 

> <ROCS_FitTversky>
1.630 

> <ROCS_FitColorTversky>
0.561 

> <ROCS_FitTverskyCombo>
2.191 

> <ROCS_ColorScore>
-9.481

> <ROCS_Overlap>
2759.546

> <ROCS_Rank>
41                  

$$$$
untitled-dbase-536364_5
  -OEChem-02092406493D

 38 41  0     0  0  0  0  0  0999 V2000
    5.7796   13.4918   24.9515 C   0  0  0  0  0  0  0  0  0  0  0  0
    5.3974   12.1556   25.1110 C   0  0  0  0  0  0  0  0  0  0  0  0
    7.0598   13.8146   24.4939 C   0  0  0  0  0  0  0  0  0  0  0  0
    6.2902   11.1249   24.8152 C   0  0  0  0  0  0  0  0  0  0  0  0
   12.0090   14.2458   23.8539 C   0  0  0  0  0  0  0  0  0  0  0  0
   13.2828   14.5768   23.4053 C   0  0  0  0  0  0  0  0  0  0  0  0
   10.4250    9.5978   23.3865 C   0  0  0  0  0  0  0  0  0  0  0  0
    7.9563   12.7889   24.1967 C   0  0  0  0  0  0  0  0  0  0  0  0
    7.5647   11.4547   24.3595 C   0  0  0  0  0  0  0  0  0  0  0  0
   10.8949   14.6506   23.1271 C   0  0  0  0  0  0  0  0  0  0  0  0
   13.3878   15.3082   22.2332 C   0  0  0  0  0  0  0  0  0  0  0  0
    9.4740    8.6245   23.7398 C   0  0  0  0  0  0  0  0  0  0  0  0
   11.1068   15.3790   21.9676 C   0  0  0  0  0  0  0  0  0  0  0  0
    9.7920   10.8058   23.5866 C   0  0  0  0  0  0  0  0  0  0  0  0
    9.3307   13.0115   23.7082 C   0  0  0  0  0  0  0  0  0  0  0  0
   14.7392   15.6811   21.7222 C   0  0  0  0  0  0  0  0  0  0  0  0
    9.6362    7.1609   23.7103 C   0  0  0  0  0  0  0  0  0  0  0  0
   12.3289   15.7193   21.5002 N   0  0  0  0  0  0  0  0  0  0  0  0
    8.3158    9.1545   24.1375 N   0  0  0  0  0  0  0  0  0  0  0  0
   10.1995   12.0935   23.4193 N   0  0  0  0  0  0  0  0  0  0  0  0
    8.5257   10.4833   24.0389 N   0  0  0  0  0  0  0  0  0  0  0  0
    9.9389   15.7808   21.2423 N   0  3  0  0  0  0  0  0  0  0  0  0
   10.0873   16.4394   20.1917 O   0  5  0  0  0  0  0  0  0  0  0  0
    8.8189   15.4566   21.6899 O   0  0  0  0  0  0  0  0  0  0  0  0
    9.6332   14.3185   23.5775 O   0  0  0  0  0  0  0  0  0  0  0  0
    5.0749   14.2851   25.1854 H   0  0  0  0  0  0  0  0  0  0  0  0
    4.3987   11.9197   25.4677 H   0  0  0  0  0  0  0  0  0  0  0  0
    7.3297   14.8600   24.3805 H   0  0  0  0  0  0  0  0  0  0  0  0
    5.9723   10.0952   24.9465 H   0  0  0  0  0  0  0  0  0  0  0  0
   11.8921   13.6727   24.7695 H   0  0  0  0  0  0  0  0  0  0  0  0
   14.1600   14.2669   23.9630 H   0  0  0  0  0  0  0  0  0  0  0  0
   11.4358    9.4510   23.0332 H   0  0  0  0  0  0  0  0  0  0  0  0
   15.1205   14.9031   21.0499 H   0  0  0  0  0  0  0  0  0  0  0  0
   14.7089   16.6313   21.1739 H   0  0  0  0  0  0  0  0  0  0  0  0
   15.4535   15.8114   22.5452 H   0  0  0  0  0  0  0  0  0  0  0  0
   10.0219    6.7812   24.6719 H   0  0  0  0  0  0  0  0  0  0  0  0
    8.6842    6.6399   23.5049 H   0  0  0  0  0  0  0  0  0  0  0  0
   10.3355    6.8348   22.9196 H   0  0  0  0  0  0  0  0  0  0  0  0
  1  2  1  0  0  0  0
  1  3  2  0  0  0  0
  2  4  2  0  0  0  0
  3  8  1  0  0  0  0
  4  9  1  0  0  0  0
  5  6  2  0  0  0  0
  5 10  1  0  0  0  0
  6 11  1  0  0  0  0
  7 12  1  0  0  0  0
  7 14  2  0  0  0  0
  8  9  2  0  0  0  0
  8 15  1  0  0  0  0
  9 21  1  0  0  0  0
 10 13  2  0  0  0  0
 10 25  1  0  0  0  0
 11 16  1  0  0  0  0
 11 18  2  0  0  0  0
 12 17  1  0  0  0  0
 12 19  2  0  0  0  0
 13 18  1  0  0  0  0
 13 22  1  0  0  0  0
 14 20  1  0  0  0  0
 14 21  1  0  0  0  0
 15 20  2  0  0  0  0
 15 25  1  0  0  0  0
 19 21  1  0  0  0  0
 22 23  1  0  0  0  0
 22 24  2  0  0  0  0
  1 26  1  0  0  0  0
  2 27  1  0  0  0  0
  3 28  1  0  0  0  0
  4 29  1  0  0  0  0
  5 30  1  0  0  0  0
  6 31  1  0  0  0  0
  7 32  1  0  0  0  0
 16 33  1  0  0  0  0
 16 34  1  0  0  0  0
 16 35  1  0  0  0  0
 17 36  1  0  0  0  0
 17 37  1  0  0  0  0
 17 38  1  0  0  0  0
M  CHG  2  22   1  23  -1
M  END
> <idnumber>
Z94861526

> <heavy_atoms>
25

> <LogS>
-5.49

> <LogP>
2.877

> <rotating_bonds>
3

> <PSA>
95.45

> <hb_acceptors>
5

> <hb_donors>
0

> <Collection>
Legacy

> <link>
https://www.enaminestore.com/catalog/Z94861526

> <ROCS_ShapeQuery>
x0446_0A_x1080_0A_x0929_0A_x0812_0A_x0719_0A_x1140_0A_x0528_0A_x0310_0A

> <ROCS_TanimotoCombo>
0.474 

> <ROCS_ShapeTanimoto>
0.276 

> <ROCS_ColorTanimoto>
0.198 

> <ROCS_RefTversky>
0.249 

> <ROCS_RefColorTversky>
0.218 

> <ROCS_RefTverskyCombo>
0.467 

> <ROCS_FitTversky>
1.672 

> <ROCS_FitColorTversky>
0.684 

> <ROCS_FitTverskyCombo>
2.357 

> <ROCS_ColorScore>
-7.810

> <ROCS_Overlap>
2940.904

> <ROCS_Rank>
42                  

$$$$
untitled-dbase-1169072_140
  -OEChem-02092406493D

 48 52  0     1  0  0  0  0  0999 V2000
   13.1765   12.3227   20.3484 C   0  0  0  0  0  0  0  0  0  0  0  0
   12.5287   12.9946   19.3119 C   0  0  0  0  0  0  0  0  0  0  0  0
   12.6196   12.3109   21.6273 C   0  0  0  0  0  0  0  0  0  0  0  0
   11.3242   13.6549   19.5541 C   0  0  0  0  0  0  0  0  0  0  0  0
    5.3724   15.6394   22.1430 C   0  0  0  0  0  0  0  0  0  0  0  0
    5.3779   13.9653   20.4162 C   0  0  0  0  0  0  0  0  0  0  0  0
    3.9884   15.5760   22.1252 C   0  0  0  0  0  0  0  0  0  0  0  0
    8.3167   13.7875   20.9291 C   0  0  0  0  0  0  0  0  0  0  0  0
    6.0730   14.8155   21.2691 C   0  0  0  0  0  0  0  0  0  0  0  0
   11.4151   12.9712   21.8696 C   0  0  0  0  0  0  0  0  0  0  0  0
   10.7673   13.6432   20.8330 C   0  0  0  0  0  0  0  0  0  0  0  0
    7.5005   14.8441   21.2463 C   0  0  0  0  0  0  0  0  0  0  0  0
    3.9937   13.9767   20.4759 C   0  0  0  0  0  0  0  0  0  0  0  0
   10.8598   12.9352   23.2317 C   0  0  0  0  0  0  0  0  0  0  0  0
    9.0020   10.3241   24.9339 C   0  0  0  0  0  0  0  0  0  0  0  0
    7.2558   11.1974   23.5546 C   0  0  0  0  0  0  0  0  0  0  0  0
    9.5737   10.7866   22.6807 C   0  0  0  0  0  0  0  0  0  0  0  0
    8.4271   10.1866   23.5164 C   0  0  1  0  0  0  0  0  0  0  0  0
    9.2319   11.8280   24.7818 C   0  0  2  0  0  0  0  0  0  0  0  0
    7.8095   12.3002   24.4667 C   0  0  0  0  0  0  0  0  0  0  0  0
    3.2143   13.0776   19.5749 C   0  0  0  0  0  0  0  0  0  0  0  0
    3.2785   14.7629   21.3112 N   0  0  0  0  0  0  0  0  0  0  0  0
    8.2620   15.9406   21.5414 N   0  0  0  0  0  0  0  0  0  0  0  0
    9.5391   15.5965   21.4156 N   0  0  0  0  0  0  0  0  0  0  0  0
    9.5697   14.3053   21.0483 N   0  0  0  0  0  0  0  0  0  0  0  0
   10.0035   11.8953   23.5383 N   0  0  0  0  0  0  0  0  0  0  0  0
   11.1813   13.8383   24.0006 O   0  0  0  0  0  0  0  0  0  0  0  0
    7.0779   12.3843   25.6008 F   0  0  0  0  0  0  0  0  0  0  0  0
    7.7895   13.5093   23.8768 F   0  0  0  0  0  0  0  0  0  0  0  0
   14.1144   11.8085   20.1602 H   0  0  0  0  0  0  0  0  0  0  0  0
   12.9623   13.0033   18.3162 H   0  0  0  0  0  0  0  0  0  0  0  0
   13.1340   11.7831   22.4264 H   0  0  0  0  0  0  0  0  0  0  0  0
   10.8312   14.1745   18.7357 H   0  0  0  0  0  0  0  0  0  0  0  0
    5.8794   16.3152   22.8243 H   0  0  0  0  0  0  0  0  0  0  0  0
    5.8995   13.3113   19.7233 H   0  0  0  0  0  0  0  0  0  0  0  0
    3.3951   16.1976   22.7876 H   0  0  0  0  0  0  0  0  0  0  0  0
    8.1229   12.7625   20.6425 H   0  0  0  0  0  0  0  0  0  0  0  0
    8.2835   10.0663   25.7190 H   0  0  0  0  0  0  0  0  0  0  0  0
    9.9292    9.7601   25.0811 H   0  0  0  0  0  0  0  0  0  0  0  0
    7.0028   11.5673   22.5565 H   0  0  0  0  0  0  0  0  0  0  0  0
    6.3699   10.7364   24.0039 H   0  0  0  0  0  0  0  0  0  0  0  0
   10.4118   10.0912   22.5669 H   0  0  0  0  0  0  0  0  0  0  0  0
    9.2592   11.1554   21.7001 H   0  0  0  0  0  0  0  0  0  0  0  0
    8.1383    9.1778   23.2166 H   0  0  0  0  0  0  0  0  0  0  0  0
    9.7097   12.3369   25.6209 H   0  0  0  0  0  0  0  0  0  0  0  0
    3.0402   12.1099   20.0602 H   0  0  0  0  0  0  0  0  0  0  0  0
    2.2430   13.5183   19.3171 H   0  0  0  0  0  0  0  0  0  0  0  0
    3.7458   12.9037   18.6306 H   0  0  0  0  0  0  0  0  0  0  0  0
  1  2  1  0  0  0  0
  1  3  2  0  0  0  0
  2  4  2  0  0  0  0
  3 10  1  0  0  0  0
  4 11  1  0  0  0  0
  5  7  2  0  0  0  0
  5  9  1  0  0  0  0
  6  9  2  0  0  0  0
  6 13  1  0  0  0  0
  7 22  1  0  0  0  0
  8 12  2  0  0  0  0
  8 25  1  0  0  0  0
  9 12  1  0  0  0  0
 10 11  2  0  0  0  0
 10 14  1  0  0  0  0
 11 25  1  0  0  0  0
 12 23  1  0  0  0  0
 13 21  1  0  0  0  0
 13 22  2  0  0  0  0
 14 26  1  0  0  0  0
 14 27  2  0  0  0  0
 15 18  1  0  0  0  0
 15 19  1  0  0  0  0
 16 18  1  0  0  0  0
 16 20  1  0  0  0  0
 17 18  1  0  0  0  0
 17 26  1  0  0  0  0
 19 20  1  0  0  0  0
 19 26  1  0  0  0  0
 20 28  1  0  0  0  0
 20 29  1  0  0  0  0
 23 24  2  0  0  0  0
 24 25  1  0  0  0  0
  1 30  1  0  0  0  0
  2 31  1  0  0  0  0
  3 32  1  0  0  0  0
  4 33  1  0  0  0  0
  5 34  1  0  0  0  0
  6 35  1  0  0  0  0
  7 36  1  0  0  0  0
  8 37  1  0  0  0  0
 15 38  1  0  0  0  0
 15 39  1  0  0  0  0
 16 40  1  0  0  0  0
 16 41  1  0  0  0  0
 17 42  1  0  0  0  0
 17 43  1  0  0  0  0
 18 44  1  0  0  0  0
 19 45  1  0  0  0  0
 21 46  1  0  0  0  0
 21 47  1  0  0  0  0
 21 48  1  0  0  0  0
M  END
> <idnumber>
Z8416212316

> <heavy_atoms>
29

> <LogS>
-4.626

> <LogP>
2.962

> <rotating_bonds>
3

> <PSA>
63.91

> <hb_acceptors>
4

> <hb_donors>
0

> <Collection>
Advanced

> <link>
https://www.enaminestore.com/catalog/Z8416212316

> <ROCS_ShapeQuery>
x0446_0A_x1080_0A_x0929_0A_x0812_0A_x0719_0A_x1140_0A_x0528_0A_x0310_0A

> <ROCS_TanimotoCombo>
0.474 

> <ROCS_ShapeTanimoto>
0.263 

> <ROCS_ColorTanimoto>
0.211 

> <ROCS_RefTversky>
0.242 

> <ROCS_RefColorTversky>
0.246 

> <ROCS_RefTverskyCombo>
0.489 

> <ROCS_FitTversky>
1.481 

> <ROCS_FitColorTversky>
0.596 

> <ROCS_FitTverskyCombo>
2.077 

> <ROCS_ColorScore>
-8.874

> <ROCS_Overlap>
2867.788

> <ROCS_Rank>
43                  

$$$$
untitled-dbase-917565_3
  -OEChem-02092406493D

 43 46  0     0  0  0  0  0  0999 V2000
    6.2156   13.4609   24.9755 C   0  0  0  0  0  0  0  0  0  0  0  0
    5.9273   12.1768   25.4321 C   0  0  0  0  0  0  0  0  0  0  0  0
    7.2641   13.6670   24.0772 C   0  0  0  0  0  0  0  0  0  0  0  0
    6.6823   11.0929   24.9862 C   0  0  0  0  0  0  0  0  0  0  0  0
    8.0327   12.5825   23.6396 C   0  0  0  0  0  0  0  0  0  0  0  0
    7.7333   11.2991   24.0848 C   0  0  0  0  0  0  0  0  0  0  0  0
    9.5721   14.0485   22.2129 C   0  0  0  0  0  0  0  0  0  0  0  0
   10.6927   15.8704   21.7729 C   0  0  0  0  0  0  0  0  0  0  0  0
    9.1559   12.7154   22.6927 C   0  0  0  0  0  0  0  0  0  0  0  0
    8.5196   10.1574   23.5846 C   0  0  0  0  0  0  0  0  0  0  0  0
   11.8562   16.7864   21.7236 C   0  0  0  0  0  0  0  0  0  0  0  0
   11.9554   14.1742   23.0566 C   0  0  0  0  0  0  0  0  0  0  0  0
   13.1610   15.0160   22.6512 C   0  0  0  0  0  0  0  0  0  0  0  0
   13.6893    9.8406   24.0196 C   0  0  0  0  0  0  0  0  0  0  0  0
   12.1929    9.6643   23.8134 C   0  0  0  0  0  0  0  0  0  0  0  0
   11.8338    9.6322   22.3262 C   0  0  0  0  0  0  0  0  0  0  0  0
   10.3460    9.3962   22.0876 C   0  0  0  0  0  0  0  0  0  0  0  0
    8.7741   14.8603   21.5523 N   0  0  0  0  0  0  0  0  0  0  0  0
    9.4848   16.0163   21.2711 N   0  0  0  0  0  0  0  0  0  0  0  0
    9.8271   11.7034   22.2395 N   0  0  0  0  0  0  0  0  0  0  0  0
   10.7770   14.6434   22.3657 N   0  0  0  0  0  0  0  0  0  0  0  0
    9.5192   10.4448   22.6618 N   0  0  0  0  0  0  0  0  0  0  0  0
    8.2540    9.0292   23.9938 O   0  0  0  0  0  0  0  0  0  0  0  0
   12.8157   16.4064   22.7250 O   0  0  0  0  0  0  0  0  0  0  0  0
    5.6232   14.3038   25.3195 H   0  0  0  0  0  0  0  0  0  0  0  0
    5.1111   12.0194   26.1311 H   0  0  0  0  0  0  0  0  0  0  0  0
    7.4635   14.6800   23.7399 H   0  0  0  0  0  0  0  0  0  0  0  0
    6.4334   10.0988   25.3475 H   0  0  0  0  0  0  0  0  0  0  0  0
   12.3347   16.7593   20.7390 H   0  0  0  0  0  0  0  0  0  0  0  0
   11.5465   17.8148   21.9305 H   0  0  0  0  0  0  0  0  0  0  0  0
   12.1138   13.1171   22.8245 H   0  0  0  0  0  0  0  0  0  0  0  0
   11.7482   14.2898   24.1263 H   0  0  0  0  0  0  0  0  0  0  0  0
   13.9954   14.8332   23.3352 H   0  0  0  0  0  0  0  0  0  0  0  0
   13.5001   14.7786   21.6355 H   0  0  0  0  0  0  0  0  0  0  0  0
   14.0436   10.7642   23.5506 H   0  0  0  0  0  0  0  0  0  0  0  0
   13.9212    9.8913   25.0880 H   0  0  0  0  0  0  0  0  0  0  0  0
   14.2462    9.0015   23.5907 H   0  0  0  0  0  0  0  0  0  0  0  0
   11.8717    8.7328   24.2938 H   0  0  0  0  0  0  0  0  0  0  0  0
   11.6670   10.4857   24.3129 H   0  0  0  0  0  0  0  0  0  0  0  0
   12.1406   10.5735   21.8536 H   0  0  0  0  0  0  0  0  0  0  0  0
   12.3969    8.8273   21.8383 H   0  0  0  0  0  0  0  0  0  0  0  0
   10.0216    8.4417   22.5138 H   0  0  0  0  0  0  0  0  0  0  0  0
   10.1379    9.3777   21.0131 H   0  0  0  0  0  0  0  0  0  0  0  0
  1  2  1  0  0  0  0
  1  3  2  0  0  0  0
  2  4  2  0  0  0  0
  3  5  1  0  0  0  0
  4  6  1  0  0  0  0
  5  6  2  0  0  0  0
  5  9  1  0  0  0  0
  6 10  1  0  0  0  0
  7  9  1  0  0  0  0
  7 18  2  0  0  0  0
  7 21  1  0  0  0  0
  8 11  1  0  0  0  0
  8 19  2  0  0  0  0
  8 21  1  0  0  0  0
  9 20  2  0  0  0  0
 10 22  1  0  0  0  0
 10 23  2  0  0  0  0
 11 24  1  0  0  0  0
 12 13  1  0  0  0  0
 12 21  1  0  0  0  0
 13 24  1  0  0  0  0
 14 15  1  0  0  0  0
 15 16  1  0  0  0  0
 16 17  1  0  0  0  0
 17 22  1  0  0  0  0
 18 19  1  0  0  0  0
 20 22  1  0  0  0  0
  1 25  1  0  0  0  0
  2 26  1  0  0  0  0
  3 27  1  0  0  0  0
  4 28  1  0  0  0  0
 11 29  1  0  0  0  0
 11 30  1  0  0  0  0
 12 31  1  0  0  0  0
 12 32  1  0  0  0  0
 13 33  1  0  0  0  0
 13 34  1  0  0  0  0
 14 35  1  0  0  0  0
 14 36  1  0  0  0  0
 14 37  1  0  0  0  0
 15 38  1  0  0  0  0
 15 39  1  0  0  0  0
 16 40  1  0  0  0  0
 16 41  1  0  0  0  0
 17 42  1  0  0  0  0
 17 43  1  0  0  0  0
M  END
> <idnumber>
Z2523773327

> <heavy_atoms>
24

> <LogS>
-3.535

> <LogP>
0.545

> <rotating_bonds>
4

> <PSA>
72.61

> <hb_acceptors>
5

> <hb_donors>
0

> <Collection>
Legacy

> <link>
https://www.enaminestore.com/catalog/Z2523773327

> <ROCS_ShapeQuery>
x0446_0A_x1080_0A_x0929_0A_x0812_0A_x0719_0A_x1140_0A_x0528_0A_x0310_0A

> <ROCS_TanimotoCombo>
0.474 

> <ROCS_ShapeTanimoto>
0.272 

> <ROCS_ColorTanimoto>
0.202 

> <ROCS_RefTversky>
0.244 

> <ROCS_RefColorTversky>
0.223 

> <ROCS_RefTverskyCombo>
0.467 

> <ROCS_FitTversky>
1.717 

> <ROCS_FitColorTversky>
0.684 

> <ROCS_FitTverskyCombo>
2.401 

> <ROCS_ColorScore>
-7.979

> <ROCS_Overlap>
2886.963

> <ROCS_Rank>
44                  

$$$$
untitled-dbase-1118339_40
  -OEChem-02092406493D

 44 48  0     0  0  0  0  0  0999 V2000
   12.8474   16.4257   21.8133 C   0  0  0  0  0  0  0  0  0  0  0  0
   13.2378   15.1754   22.3085 C   0  0  0  0  0  0  0  0  0  0  0  0
   11.5190   16.6784   21.4416 C   0  0  0  0  0  0  0  0  0  0  0  0
   12.3208   14.1286   22.4526 C   0  0  0  0  0  0  0  0  0  0  0  0
    8.1200   12.0410   24.7017 C   0  0  0  0  0  0  0  0  0  0  0  0
   10.5872   15.6398   21.5797 C   0  0  0  0  0  0  0  0  0  0  0  0
   11.0153   14.4166   22.0741 C   0  0  0  0  0  0  0  0  0  0  0  0
    7.4250   10.8812   24.2771 C   0  0  0  0  0  0  0  0  0  0  0  0
    9.4264   11.8222   24.3277 C   0  0  0  0  0  0  0  0  0  0  0  0
    8.9174   14.3527   21.6389 C   0  0  0  0  0  0  0  0  0  0  0  0
   12.7179   12.8113   22.9722 C   0  0  0  0  0  0  0  0  0  0  0  0
    7.4647   13.1929   25.3710 C   0  0  0  0  0  0  0  0  0  0  0  0
    5.9715   10.6651   24.4942 C   0  0  0  0  0  0  0  0  0  0  0  0
   10.6637   12.6375   24.4678 C   0  0  0  0  0  0  0  0  0  0  0  0
    6.0678   12.8047   25.8912 C   0  0  0  0  0  0  0  0  0  0  0  0
    5.2691   11.9868   24.8590 C   0  0  0  0  0  0  0  0  0  0  0  0
   10.5950    9.9552   23.1611 C   0  0  0  0  0  0  0  0  0  0  0  0
   11.8749   10.5981   23.6841 C   0  0  0  0  0  0  0  0  0  0  0  0
    9.2421   15.5826   21.3059 N   0  0  0  0  0  0  0  0  0  0  0  0
    8.2220    9.9865   23.6867 N   0  0  0  0  0  0  0  0  0  0  0  0
    9.4263   10.5843   23.7390 N   0  0  0  0  0  0  0  0  0  0  0  0
   11.7664   12.0623   23.6737 N   0  0  0  0  0  0  0  0  0  0  0  0
    7.7087   13.7485   21.5744 N   0  0  0  0  0  0  0  0  0  0  0  0
   13.8781   12.4659   22.7526 O   0  0  0  0  0  0  0  0  0  0  0  0
    9.9356   13.5816   22.1133 O   0  0  0  0  0  0  0  0  0  0  0  0
   13.5875   17.2162   21.7149 H   0  0  0  0  0  0  0  0  0  0  0  0
   14.2795   15.0239   22.5847 H   0  0  0  0  0  0  0  0  0  0  0  0
   11.2274   17.6514   21.0596 H   0  0  0  0  0  0  0  0  0  0  0  0
    8.0781   13.5579   26.2023 H   0  0  0  0  0  0  0  0  0  0  0  0
    7.3673   14.0122   24.6486 H   0  0  0  0  0  0  0  0  0  0  0  0
    5.5046   10.2357   23.6011 H   0  0  0  0  0  0  0  0  0  0  0  0
    5.8395    9.9478   25.3134 H   0  0  0  0  0  0  0  0  0  0  0  0
   10.4644   13.6694   24.1654 H   0  0  0  0  0  0  0  0  0  0  0  0
   10.9905   12.6455   25.5138 H   0  0  0  0  0  0  0  0  0  0  0  0
    6.1722   12.2116   26.8090 H   0  0  0  0  0  0  0  0  0  0  0  0
    5.5141   13.7121   26.1579 H   0  0  0  0  0  0  0  0  0  0  0  0
    5.1372   12.5920   23.9527 H   0  0  0  0  0  0  0  0  0  0  0  0
    4.2674   11.7712   25.2474 H   0  0  0  0  0  0  0  0  0  0  0  0
   10.5123   10.0706   22.0749 H   0  0  0  0  0  0  0  0  0  0  0  0
   10.5680    8.8900   23.4121 H   0  0  0  0  0  0  0  0  0  0  0  0
   12.0564   10.3010   24.7246 H   0  0  0  0  0  0  0  0  0  0  0  0
   12.7328   10.2615   23.0934 H   0  0  0  0  0  0  0  0  0  0  0  0
    6.8623   14.2524   21.2762 H   0  0  0  0  0  0  0  0  0  0  0  0
    7.5615   12.7864   21.9093 H   0  0  0  0  0  0  0  0  0  0  0  0
  1  2  1  0  0  0  0
  1  3  2  0  0  0  0
  2  4  2  0  0  0  0
  3  6  1  0  0  0  0
  4  7  1  0  0  0  0
  4 11  1  0  0  0  0
  5  8  1  0  0  0  0
  5  9  2  0  0  0  0
  5 12  1  0  0  0  0
  6  7  2  0  0  0  0
  6 19  1  0  0  0  0
  7 25  1  0  0  0  0
  8 13  1  0  0  0  0
  8 20  2  0  0  0  0
  9 14  1  0  0  0  0
  9 21  1  0  0  0  0
 10 19  2  0  0  0  0
 10 23  1  0  0  0  0
 10 25  1  0  0  0  0
 11 22  1  0  0  0  0
 11 24  2  0  0  0  0
 12 15  1  0  0  0  0
 13 16  1  0  0  0  0
 14 22  1  0  0  0  0
 15 16  1  0  0  0  0
 17 18  1  0  0  0  0
 17 21  1  0  0  0  0
 18 22  1  0  0  0  0
 20 21  1  0  0  0  0
  1 26  1  0  0  0  0
  2 27  1  0  0  0  0
  3 28  1  0  0  0  0
 12 29  1  0  0  0  0
 12 30  1  0  0  0  0
 13 31  1  0  0  0  0
 13 32  1  0  0  0  0
 14 33  1  0  0  0  0
 14 34  1  0  0  0  0
 15 35  1  0  0  0  0
 15 36  1  0  0  0  0
 16 37  1  0  0  0  0
 16 38  1  0  0  0  0
 17 39  1  0  0  0  0
 17 40  1  0  0  0  0
 18 41  1  0  0  0  0
 18 42  1  0  0  0  0
 23 43  1  0  0  0  0
 23 44  1  0  0  0  0
M  END
> <idnumber>
Z5259439744

> <heavy_atoms>
25

> <LogS>
-3.828

> <LogP>
1.538

> <rotating_bonds>
1

> <PSA>
90.18

> <hb_acceptors>
4

> <hb_donors>
1

> <Collection>
Advanced

> <link>
https://www.enaminestore.com/catalog/Z5259439744

> <ROCS_ShapeQuery>
x0446_0A_x1080_0A_x0929_0A_x0812_0A_x0719_0A_x1140_0A_x0528_0A_x0310_0A

> <ROCS_TanimotoCombo>
0.474 

> <ROCS_ShapeTanimoto>
0.276 

> <ROCS_ColorTanimoto>
0.198 

> <ROCS_RefTversky>
0.248 

> <ROCS_RefColorTversky>
0.218 

> <ROCS_RefTverskyCombo>
0.466 

> <ROCS_FitTversky>
1.680 

> <ROCS_FitColorTversky>
0.683 

> <ROCS_FitTverskyCombo>
2.363 

> <ROCS_ColorScore>
-7.809

> <ROCS_Overlap>
2934.339

> <ROCS_Rank>
45                  

$$$$
untitled-dbase-329176_39
  -OEChem-02092406493D

 38 41  0     0  0  0  0  0  0999 V2000
    5.6759   12.9129   24.7006 C   0  0  0  0  0  0  0  0  0  0  0  0
    5.4946   11.5438   24.8609 C   0  0  0  0  0  0  0  0  0  0  0  0
   11.9498    7.7142   22.9301 C   0  0  0  0  0  0  0  0  0  0  0  0
    6.9280   13.4021   24.3415 C   0  0  0  0  0  0  0  0  0  0  0  0
   10.8823    8.5856   23.1154 C   0  0  0  0  0  0  0  0  0  0  0  0
    6.5649   10.6668   24.6617 C   0  0  0  0  0  0  0  0  0  0  0  0
   12.3958   15.6332   21.7150 C   0  0  0  0  0  0  0  0  0  0  0  0
   13.4464   15.2996   22.5697 C   0  0  0  0  0  0  0  0  0  0  0  0
   11.8777   14.2852   24.1018 C   0  0  0  0  0  0  0  0  0  0  0  0
   13.2243    8.1816   23.2077 C   0  0  0  0  0  0  0  0  0  0  0  0
   12.4302   10.2500   23.8156 C   0  0  0  0  0  0  0  0  0  0  0  0
    7.9993   12.5137   24.1430 C   0  0  0  0  0  0  0  0  0  0  0  0
   11.1185    9.8795   23.5663 C   0  0  0  0  0  0  0  0  0  0  0  0
    7.8285   11.1288   24.3018 C   0  0  0  0  0  0  0  0  0  0  0  0
   11.0862   15.2929   22.0537 C   0  0  0  0  0  0  0  0  0  0  0  0
   10.8271   14.6189   23.2471 C   0  0  0  0  0  0  0  0  0  0  0  0
   13.1873   14.6255   23.7631 C   0  0  0  0  0  0  0  0  0  0  0  0
    9.2755   12.9374   23.7830 C   0  0  0  0  0  0  0  0  0  0  0  0
   10.0343   10.8051   23.7674 C   0  0  0  0  0  0  0  0  0  0  0  0
   13.4930    9.4315   23.6472 N   0  0  0  0  0  0  0  0  0  0  0  0
    8.8460   10.2702   24.1142 N   0  0  0  0  0  0  0  0  0  0  0  0
   10.3159   12.1056   23.5876 N   0  0  0  0  0  0  0  0  0  0  0  0
   10.0277   15.6400   21.1697 N   0  3  0  0  0  0  0  0  0  0  0  0
   10.3002   16.2461   20.1065 O   0  5  0  0  0  0  0  0  0  0  0  0
    8.8530   15.3301   21.4798 O   0  0  0  0  0  0  0  0  0  0  0  0
    9.5401   14.2705   23.6040 O   0  0  0  0  0  0  0  0  0  0  0  0
   14.1963   14.3042   24.5836 F   0  0  0  0  0  0  0  0  0  0  0  0
    4.8458   13.5954   24.8548 H   0  0  0  0  0  0  0  0  0  0  0  0
    4.5202   11.1539   25.1415 H   0  0  0  0  0  0  0  0  0  0  0  0
   11.7901    6.7008   22.5803 H   0  0  0  0  0  0  0  0  0  0  0  0
    7.0540   14.4748   24.2193 H   0  0  0  0  0  0  0  0  0  0  0  0
    9.8724    8.2429   22.9045 H   0  0  0  0  0  0  0  0  0  0  0  0
    6.3959    9.5996   24.7946 H   0  0  0  0  0  0  0  0  0  0  0  0
   12.6120   16.1590   20.7884 H   0  0  0  0  0  0  0  0  0  0  0  0
   14.4661   15.5641   22.3065 H   0  0  0  0  0  0  0  0  0  0  0  0
   11.6839   13.7595   25.0328 H   0  0  0  0  0  0  0  0  0  0  0  0
   14.0909    7.5410   23.0789 H   0  0  0  0  0  0  0  0  0  0  0  0
   12.6816   11.2454   24.1704 H   0  0  0  0  0  0  0  0  0  0  0  0
  1  2  1  0  0  0  0
  1  4  2  0  0  0  0
  2  6  2  0  0  0  0
  3  5  2  0  0  0  0
  3 10  1  0  0  0  0
  4 12  1  0  0  0  0
  5 13  1  0  0  0  0
  6 14  1  0  0  0  0
  7  8  2  0  0  0  0
  7 15  1  0  0  0  0
  8 17  1  0  0  0  0
  9 16  1  0  0  0  0
  9 17  2  0  0  0  0
 10 20  2  0  0  0  0
 11 13  2  0  0  0  0
 11 20  1  0  0  0  0
 12 14  1  0  0  0  0
 12 18  2  0  0  0  0
 13 19  1  0  0  0  0
 14 21  2  0  0  0  0
 15 16  2  0  0  0  0
 15 23  1  0  0  0  0
 16 26  1  0  0  0  0
 17 27  1  0  0  0  0
 18 22  1  0  0  0  0
 18 26  1  0  0  0  0
 19 21  1  0  0  0  0
 19 22  2  0  0  0  0
 23 24  1  0  0  0  0
 23 25  2  0  0  0  0
  1 28  1  0  0  0  0
  2 29  1  0  0  0  0
  3 30  1  0  0  0  0
  4 31  1  0  0  0  0
  5 32  1  0  0  0  0
  6 33  1  0  0  0  0
  7 34  1  0  0  0  0
  8 35  1  0  0  0  0
  9 36  1  0  0  0  0
 10 37  1  0  0  0  0
 11 38  1  0  0  0  0
M  CHG  2  23   1  24  -1
M  END
> <idnumber>
Z31266435

> <heavy_atoms>
27

> <LogS>
-6.45

> <LogP>
3.488

> <rotating_bonds>
4

> <PSA>
91.04

> <hb_acceptors>
5

> <hb_donors>
0

> <Collection>
Legacy

> <link>
https://www.enaminestore.com/catalog/Z31266435

> <ROCS_ShapeQuery>
x0446_0A_x1080_0A_x0929_0A_x0812_0A_x0719_0A_x1140_0A_x0528_0A_x0310_0A

> <ROCS_TanimotoCombo>
0.474 

> <ROCS_ShapeTanimoto>
0.265 

> <ROCS_ColorTanimoto>
0.208 

> <ROCS_RefTversky>
0.242 

> <ROCS_RefColorTversky>
0.227 

> <ROCS_RefTverskyCombo>
0.470 

> <ROCS_FitTversky>
1.558 

> <ROCS_FitColorTversky>
0.715 

> <ROCS_FitTverskyCombo>
2.273 

> <ROCS_ColorScore>
-8.145

> <ROCS_Overlap>
2866.672

> <ROCS_Rank>
46                  

$$$$
untitled-dbase-927412_131
  -OEChem-02092406493D

 41 43  0     1  0  0  0  0  0999 V2000
    9.3546   10.5577   23.5250 C   0  0  0  0  0  0  0  0  0  0  0  0
    9.2275   11.9059   23.7738 C   0  0  0  0  0  0  0  0  0  0  0  0
    7.4914   10.7639   24.5494 C   0  0  0  0  0  0  0  0  0  0  0  0
   10.1466   13.0181   23.4196 C   0  0  0  0  0  0  0  0  0  0  0  0
    6.2007   10.5599   25.2568 C   0  0  0  0  0  0  0  0  0  0  0  0
   13.6693   15.0683   21.6644 C   0  0  0  0  0  0  0  0  0  0  0  0
   13.1596   16.4493   22.0621 C   0  0  0  0  0  0  0  0  0  0  0  0
   12.7026   13.9707   22.0976 C   0  0  0  0  0  0  0  0  0  0  0  0
   11.7601   16.7016   21.5159 C   0  0  0  0  0  0  0  0  0  0  0  0
    7.3785   13.2162   24.8851 C   0  0  0  0  0  0  0  0  0  0  0  0
    6.2745   12.8601   25.8732 C   0  0  0  0  0  0  0  0  0  0  0  0
   11.2871   14.2113   21.5658 C   0  0  2  0  0  0  0  0  0  0  0  0
   10.7745   15.6095   21.9353 C   0  0  2  0  0  0  0  0  0  0  0  0
    8.3635   15.4402   21.9754 C   0  0  0  0  0  0  0  0  0  0  0  0
    8.2761    9.8542   24.0092 N   0  0  0  0  0  0  0  0  0  0  0  0
    8.0403   12.0138   24.4256 N   0  0  0  0  0  0  0  0  0  0  0  0
   10.3957   13.1886   22.0670 N   0  0  0  0  0  0  0  0  0  0  0  0
   10.6408   13.6967   24.3161 O   0  0  0  0  0  0  0  0  0  0  0  0
    5.4791   11.8002   25.3276 O   0  0  0  0  0  0  0  0  0  0  0  0
    9.5327   15.8375   21.2703 O   0  0  0  0  0  0  0  0  0  0  0  0
    8.0665   14.1649   21.6275 F   0  0  0  0  0  0  0  0  0  0  0  0
    7.3304   16.2164   21.5696 F   0  0  0  0  0  0  0  0  0  0  0  0
   10.1661   10.0526   23.0205 H   0  0  0  0  0  0  0  0  0  0  0  0
    5.5772    9.8409   24.7174 H   0  0  0  0  0  0  0  0  0  0  0  0
    6.3673   10.1816   26.2709 H   0  0  0  0  0  0  0  0  0  0  0  0
   13.8048   15.0275   20.5766 H   0  0  0  0  0  0  0  0  0  0  0  0
   14.6526   14.8939   22.1157 H   0  0  0  0  0  0  0  0  0  0  0  0
   13.1473   16.5350   23.1555 H   0  0  0  0  0  0  0  0  0  0  0  0
   13.8459   17.2175   21.6887 H   0  0  0  0  0  0  0  0  0  0  0  0
   13.0760   13.0020   21.7433 H   0  0  0  0  0  0  0  0  0  0  0  0
   12.6855   13.9254   23.1946 H   0  0  0  0  0  0  0  0  0  0  0  0
   11.3951   17.6788   21.8555 H   0  0  0  0  0  0  0  0  0  0  0  0
   11.7946   16.7649   20.4200 H   0  0  0  0  0  0  0  0  0  0  0  0
    6.9571   13.6908   23.9919 H   0  0  0  0  0  0  0  0  0  0  0  0
    8.1176   13.8812   25.3410 H   0  0  0  0  0  0  0  0  0  0  0  0
    6.6803   12.5507   26.8441 H   0  0  0  0  0  0  0  0  0  0  0  0
    5.6252   13.7250   26.0407 H   0  0  0  0  0  0  0  0  0  0  0  0
   11.2791   14.0981   20.4776 H   0  0  0  0  0  0  0  0  0  0  0  0
   10.5973   15.6769   23.0137 H   0  0  0  0  0  0  0  0  0  0  0  0
    8.4928   15.5085   23.0600 H   0  0  0  0  0  0  0  0  0  0  0  0
    9.9996   12.5478   21.3871 H   0  0  0  0  0  0  0  0  0  0  0  0
  1  2  2  0  0  0  0
  1 15  1  0  0  0  0
  2  4  1  0  0  0  0
  2 16  1  0  0  0  0
  3  5  1  0  0  0  0
  3 15  2  0  0  0  0
  3 16  1  0  0  0  0
  4 17  1  0  0  0  0
  4 18  2  0  0  0  0
  5 19  1  0  0  0  0
  6  7  1  0  0  0  0
  6  8  1  0  0  0  0
  7  9  1  0  0  0  0
  8 12  1  0  0  0  0
  9 13  1  0  0  0  0
 10 11  1  0  0  0  0
 10 16  1  0  0  0  0
 11 19  1  0  0  0  0
 12 13  1  0  0  0  0
 12 17  1  1  0  0  0
 13 20  1  6  0  0  0
 14 20  1  0  0  0  0
 14 21  1  0  0  0  0
 14 22  1  0  0  0  0
  1 23  1  0  0  0  0
  5 24  1  0  0  0  0
  5 25  1  0  0  0  0
  6 26  1  0  0  0  0
  6 27  1  0  0  0  0
  7 28  1  0  0  0  0
  7 29  1  0  0  0  0
  8 30  1  0  0  0  0
  8 31  1  0  0  0  0
  9 32  1  0  0  0  0
  9 33  1  0  0  0  0
 10 34  1  0  0  0  0
 10 35  1  0  0  0  0
 11 36  1  0  0  0  0
 11 37  1  0  0  0  0
 12 38  1  0  0  0  0
 13 39  1  0  0  0  0
 14 40  1  0  0  0  0
 17 41  1  0  0  0  0
M  END
> <idnumber>
Z2638598701

> <heavy_atoms>
22

> <LogS>
-1.961

> <LogP>
0.952

> <rotating_bonds>
4

> <PSA>
65.38

> <hb_acceptors>
4

> <hb_donors>
1

> <Collection>
HTS

> <link>
https://www.enaminestore.com/catalog/Z2638598701

> <ROCS_ShapeQuery>
x0446_0A_x1080_0A_x0929_0A_x0812_0A_x0719_0A_x1140_0A_x0528_0A_x0310_0A

> <ROCS_TanimotoCombo>
0.474 

> <ROCS_ShapeTanimoto>
0.256 

> <ROCS_ColorTanimoto>
0.217 

> <ROCS_RefTversky>
0.231 

> <ROCS_RefColorTversky>
0.231 

> <ROCS_RefTverskyCombo>
0.462 

> <ROCS_FitTversky>
1.745 

> <ROCS_FitColorTversky>
0.791 

> <ROCS_FitTverskyCombo>
2.536 

> <ROCS_ColorScore>
-8.250

> <ROCS_Overlap>
2730.034

> <ROCS_Rank>
47                  

$$$$
untitled-dbase-325057_35
  -OEChem-02092406493D

 36 39  0     0  0  0  0  0  0999 V2000
    5.7952   13.1478   25.1175 C   0  0  0  0  0  0  0  0  0  0  0  0
    5.4697   11.8004   25.2266 C   0  0  0  0  0  0  0  0  0  0  0  0
   13.4812   14.7717   22.1331 C   0  0  0  0  0  0  0  0  0  0  0  0
   13.2891   14.0521   23.3125 C   0  0  0  0  0  0  0  0  0  0  0  0
   11.5881    7.6193   22.3682 C   0  0  0  0  0  0  0  0  0  0  0  0
    7.0445   13.5146   24.6270 C   0  0  0  0  0  0  0  0  0  0  0  0
    6.3934   10.8230   24.8450 C   0  0  0  0  0  0  0  0  0  0  0  0
   12.3829   15.2812   21.4403 C   0  0  0  0  0  0  0  0  0  0  0  0
   11.9989   13.8418   23.7990 C   0  0  0  0  0  0  0  0  0  0  0  0
   10.3903    8.3444   22.6321 C   0  0  0  0  0  0  0  0  0  0  0  0
   12.7142    8.3509   22.6749 C   0  0  0  0  0  0  0  0  0  0  0  0
    7.9678   12.5258   24.2454 C   0  0  0  0  0  0  0  0  0  0  0  0
    7.6507   11.1617   24.3507 C   0  0  0  0  0  0  0  0  0  0  0  0
   11.0927   15.0710   21.9268 C   0  0  0  0  0  0  0  0  0  0  0  0
   10.9006   14.3513   23.1061 C   0  0  0  0  0  0  0  0  0  0  0  0
   10.6467    9.6028   23.1309 C   0  0  0  0  0  0  0  0  0  0  0  0
    9.2328   12.8250   23.7473 C   0  0  0  0  0  0  0  0  0  0  0  0
    9.7196   10.6263   23.5207 C   0  0  0  0  0  0  0  0  0  0  0  0
    8.5261   10.2077   23.9883 N   0  0  0  0  0  0  0  0  0  0  0  0
   10.1331   11.8955   23.3757 N   0  0  0  0  0  0  0  0  0  0  0  0
    9.9846   15.5976   21.2078 N   0  3  0  0  0  0  0  0  0  0  0  0
   10.1971   16.2395   20.1519 O   0  5  0  0  0  0  0  0  0  0  0  0
    8.8277   15.4049   21.6511 O   0  0  0  0  0  0  0  0  0  0  0  0
    9.6338   14.1284   23.6068 O   0  0  0  0  0  0  0  0  0  0  0  0
   12.3256    9.9055   23.2787 S   0  0  0  0  0  0  0  0  0  0  0  0
    5.0788   13.9084   25.4127 H   0  0  0  0  0  0  0  0  0  0  0  0
    4.4974   11.5060   25.6108 H   0  0  0  0  0  0  0  0  0  0  0  0
   14.4858   14.9352   21.7541 H   0  0  0  0  0  0  0  0  0  0  0  0
   14.1442   13.6555   23.8521 H   0  0  0  0  0  0  0  0  0  0  0  0
   11.6224    6.6121   21.9740 H   0  0  0  0  0  0  0  0  0  0  0  0
    7.2850   14.5720   24.5489 H   0  0  0  0  0  0  0  0  0  0  0  0
    6.1148    9.7752   24.9403 H   0  0  0  0  0  0  0  0  0  0  0  0
   12.5477   15.8404   20.5224 H   0  0  0  0  0  0  0  0  0  0  0  0
   11.8565   13.2803   24.7187 H   0  0  0  0  0  0  0  0  0  0  0  0
    9.3941    7.9546   22.4631 H   0  0  0  0  0  0  0  0  0  0  0  0
   13.7465    8.0467   22.5739 H   0  0  0  0  0  0  0  0  0  0  0  0
  1  2  1  0  0  0  0
  1  6  2  0  0  0  0
  2  7  2  0  0  0  0
  3  4  1  0  0  0  0
  3  8  2  0  0  0  0
  4  9  2  0  0  0  0
  5 10  1  0  0  0  0
  5 11  2  0  0  0  0
  6 12  1  0  0  0  0
  7 13  1  0  0  0  0
  8 14  1  0  0  0  0
  9 15  1  0  0  0  0
 10 16  2  0  0  0  0
 11 25  1  0  0  0  0
 12 13  1  0  0  0  0
 12 17  2  0  0  0  0
 13 19  2  0  0  0  0
 14 15  2  0  0  0  0
 14 21  1  0  0  0  0
 15 24  1  0  0  0  0
 16 18  1  0  0  0  0
 16 25  1  0  0  0  0
 17 20  1  0  0  0  0
 17 24  1  0  0  0  0
 18 19  1  0  0  0  0
 18 20  2  0  0  0  0
 21 22  1  0  0  0  0
 21 23  2  0  0  0  0
  1 26  1  0  0  0  0
  2 27  1  0  0  0  0
  3 28  1  0  0  0  0
  4 29  1  0  0  0  0
  5 30  1  0  0  0  0
  6 31  1  0  0  0  0
  7 32  1  0  0  0  0
  8 33  1  0  0  0  0
  9 34  1  0  0  0  0
 10 35  1  0  0  0  0
 11 36  1  0  0  0  0
M  CHG  2  21   1  22  -1
M  END
> <idnumber>
Z31209614

> <heavy_atoms>
25

> <LogS>
-6.953

> <LogP>
4.632

> <rotating_bonds>
4

> <PSA>
78.15

> <hb_acceptors>
4

> <hb_donors>
0

> <Collection>
Legacy

> <link>
https://www.enaminestore.com/catalog/Z31209614

> <ROCS_ShapeQuery>
x0446_0A_x1080_0A_x0929_0A_x0812_0A_x0719_0A_x1140_0A_x0528_0A_x0310_0A

> <ROCS_TanimotoCombo>
0.474 

> <ROCS_ShapeTanimoto>
0.275 

> <ROCS_ColorTanimoto>
0.199 

> <ROCS_RefTversky>
0.247 

> <ROCS_RefColorTversky>
0.214 

> <ROCS_RefTverskyCombo>
0.461 

> <ROCS_FitTversky>
1.687 

> <ROCS_FitColorTversky>
0.733 

> <ROCS_FitTverskyCombo>
2.420 

> <ROCS_ColorScore>
-7.662

> <ROCS_Overlap>
2922.923

> <ROCS_Rank>
48                  

$$$$
untitled-dbase-324159_88
  -OEChem-02092406493D

 54 58  0     0  0  0  0  0  0999 V2000
   13.0729   14.4439   22.0600 C   0  0  0  0  0  0  0  0  0  0  0  0
   12.6087   15.0619   20.9025 C   0  0  0  0  0  0  0  0  0  0  0  0
   10.7493   15.9818   19.5995 C   0  0  0  0  0  0  0  0  0  0  0  0
   12.1770   14.1218   23.0719 C   0  0  0  0  0  0  0  0  0  0  0  0
    9.3956   16.2631   19.4834 C   0  0  0  0  0  0  0  0  0  0  0  0
   11.2436   15.3601   20.7541 C   0  0  0  0  0  0  0  0  0  0  0  0
    8.0291   12.6273   24.1632 C   0  0  0  0  0  0  0  0  0  0  0  0
    6.9547   13.5092   24.5010 C   0  0  0  0  0  0  0  0  0  0  0  0
   10.3283   15.0361   21.7775 C   0  0  0  0  0  0  0  0  0  0  0  0
   10.8198   14.4183   22.9242 C   0  0  0  0  0  0  0  0  0  0  0  0
    8.5776   15.9087   20.5370 C   0  0  0  0  0  0  0  0  0  0  0  0
    5.7582   12.8452   24.6636 C   0  0  0  0  0  0  0  0  0  0  0  0
    9.3882   12.8356   23.9079 C   0  0  0  0  0  0  0  0  0  0  0  0
    7.5846   11.3138   24.0852 C   0  0  0  0  0  0  0  0  0  0  0  0
    9.6232   10.5712   23.5659 C   0  0  0  0  0  0  0  0  0  0  0  0
   12.8030    8.8988   22.5708 C   0  0  0  0  0  0  0  0  0  0  0  0
   12.3757    9.8496   24.7416 C   0  0  0  0  0  0  0  0  0  0  0  0
   14.2655    9.3122   22.7091 C   0  0  0  0  0  0  0  0  0  0  0  0
   13.8480   10.2415   24.8281 C   0  0  0  0  0  0  0  0  0  0  0  0
    7.1009   14.9784   24.6612 C   0  0  0  0  0  0  0  0  0  0  0  0
    7.1147   16.1920   20.4555 C   0  0  0  0  0  0  0  0  0  0  0  0
    4.4292   13.3964   25.0117 C   0  0  0  0  0  0  0  0  0  0  0  0
   10.5441    9.4348   23.2272 C   0  0  0  0  0  0  0  0  0  0  0  0
    9.0141   15.3078   21.6676 N   0  0  0  0  0  0  0  0  0  0  0  0
   10.1908   11.7925   23.6063 N   0  0  0  0  0  0  0  0  0  0  0  0
    8.3394   10.2377   23.7890 N   0  0  0  0  0  0  0  0  0  0  0  0
   11.9499    9.8193   23.3355 N   0  0  0  0  0  0  0  0  0  0  0  0
   14.6511    9.3246   24.0840 O   0  0  0  0  0  0  0  0  0  0  0  0
    9.9624   14.0827   23.9508 O   0  0  0  0  0  0  0  0  0  0  0  0
    5.9188   11.1611   24.4108 S   0  0  0  0  0  0  0  0  0  0  0  0
   14.1285   14.2152   22.1711 H   0  0  0  0  0  0  0  0  0  0  0  0
   13.3185   15.3099   20.1163 H   0  0  0  0  0  0  0  0  0  0  0  0
   11.4169   16.2499   18.7838 H   0  0  0  0  0  0  0  0  0  0  0  0
   12.5378   13.6392   23.9763 H   0  0  0  0  0  0  0  0  0  0  0  0
    9.0055   16.7443   18.5935 H   0  0  0  0  0  0  0  0  0  0  0  0
   12.5264    8.9166   21.5104 H   0  0  0  0  0  0  0  0  0  0  0  0
   12.6784    7.8717   22.9379 H   0  0  0  0  0  0  0  0  0  0  0  0
   12.2326    8.8641   25.2037 H   0  0  0  0  0  0  0  0  0  0  0  0
   11.7807   10.5785   25.3035 H   0  0  0  0  0  0  0  0  0  0  0  0
   14.9060    8.5921   22.1897 H   0  0  0  0  0  0  0  0  0  0  0  0
   14.4497   10.2992   22.2680 H   0  0  0  0  0  0  0  0  0  0  0  0
   14.0189   11.2604   24.4592 H   0  0  0  0  0  0  0  0  0  0  0  0
   14.1826   10.2068   25.8698 H   0  0  0  0  0  0  0  0  0  0  0  0
    6.9315   15.4920   23.7044 H   0  0  0  0  0  0  0  0  0  0  0  0
    6.3868   15.3785   25.3961 H   0  0  0  0  0  0  0  0  0  0  0  0
    8.1045   15.2482   25.0221 H   0  0  0  0  0  0  0  0  0  0  0  0
    6.5867   15.3431   20.0049 H   0  0  0  0  0  0  0  0  0  0  0  0
    6.6899   16.3787   21.4500 H   0  0  0  0  0  0  0  0  0  0  0  0
    6.9161   17.0866   19.8516 H   0  0  0  0  0  0  0  0  0  0  0  0
    3.8686   13.6726   24.1055 H   0  0  0  0  0  0  0  0  0  0  0  0
    3.8215   12.6731   25.5787 H   0  0  0  0  0  0  0  0  0  0  0  0
    4.5114   14.2939   25.6458 H   0  0  0  0  0  0  0  0  0  0  0  0
   10.3738    8.5864   23.8989 H   0  0  0  0  0  0  0  0  0  0  0  0
   10.3717    9.0804   22.2055 H   0  0  0  0  0  0  0  0  0  0  0  0
  1  2  1  0  0  0  0
  1  4  2  0  0  0  0
  2  6  2  0  0  0  0
  3  5  2  0  0  0  0
  3  6  1  0  0  0  0
  4 10  1  0  0  0  0
  5 11  1  0  0  0  0
  6  9  1  0  0  0  0
  7  8  1  0  0  0  0
  7 13  1  0  0  0  0
  7 14  2  0  0  0  0
  8 12  2  0  0  0  0
  8 20  1  0  0  0  0
  9 10  2  0  0  0  0
  9 24  1  0  0  0  0
 10 29  1  0  0  0  0
 11 21  1  0  0  0  0
 11 24  2  0  0  0  0
 12 22  1  0  0  0  0
 12 30  1  0  0  0  0
 13 25  2  0  0  0  0
 13 29  1  0  0  0  0
 14 26  1  0  0  0  0
 14 30  1  0  0  0  0
 15 23  1  0  0  0  0
 15 25  1  0  0  0  0
 15 26  2  0  0  0  0
 16 18  1  0  0  0  0
 16 27  1  0  0  0  0
 17 19  1  0  0  0  0
 17 27  1  0  0  0  0
 18 28  1  0  0  0  0
 19 28  1  0  0  0  0
 23 27  1  0  0  0  0
  1 31  1  0  0  0  0
  2 32  1  0  0  0  0
  3 33  1  0  0  0  0
  4 34  1  0  0  0  0
  5 35  1  0  0  0  0
 16 36  1  0  0  0  0
 16 37  1  0  0  0  0
 17 38  1  0  0  0  0
 17 39  1  0  0  0  0
 18 40  1  0  0  0  0
 18 41  1  0  0  0  0
 19 42  1  0  0  0  0
 19 43  1  0  0  0  0
 20 44  1  0  0  0  0
 20 45  1  0  0  0  0
 20 46  1  0  0  0  0
 21 47  1  0  0  0  0
 21 48  1  0  0  0  0
 21 49  1  0  0  0  0
 22 50  1  0  0  0  0
 22 51  1  0  0  0  0
 22 52  1  0  0  0  0
 23 53  1  0  0  0  0
 23 54  1  0  0  0  0
M  END
> <idnumber>
Z31146722

> <heavy_atoms>
30

> <LogS>
-5.48

> <LogP>
4.065

> <rotating_bonds>
4

> <PSA>
60.37

> <hb_acceptors>
5

> <hb_donors>
0

> <Collection>
HTS

> <link>
https://www.enaminestore.com/catalog/Z31146722

> <ROCS_ShapeQuery>
x0446_0A_x1080_0A_x0929_0A_x0812_0A_x0719_0A_x1140_0A_x0528_0A_x0310_0A

> <ROCS_TanimotoCombo>
0.473 

> <ROCS_ShapeTanimoto>
0.271 

> <ROCS_ColorTanimoto>
0.203 

> <ROCS_RefTversky>
0.248 

> <ROCS_RefColorTversky>
0.226 

> <ROCS_RefTverskyCombo>
0.474 

> <ROCS_FitTversky>
1.515 

> <ROCS_FitColorTversky>
0.658 

> <ROCS_FitTverskyCombo>
2.173 

> <ROCS_ColorScore>
-8.126

> <ROCS_Overlap>
2934.745

> <ROCS_Rank>
49                  

$$$$
untitled-dbase-1049586_26
  -OEChem-02092406493D

 41 43  0     0  0  0  0  0  0999 V2000
    7.7950   13.6675   19.5325 C   0  0  0  0  0  0  0  0  0  0  0  0
    7.1986   14.6629   20.2985 C   0  0  0  0  0  0  0  0  0  0  0  0
    9.1515   13.4014   19.6825 C   0  0  0  0  0  0  0  0  0  0  0  0
    7.9961   15.3581   21.1933 C   0  0  0  0  0  0  0  0  0  0  0  0
    8.3044   12.1609   24.0547 C   0  0  0  0  0  0  0  0  0  0  0  0
    7.4430   11.0550   24.2102 C   0  0  0  0  0  0  0  0  0  0  0  0
    9.8616   14.1533   20.6047 C   0  0  0  0  0  0  0  0  0  0  0  0
    9.4044   11.6557   23.4105 C   0  0  0  0  0  0  0  0  0  0  0  0
   10.9987   13.5869   23.1161 C   0  0  0  0  0  0  0  0  0  0  0  0
    7.9508   13.5063   24.5578 C   0  0  0  0  0  0  0  0  0  0  0  0
    6.1136   11.1843   24.8529 C   0  0  0  0  0  0  0  0  0  0  0  0
    6.0702   12.4945   25.6622 C   0  0  0  0  0  0  0  0  0  0  0  0
   13.2114   13.2087   21.9427 C   0  0  0  0  0  0  0  0  0  0  0  0
   12.2806   15.5453   22.1365 C   0  0  0  0  0  0  0  0  0  0  0  0
   11.9390   14.0606   21.9836 C   0  0  0  0  0  0  0  0  0  0  0  0
    9.3169   15.1281   21.3667 N   0  0  0  0  0  0  0  0  0  0  0  0
    7.9425    9.9287   23.7007 N   0  0  0  0  0  0  0  0  0  0  0  0
    9.1396   10.3262   23.2228 N   0  0  0  0  0  0  0  0  0  0  0  0
   11.2078   13.8776   20.7423 N   0  0  0  0  0  0  0  0  0  0  0  0
   10.5698   12.2348   22.9948 N   0  0  0  0  0  0  0  0  0  0  0  0
   10.6673   14.3408   24.0294 O   0  0  0  0  0  0  0  0  0  0  0  0
    6.5433   13.6046   24.8750 O   0  0  0  0  0  0  0  0  0  0  0  0
    7.2040   13.1007   18.8191 H   0  0  0  0  0  0  0  0  0  0  0  0
    6.1430   14.8879   20.1984 H   0  0  0  0  0  0  0  0  0  0  0  0
    9.6250   12.6260   19.0893 H   0  0  0  0  0  0  0  0  0  0  0  0
    7.5790   16.1439   21.8145 H   0  0  0  0  0  0  0  0  0  0  0  0
    8.5230   13.7424   25.4619 H   0  0  0  0  0  0  0  0  0  0  0  0
    8.1683   14.2724   23.8073 H   0  0  0  0  0  0  0  0  0  0  0  0
    5.3513   11.2203   24.0652 H   0  0  0  0  0  0  0  0  0  0  0  0
    5.8949   10.3311   25.5030 H   0  0  0  0  0  0  0  0  0  0  0  0
    5.0398   12.7107   25.9626 H   0  0  0  0  0  0  0  0  0  0  0  0
    6.6749   12.4217   26.5747 H   0  0  0  0  0  0  0  0  0  0  0  0
   13.8810   13.5416   21.1407 H   0  0  0  0  0  0  0  0  0  0  0  0
   13.7662   13.2824   22.8854 H   0  0  0  0  0  0  0  0  0  0  0  0
   12.9936   12.1496   21.7696 H   0  0  0  0  0  0  0  0  0  0  0  0
   12.9472   15.8810   21.3335 H   0  0  0  0  0  0  0  0  0  0  0  0
   11.3759   16.1631   22.0914 H   0  0  0  0  0  0  0  0  0  0  0  0
   12.7763   15.7589   23.0892 H   0  0  0  0  0  0  0  0  0  0  0  0
    9.7305    9.6358   22.7772 H   0  0  0  0  0  0  0  0  0  0  0  0
   11.7195   13.5314   19.9433 H   0  0  0  0  0  0  0  0  0  0  0  0
   11.2616   11.6232   22.5192 H   0  0  0  0  0  0  0  0  0  0  0  0
  1  2  1  0  0  0  0
  1  3  2  0  0  0  0
  2  4  2  0  0  0  0
  3  7  1  0  0  0  0
  4 16  1  0  0  0  0
  5  6  1  0  0  0  0
  5  8  2  0  0  0  0
  5 10  1  0  0  0  0
  6 11  1  0  0  0  0
  6 17  2  0  0  0  0
  7 16  2  0  0  0  0
  7 19  1  0  0  0  0
  8 18  1  0  0  0  0
  8 20  1  0  0  0  0
  9 15  1  0  0  0  0
  9 20  1  0  0  0  0
  9 21  2  0  0  0  0
 10 22  1  0  0  0  0
 11 12  1  0  0  0  0
 12 22  1  0  0  0  0
 13 15  1  0  0  0  0
 14 15  1  0  0  0  0
 15 19  1  0  0  0  0
 17 18  1  0  0  0  0
  1 23  1  0  0  0  0
  2 24  1  0  0  0  0
  3 25  1  0  0  0  0
  4 26  1  0  0  0  0
 10 27  1  0  0  0  0
 10 28  1  0  0  0  0
 11 29  1  0  0  0  0
 11 30  1  0  0  0  0
 12 31  1  0  0  0  0
 12 32  1  0  0  0  0
 13 33  1  0  0  0  0
 13 34  1  0  0  0  0
 13 35  1  0  0  0  0
 14 36  1  0  0  0  0
 14 37  1  0  0  0  0
 14 38  1  0  0  0  0
 18 39  1  0  0  0  0
 19 40  1  0  0  0  0
 20 41  1  0  0  0  0
M  END
> <idnumber>
Z3671637269

> <heavy_atoms>
22

> <LogS>
-2.925

> <LogP>
0.609

> <rotating_bonds>
4

> <PSA>
91.93

> <hb_acceptors>
5

> <hb_donors>
3

> <Collection>
Advanced

> <link>
https://www.enaminestore.com/catalog/Z3671637269

> <ROCS_ShapeQuery>
x0446_0A_x1080_0A_x0929_0A_x0812_0A_x0719_0A_x1140_0A_x0528_0A_x0310_0A

> <ROCS_TanimotoCombo>
0.473 

> <ROCS_ShapeTanimoto>
0.247 

> <ROCS_ColorTanimoto>
0.226 

> <ROCS_RefTversky>
0.225 

> <ROCS_RefColorTversky>
0.248 

> <ROCS_RefTverskyCombo>
0.472 

> <ROCS_FitTversky>
1.681 

> <ROCS_FitColorTversky>
0.721 

> <ROCS_FitTverskyCombo>
2.402 

> <ROCS_ColorScore>
-8.889

> <ROCS_Overlap>
2654.776

> <ROCS_Rank>
50                  

$$$$
untitled-dbase-976005_155
  -OEChem-02092406493D

 40 44  0     1  0  0  0  0  0999 V2000
   11.9565   14.3058   22.0118 C   0  0  0  0  0  0  0  0  0  0  0  0
   13.1852   14.8500   21.6926 C   0  0  0  0  0  0  0  0  0  0  0  0
   10.9109   15.2176   21.7315 C   0  0  0  0  0  0  0  0  0  0  0  0
   11.3610   16.4070   21.2171 C   0  0  0  0  0  0  0  0  0  0  0  0
   10.4875   17.4896   20.8538 C   0  0  0  0  0  0  0  0  0  0  0  0
    8.7602   15.9261   21.6294 C   0  0  0  0  0  0  0  0  0  0  0  0
    6.9662   13.7661   23.2548 C   0  0  0  0  0  0  0  0  0  0  0  0
    7.3434   11.8231   24.7952 C   0  0  0  0  0  0  0  0  0  0  0  0
   10.3015    9.9548   23.3339 C   0  0  0  0  0  0  0  0  0  0  0  0
    7.3518   12.3214   23.3322 C   0  0  2  0  0  0  0  0  0  0  0  0
    9.0622   10.1339   24.1698 C   0  0  2  0  0  0  0  0  0  0  0  0
    9.0867   10.6407   22.7672 C   0  0  1  0  0  0  0  0  0  0  0  0
    8.8024   11.3835   24.9814 C   0  0  1  0  0  0  0  0  0  0  0  0
    8.8256   12.1212   22.9394 C   0  0  2  0  0  0  0  0  0  0  0  0
    6.7607   13.6012   20.7695 C   0  0  0  0  0  0  0  0  0  0  0  0
    7.2911   15.7768   21.8012 C   0  0  0  0  0  0  0  0  0  0  0  0
    9.5496   14.9416   21.9536 N   0  0  0  0  0  0  0  0  0  0  0  0
    9.1566   17.1544   21.1000 N   0  0  0  0  0  0  0  0  0  0  0  0
    7.0043   14.3572   21.9913 N   0  0  0  0  0  0  0  0  0  0  0  0
   10.8401   18.5698   20.3894 O   0  0  0  0  0  0  0  0  0  0  0  0
    6.6391   14.3580   24.2869 O   0  0  0  0  0  0  0  0  0  0  0  0
    9.4661   12.4153   24.2106 O   0  0  0  0  0  0  0  0  0  0  0  0
   13.0483   16.4454   21.0632 S   0  0  0  0  0  0  0  0  0  0  0  0
   11.8325   13.3115   22.4211 H   0  0  0  0  0  0  0  0  0  0  0  0
   14.1579   14.3905   21.7974 H   0  0  0  0  0  0  0  0  0  0  0  0
    7.0927   12.6320   25.4907 H   0  0  0  0  0  0  0  0  0  0  0  0
    6.6394   10.9988   24.9473 H   0  0  0  0  0  0  0  0  0  0  0  0
   11.1775   10.5476   23.5647 H   0  0  0  0  0  0  0  0  0  0  0  0
   10.5259    8.9568   22.9765 H   0  0  0  0  0  0  0  0  0  0  0  0
    6.6639   11.7508   22.6997 H   0  0  0  0  0  0  0  0  0  0  0  0
    8.4532    9.2790   24.4200 H   0  0  0  0  0  0  0  0  0  0  0  0
    8.4970   10.1483   22.0093 H   0  0  0  0  0  0  0  0  0  0  0  0
    9.1560   11.3447   26.0136 H   0  0  0  0  0  0  0  0  0  0  0  0
    9.2107   12.7577   22.1395 H   0  0  0  0  0  0  0  0  0  0  0  0
    5.6871   13.6245   20.5311 H   0  0  0  0  0  0  0  0  0  0  0  0
    7.3297   14.0492   19.9416 H   0  0  0  0  0  0  0  0  0  0  0  0
    7.0817   12.5589   20.9132 H   0  0  0  0  0  0  0  0  0  0  0  0
    6.7842   16.1512   20.9085 H   0  0  0  0  0  0  0  0  0  0  0  0
    6.9703   16.3504   22.6743 H   0  0  0  0  0  0  0  0  0  0  0  0
    8.4388   17.8400   20.8828 H   0  0  0  0  0  0  0  0  0  0  0  0
  1  2  2  0  0  0  0
  1  3  1  0  0  0  0
  2 23  1  0  0  0  0
  3  4  2  0  0  0  0
  3 17  1  0  0  0  0
  4  5  1  0  0  0  0
  4 23  1  0  0  0  0
  5 18  1  0  0  0  0
  5 20  2  0  0  0  0
  6 16  1  0  0  0  0
  6 17  2  0  0  0  0
  6 18  1  0  0  0  0
  7 10  1  1  0  0  0
  7 19  1  0  0  0  0
  7 21  2  0  0  0  0
  8 10  1  0  0  0  0
  8 13  1  0  0  0  0
  9 11  1  1  0  0  0
  9 12  1  1  0  0  0
 10 14  1  0  0  0  0
 11 12  1  0  0  0  0
 11 13  1  0  0  0  0
 12 14  1  0  0  0  0
 13 22  1  1  0  0  0
 14 22  1  1  0  0  0
 15 19  1  0  0  0  0
 16 19  1  0  0  0  0
  1 24  1  0  0  0  0
  2 25  1  0  0  0  0
  8 26  1  0  0  0  0
  8 27  1  0  0  0  0
  9 28  1  0  0  0  0
  9 29  1  0  0  0  0
 10 30  1  0  0  0  0
 11 31  1  0  0  0  0
 12 32  1  0  0  0  0
 13 33  1  0  0  0  0
 14 34  1  0  0  0  0
 15 35  1  0  0  0  0
 15 36  1  0  0  0  0
 15 37  1  0  0  0  0
 16 38  1  0  0  0  0
 16 39  1  0  0  0  0
 18 40  1  0  0  0  0
M  END
> <idnumber>
Z2947091326

> <heavy_atoms>
23

> <LogS>
-3.24

> <LogP>
-0.689

> <rotating_bonds>
3

> <PSA>
71

> <hb_acceptors>
4

> <hb_donors>
1

> <Collection>
Advanced

> <link>
https://www.enaminestore.com/catalog/Z2947091326

> <ROCS_ShapeQuery>
x0446_0A_x1080_0A_x0929_0A_x0812_0A_x0719_0A_x1140_0A_x0528_0A_x0310_0A

> <ROCS_TanimotoCombo>
0.473 

> <ROCS_ShapeTanimoto>
0.248 

> <ROCS_ColorTanimoto>
0.225 

> <ROCS_RefTversky>
0.226 

> <ROCS_RefColorTversky>
0.309 

> <ROCS_RefTverskyCombo>
0.535 

> <ROCS_FitTversky>
1.632 

> <ROCS_FitColorTversky>
0.454 

> <ROCS_FitTverskyCombo>
2.086 

> <ROCS_ColorScore>
-11.279

> <ROCS_Overlap>
2675.307

> <ROCS_Rank>
51                  

$$$$
untitled-dbase-323295_23
  -OEChem-02092406493D

 47 51  0     0  0  0  0  0  0999 V2000
   12.0179    7.6666   22.7403 C   0  0  0  0  0  0  0  0  0  0  0  0
   10.9659    8.5644   22.8832 C   0  0  0  0  0  0  0  0  0  0  0  0
   13.0856   15.0687   22.3867 C   0  0  0  0  0  0  0  0  0  0  0  0
   12.1463   14.6313   23.3204 C   0  0  0  0  0  0  0  0  0  0  0  0
   11.3025   15.6353   20.8581 C   0  0  0  0  0  0  0  0  0  0  0  0
   13.2490    8.0206   23.2682 C   0  0  0  0  0  0  0  0  0  0  0  0
   12.4431   10.0316   24.0327 C   0  0  0  0  0  0  0  0  0  0  0  0
    8.1654   12.5330   24.0058 C   0  0  0  0  0  0  0  0  0  0  0  0
   11.1743    9.7719   23.5405 C   0  0  0  0  0  0  0  0  0  0  0  0
    6.9384   13.2168   24.1673 C   0  0  0  0  0  0  0  0  0  0  0  0
   12.6638   15.5708   21.1556 C   0  0  0  0  0  0  0  0  0  0  0  0
   10.7850   14.6958   23.0230 C   0  0  0  0  0  0  0  0  0  0  0  0
   10.3631   15.1978   21.7918 C   0  0  0  0  0  0  0  0  0  0  0  0
    5.8662   12.3683   24.2165 C   0  0  0  0  0  0  0  0  0  0  0  0
    9.4984   12.9378   23.9042 C   0  0  0  0  0  0  0  0  0  0  0  0
    7.9291   11.1572   23.9407 C   0  0  0  0  0  0  0  0  0  0  0  0
   10.1041   10.7233   23.7041 C   0  0  0  0  0  0  0  0  0  0  0  0
    6.5077   14.6306   24.3021 C   0  0  0  0  0  0  0  0  0  0  0  0
    4.5629   13.0507   24.3872 C   0  0  0  0  0  0  0  0  0  0  0  0
    4.9643   14.5284   24.0884 C   0  0  0  0  0  0  0  0  0  0  0  0
   13.6679   16.0410   20.1582 C   0  0  0  0  0  0  0  0  0  0  0  0
    8.6890   15.7908   20.2103 C   0  0  0  0  0  0  0  0  0  0  0  0
   13.4896    9.1842   23.9131 N   0  0  0  0  0  0  0  0  0  0  0  0
   10.4760   12.0186   23.7517 N   0  0  0  0  0  0  0  0  0  0  0  0
    8.8666   10.2015   23.7895 N   0  0  0  0  0  0  0  0  0  0  0  0
    9.8665   14.2599   23.9548 O   0  0  0  0  0  0  0  0  0  0  0  0
    9.0365   15.2650   21.4897 O   0  0  0  0  0  0  0  0  0  0  0  0
    6.2622   10.7507   24.0763 S   0  0  0  0  0  0  0  0  0  0  0  0
   11.8791    6.7190   22.2326 H   0  0  0  0  0  0  0  0  0  0  0  0
    9.9898    8.3101   22.4776 H   0  0  0  0  0  0  0  0  0  0  0  0
   14.1440   15.0163   22.6277 H   0  0  0  0  0  0  0  0  0  0  0  0
   12.4818   14.2410   24.2773 H   0  0  0  0  0  0  0  0  0  0  0  0
   10.9710   16.0268   19.8994 H   0  0  0  0  0  0  0  0  0  0  0  0
   14.1019    7.3550   23.1827 H   0  0  0  0  0  0  0  0  0  0  0  0
   12.6710   10.9556   24.5565 H   0  0  0  0  0  0  0  0  0  0  0  0
    6.7311   15.0046   25.3067 H   0  0  0  0  0  0  0  0  0  0  0  0
    6.9667   15.2880   23.5587 H   0  0  0  0  0  0  0  0  0  0  0  0
    3.7949   12.7005   23.6922 H   0  0  0  0  0  0  0  0  0  0  0  0
    4.2026   12.9514   25.4162 H   0  0  0  0  0  0  0  0  0  0  0  0
    4.4103   15.2424   24.7057 H   0  0  0  0  0  0  0  0  0  0  0  0
    4.7351   14.7535   23.0383 H   0  0  0  0  0  0  0  0  0  0  0  0
   13.9697   15.2156   19.5018 H   0  0  0  0  0  0  0  0  0  0  0  0
   13.2633   16.8500   19.5363 H   0  0  0  0  0  0  0  0  0  0  0  0
   14.5643   16.4383   20.6522 H   0  0  0  0  0  0  0  0  0  0  0  0
    7.6020   15.7887   20.0976 H   0  0  0  0  0  0  0  0  0  0  0  0
    9.1482   15.1814   19.4279 H   0  0  0  0  0  0  0  0  0  0  0  0
    9.0588   16.8161   20.1350 H   0  0  0  0  0  0  0  0  0  0  0  0
  1  2  2  0  0  0  0
  1  6  1  0  0  0  0
  2  9  1  0  0  0  0
  3  4  2  0  0  0  0
  3 11  1  0  0  0  0
  4 12  1  0  0  0  0
  5 11  2  0  0  0  0
  5 13  1  0  0  0  0
  6 23  2  0  0  0  0
  7  9  2  0  0  0  0
  7 23  1  0  0  0  0
  8 10  1  0  0  0  0
  8 15  2  0  0  0  0
  8 16  1  0  0  0  0
  9 17  1  0  0  0  0
 10 14  2  0  0  0  0
 10 18  1  0  0  0  0
 11 21  1  0  0  0  0
 12 13  2  0  0  0  0
 12 26  1  0  0  0  0
 13 27  1  0  0  0  0
 14 19  1  0  0  0  0
 14 28  1  0  0  0  0
 15 24  1  0  0  0  0
 15 26  1  0  0  0  0
 16 25  2  0  0  0  0
 16 28  1  0  0  0  0
 17 24  2  0  0  0  0
 17 25  1  0  0  0  0
 18 20  1  0  0  0  0
 19 20  1  0  0  0  0
 22 27  1  0  0  0  0
  1 29  1  0  0  0  0
  2 30  1  0  0  0  0
  3 31  1  0  0  0  0
  4 32  1  0  0  0  0
  5 33  1  0  0  0  0
  6 34  1  0  0  0  0
  7 35  1  0  0  0  0
 18 36  1  0  0  0  0
 18 37  1  0  0  0  0
 19 38  1  0  0  0  0
 19 39  1  0  0  0  0
 20 40  1  0  0  0  0
 20 41  1  0  0  0  0
 21 42  1  0  0  0  0
 21 43  1  0  0  0  0
 21 44  1  0  0  0  0
 22 45  1  0  0  0  0
 22 46  1  0  0  0  0
 22 47  1  0  0  0  0
M  END
> <idnumber>
Z31118001

> <heavy_atoms>
28

> <LogS>
-7.03

> <LogP>
4.756

> <rotating_bonds>
4

> <PSA>
57.13

> <hb_acceptors>
4

> <hb_donors>
0

> <Collection>
Legacy

> <link>
https://www.enaminestore.com/catalog/Z31118001

> <ROCS_ShapeQuery>
x0446_0A_x1080_0A_x0929_0A_x0812_0A_x0719_0A_x1140_0A_x0528_0A_x0310_0A

> <ROCS_TanimotoCombo>
0.473 

> <ROCS_ShapeTanimoto>
0.261 

> <ROCS_ColorTanimoto>
0.212 

> <ROCS_RefTversky>
0.240 

> <ROCS_RefColorTversky>
0.231 

> <ROCS_RefTverskyCombo>
0.470 

> <ROCS_FitTversky>
1.523 

> <ROCS_FitColorTversky>
0.723 

> <ROCS_FitTverskyCombo>
2.247 

> <ROCS_ColorScore>
-8.264

> <ROCS_Overlap>
2835.003

> <ROCS_Rank>
52                  

$$$$
untitled-dbase-1168312_142
  -OEChem-02092406493D

 49 53  0     1  0  0  0  0  0999 V2000
    3.7958   10.9369   23.3937 C   0  0  0  0  0  0  0  0  0  0  0  0
    4.5321   13.2090   23.1113 C   0  0  0  0  0  0  0  0  0  0  0  0
   10.8704   16.1901   20.1008 C   0  0  0  0  0  0  0  0  0  0  0  0
    4.6686   11.9678   23.7231 C   0  0  0  0  0  0  0  0  0  0  0  0
    2.8111   11.1961   22.4540 C   0  0  0  0  0  0  0  0  0  0  0  0
    3.5146   13.3664   22.1841 C   0  0  0  0  0  0  0  0  0  0  0  0
   10.8250   14.8292   21.8125 C   0  0  0  0  0  0  0  0  0  0  0  0
   13.3419   13.7230   21.2279 C   0  0  0  0  0  0  0  0  0  0  0  0
   12.5643   13.2777   22.3778 C   0  0  0  0  0  0  0  0  0  0  0  0
   12.8435   14.6830   20.4311 C   0  0  0  0  0  0  0  0  0  0  0  0
   11.3573   13.8123   22.6528 C   0  0  0  0  0  0  0  0  0  0  0  0
    5.7311   11.7477   24.7139 C   0  0  0  0  0  0  0  0  0  0  0  0
   10.6161   13.3213   23.8299 C   0  0  0  0  0  0  0  0  0  0  0  0
    9.3071    9.9829   23.8692 C   0  0  0  0  0  0  0  0  0  0  0  0
    8.8893   10.4390   22.4600 C   0  0  0  0  0  0  0  0  0  0  0  0
    8.1282   11.7018   25.3028 C   0  0  0  0  0  0  0  0  0  0  0  0
    7.4559   12.4575   22.9802 C   0  0  0  0  0  0  0  0  0  0  0  0
    9.4637   11.2817   24.6666 C   0  0  2  0  0  0  0  0  0  0  0  0
    8.8477   11.9721   22.5393 C   0  0  1  0  0  0  0  0  0  0  0  0
    1.8566   10.1132   22.0762 C   0  0  0  0  0  0  0  0  0  0  0  0
    9.7375   16.3842   20.7379 N   0  0  0  0  0  0  0  0  0  0  0  0
    2.6475   12.3886   21.8385 N   0  0  0  0  0  0  0  0  0  0  0  0
    9.7075   15.5258   21.8186 N   0  0  0  0  0  0  0  0  0  0  0  0
   11.5987   15.2219   20.7304 N   0  0  0  0  0  0  0  0  0  0  0  0
    7.0597   11.9206   24.3059 N   0  0  0  0  0  0  0  0  0  0  0  0
    9.7639   12.2569   23.6345 N   0  0  0  0  0  0  0  0  0  0  0  0
    5.3668   11.4254   25.8438 O   0  0  0  0  0  0  0  0  0  0  0  0
   10.7943   13.8821   24.9111 O   0  0  0  0  0  0  0  0  0  0  0  0
    3.3608   14.5797   21.5660 O   0  0  0  0  0  0  0  0  0  0  0  0
    3.8829    9.9598   23.8589 H   0  0  0  0  0  0  0  0  0  0  0  0
    5.2011   14.0297   23.3505 H   0  0  0  0  0  0  0  0  0  0  0  0
   11.2037   16.7043   19.2103 H   0  0  0  0  0  0  0  0  0  0  0  0
   14.3070   13.2688   21.0405 H   0  0  0  0  0  0  0  0  0  0  0  0
   13.0047   12.4996   22.9934 H   0  0  0  0  0  0  0  0  0  0  0  0
   13.3677   15.0595   19.5611 H   0  0  0  0  0  0  0  0  0  0  0  0
    8.5746    9.2977   24.3080 H   0  0  0  0  0  0  0  0  0  0  0  0
   10.2661    9.4550   23.8090 H   0  0  0  0  0  0  0  0  0  0  0  0
    9.6472   10.1162   21.7365 H   0  0  0  0  0  0  0  0  0  0  0  0
    7.9317   10.0021   22.1586 H   0  0  0  0  0  0  0  0  0  0  0  0
    7.7968   10.9512   26.0295 H   0  0  0  0  0  0  0  0  0  0  0  0
    8.2478   12.6469   25.8469 H   0  0  0  0  0  0  0  0  0  0  0  0
    7.4431   13.5508   23.0662 H   0  0  0  0  0  0  0  0  0  0  0  0
    6.7107   12.1778   22.2286 H   0  0  0  0  0  0  0  0  0  0  0  0
   10.2525   11.2217   25.4225 H   0  0  0  0  0  0  0  0  0  0  0  0
    9.1439   12.4321   21.5946 H   0  0  0  0  0  0  0  0  0  0  0  0
    0.9761   10.1362   22.7295 H   0  0  0  0  0  0  0  0  0  0  0  0
    1.5222   10.2225   21.0366 H   0  0  0  0  0  0  0  0  0  0  0  0
    2.3251    9.1240   22.1573 H   0  0  0  0  0  0  0  0  0  0  0  0
    4.0318   15.1980   21.8874 H   0  0  0  0  0  0  0  0  0  0  0  0
  1  4  2  0  0  0  0
  1  5  1  0  0  0  0
  2  4  1  0  0  0  0
  2  6  2  0  0  0  0
  3 21  2  0  0  0  0
  3 24  1  0  0  0  0
  4 12  1  0  0  0  0
  5 20  1  0  0  0  0
  5 22  2  0  0  0  0
  6 22  1  0  0  0  0
  6 29  1  0  0  0  0
  7 11  1  0  0  0  0
  7 23  2  0  0  0  0
  7 24  1  0  0  0  0
  8  9  1  0  0  0  0
  8 10  2  0  0  0  0
  9 11  2  0  0  0  0
 10 24  1  0  0  0  0
 11 13  1  0  0  0  0
 12 25  1  0  0  0  0
 12 27  2  0  0  0  0
 13 26  1  0  0  0  0
 13 28  2  0  0  0  0
 14 15  1  0  0  0  0
 14 18  1  0  0  0  0
 15 19  1  0  0  0  0
 16 18  1  0  0  0  0
 16 25  1  0  0  0  0
 17 19  1  0  0  0  0
 17 25  1  0  0  0  0
 18 26  1  0  0  0  0
 19 26  1  0  0  0  0
 21 23  1  0  0  0  0
  1 30  1  0  0  0  0
  2 31  1  0  0  0  0
  3 32  1  0  0  0  0
  8 33  1  0  0  0  0
  9 34  1  0  0  0  0
 10 35  1  0  0  0  0
 14 36  1  0  0  0  0
 14 37  1  0  0  0  0
 15 38  1  0  0  0  0
 15 39  1  0  0  0  0
 16 40  1  0  0  0  0
 16 41  1  0  0  0  0
 17 42  1  0  0  0  0
 17 43  1  0  0  0  0
 18 44  1  0  0  0  0
 19 45  1  0  0  0  0
 20 46  1  0  0  0  0
 20 47  1  0  0  0  0
 20 48  1  0  0  0  0
 29 49  1  0  0  0  0
M  END
> <idnumber>
Z8381568956

> <heavy_atoms>
29

> <LogS>
-3.875

> <LogP>
0.523

> <rotating_bonds>
2

> <PSA>
103.93

> <hb_acceptors>
6

> <hb_donors>
1

> <Collection>
Advanced

> <link>
https://www.enaminestore.com/catalog/Z8381568956

> <ROCS_ShapeQuery>
x0446_0A_x1080_0A_x0929_0A_x0812_0A_x0719_0A_x1140_0A_x0528_0A_x0310_0A

> <ROCS_TanimotoCombo>
0.473 

> <ROCS_ShapeTanimoto>
0.235 

> <ROCS_ColorTanimoto>
0.238 

> <ROCS_RefTversky>
0.221 

> <ROCS_RefColorTversky>
0.284 

> <ROCS_RefTverskyCombo>
0.505 

> <ROCS_FitTversky>
1.362 

> <ROCS_FitColorTversky>
0.595 

> <ROCS_FitTverskyCombo>
1.957 

> <ROCS_ColorScore>
-10.257

> <ROCS_Overlap>
2619.409

> <ROCS_Rank>
53                  

$$$$
untitled-dbase-1031030_25
  -OEChem-02092406493D

 38 40  0     1  0  0  0  0  0999 V2000
   13.0206   14.1097   22.7885 C   0  0  0  0  0  0  0  0  0  0  0  0
   13.2903   15.4499   23.0137 C   0  0  0  0  0  0  0  0  0  0  0  0
    6.1415   11.4045   24.6899 C   0  0  0  0  0  0  0  0  0  0  0  0
   11.2957   16.1007   22.0778 C   0  0  0  0  0  0  0  0  0  0  0  0
    7.4149   11.0915   24.1957 C   0  0  0  0  0  0  0  0  0  0  0  0
   10.9326   14.7910   21.8085 C   0  0  0  0  0  0  0  0  0  0  0  0
   11.8171   13.7823   22.1739 C   0  0  0  0  0  0  0  0  0  0  0  0
    8.1258   12.2660   24.2694 C   0  0  0  0  0  0  0  0  0  0  0  0
    8.0606    9.9117   23.6809 C   0  0  0  0  0  0  0  0  0  0  0  0
    9.9966   11.4347   23.4475 C   0  0  0  0  0  0  0  0  0  0  0  0
    7.5435   14.5797   25.0586 C   0  0  0  0  0  0  0  0  0  0  0  0
   11.2858   11.9822   20.5498 C   0  0  0  0  0  0  0  0  0  0  0  0
    9.6293   14.5002   21.1474 C   0  0  0  0  0  0  0  0  0  0  0  0
   11.4259   11.4722   22.9929 C   0  0  0  0  0  0  0  0  0  0  0  0
   12.4559   16.4575   22.6730 N   0  0  0  0  0  0  0  0  0  0  0  0
    6.0439   12.6894   25.0544 N   0  0  0  0  0  0  0  0  0  0  0  0
    9.4102   12.5036   23.9148 N   0  0  0  0  0  0  0  0  0  0  0  0
    7.2684   13.1885   24.7867 N   0  0  0  0  0  0  0  0  0  0  0  0
    9.3882   10.1767   23.3193 N   0  0  0  0  0  0  0  0  0  0  0  0
   11.5112   12.4306   21.9301 N   0  0  3  0  0  0  0  0  0  0  0  0
    7.5066    8.8239   23.5775 O   0  0  0  0  0  0  0  0  0  0  0  0
    8.6837   15.5020   21.5032 O   0  0  0  0  0  0  0  0  0  0  0  0
   13.7334   13.3481   23.0867 H   0  0  0  0  0  0  0  0  0  0  0  0
   14.2150   15.7582   23.4904 H   0  0  0  0  0  0  0  0  0  0  0  0
    5.2794   10.7633   24.8034 H   0  0  0  0  0  0  0  0  0  0  0  0
   10.6466   16.9305   21.8157 H   0  0  0  0  0  0  0  0  0  0  0  0
    7.2964   15.1539   24.1617 H   0  0  0  0  0  0  0  0  0  0  0  0
    6.9361   14.9124   25.9049 H   0  0  0  0  0  0  0  0  0  0  0  0
    8.6015   14.6966   25.3093 H   0  0  0  0  0  0  0  0  0  0  0  0
   11.0602   10.9056   20.5457 H   0  0  0  0  0  0  0  0  0  0  0  0
   10.4388   12.5358   20.1183 H   0  0  0  0  0  0  0  0  0  0  0  0
   12.1894   12.1697   19.9513 H   0  0  0  0  0  0  0  0  0  0  0  0
    9.7280   14.4852   20.0528 H   0  0  0  0  0  0  0  0  0  0  0  0
    9.2368   13.5206   21.4545 H   0  0  0  0  0  0  0  0  0  0  0  0
   11.7050   10.4795   22.6452 H   0  0  0  0  0  0  0  0  0  0  0  0
   12.0496   11.7675   23.8346 H   0  0  0  0  0  0  0  0  0  0  0  0
    9.9429    9.4132   22.9421 H   0  0  0  0  0  0  0  0  0  0  0  0
    7.8544   15.2746   21.0533 H   0  0  0  0  0  0  0  0  0  0  0  0
  1  2  2  0  0  0  0
  1  7  1  0  0  0  0
  2 15  1  0  0  0  0
  3  5  1  0  0  0  0
  3 16  2  0  0  0  0
  4  6  1  0  0  0  0
  4 15  2  0  0  0  0
  5  8  2  0  0  0  0
  5  9  1  0  0  0  0
  6  7  2  0  0  0  0
  6 13  1  0  0  0  0
  7 20  1  0  0  0  0
  8 17  1  0  0  0  0
  8 18  1  0  0  0  0
  9 19  1  0  0  0  0
  9 21  2  0  0  0  0
 10 14  1  0  0  0  0
 10 17  2  0  0  0  0
 10 19  1  0  0  0  0
 11 18  1  0  0  0  0
 12 20  1  0  0  0  0
 13 22  1  0  0  0  0
 14 20  1  0  0  0  0
 16 18  1  0  0  0  0
  1 23  1  0  0  0  0
  2 24  1  0  0  0  0
  3 25  1  0  0  0  0
  4 26  1  0  0  0  0
 11 27  1  0  0  0  0
 11 28  1  0  0  0  0
 11 29  1  0  0  0  0
 12 30  1  0  0  0  0
 12 31  1  0  0  0  0
 12 32  1  0  0  0  0
 13 33  1  0  0  0  0
 13 34  1  0  0  0  0
 14 35  1  0  0  0  0
 14 36  1  0  0  0  0
 19 37  1  0  0  0  0
 22 38  1  0  0  0  0
M  END
> <idnumber>
Z5576871438

> <heavy_atoms>
29

> <LogS>
-1.591

> <LogP>
-0.807

> <rotating_bonds>
5

> <PSA>
95.64

> <hb_acceptors>
6

> <hb_donors>
2

> <SaltType>
OC(=O)C(F)(F)F

> <Collection>
Advanced

> <link>
https://www.enaminestore.com/catalog/Z5576871438

> <ROCS_ShapeQuery>
x0446_0A_x1080_0A_x0929_0A_x0812_0A_x0719_0A_x1140_0A_x0528_0A_x0310_0A

> <ROCS_TanimotoCombo>
0.473 

> <ROCS_ShapeTanimoto>
0.260 

> <ROCS_ColorTanimoto>
0.213 

> <ROCS_RefTversky>
0.234 

> <ROCS_RefColorTversky>
0.231 

> <ROCS_RefTverskyCombo>
0.466 

> <ROCS_FitTversky>
1.739 

> <ROCS_FitColorTversky>
0.728 

> <ROCS_FitTverskyCombo>
2.468 

> <ROCS_ColorScore>
-8.289

> <ROCS_Overlap>
2767.459

> <ROCS_Rank>
54                  

$$$$
untitled-dbase-1070545_121
  -OEChem-02092406493D

 51 54  0     1  0  0  0  0  0999 V2000
    8.2470   12.2032   24.3872 C   0  0  0  0  0  0  0  0  0  0  0  0
    9.5206   11.9628   23.9404 C   0  0  0  0  0  0  0  0  0  0  0  0
    7.5843   10.9619   24.2764 C   0  0  0  0  0  0  0  0  0  0  0  0
    7.3479   14.8973   21.1461 C   0  0  0  0  0  0  0  0  0  0  0  0
    9.3512   14.0338   21.2838 C   0  0  0  0  0  0  0  0  0  0  0  0
    5.9325   14.8406   21.0130 C   0  0  0  0  0  0  0  0  0  0  0  0
    5.3278   13.6421   20.8922 C   0  0  0  0  0  0  0  0  0  0  0  0
    6.0887   12.4003   20.8943 C   0  0  0  0  0  0  0  0  0  0  0  0
    7.4254   12.4527   21.0198 C   0  0  0  0  0  0  0  0  0  0  0  0
   10.6262   12.8623   23.8403 C   0  0  0  0  0  0  0  0  0  0  0  0
    7.5647   13.4111   24.9048 C   0  0  0  0  0  0  0  0  0  0  0  0
    6.1469   10.7978   24.6354 C   0  0  1  0  0  0  0  0  0  0  0  0
    6.0347   13.2078   24.8048 C   0  0  2  0  0  0  0  0  0  0  0  0
    5.8810    9.5662   25.4916 C   0  0  0  0  0  0  0  0  0  0  0  0
    5.2913   14.3019   25.5576 C   0  0  0  0  0  0  0  0  0  0  0  0
   11.3230    9.0239   24.1008 C   0  0  0  0  0  0  0  0  0  0  0  0
   12.6304   13.4593   22.4393 C   0  0  0  0  0  0  0  0  0  0  0  0
   10.4666   13.0299   21.3292 C   0  0  0  0  0  0  0  0  0  0  0  0
   10.6628    9.9060   23.0550 C   0  0  0  0  0  0  0  0  0  0  0  0
    8.3661   10.0042   23.7733 N   0  0  0  0  0  0  0  0  0  0  0  0
    8.2048   15.8871   21.2794 N   0  0  0  0  0  0  0  0  0  0  0  0
    9.4699   15.3403   21.3662 N   0  0  0  0  0  0  0  0  0  0  0  0
    9.5399   10.6412   23.5897 N   0  0  0  0  0  0  0  0  0  0  0  0
    8.0361   13.6940   21.1439 N   0  0  0  0  0  0  0  0  0  0  0  0
   11.2236   13.1096   22.5766 N   0  0  0  0  0  0  0  0  0  0  0  0
   11.0267   13.4190   24.8854 O   0  0  0  0  0  0  0  0  0  0  0  0
    5.6597   11.9406   25.3856 O   0  0  0  0  0  0  0  0  0  0  0  0
    5.3575   15.7596   21.0113 H   0  0  0  0  0  0  0  0  0  0  0  0
    4.2502   13.5723   20.7905 H   0  0  0  0  0  0  0  0  0  0  0  0
    5.5595   11.4608   20.7928 H   0  0  0  0  0  0  0  0  0  0  0  0
    8.0478   11.5666   21.0277 H   0  0  0  0  0  0  0  0  0  0  0  0
    7.8577   13.5463   25.9532 H   0  0  0  0  0  0  0  0  0  0  0  0
    7.8646   14.3060   24.3489 H   0  0  0  0  0  0  0  0  0  0  0  0
    5.5506   10.7318   23.7171 H   0  0  0  0  0  0  0  0  0  0  0  0
    5.7121   13.2176   23.7550 H   0  0  0  0  0  0  0  0  0  0  0  0
    6.4670    9.6164   26.4095 H   0  0  0  0  0  0  0  0  0  0  0  0
    6.1576    8.6648   24.9445 H   0  0  0  0  0  0  0  0  0  0  0  0
    4.8232    9.5127   25.7498 H   0  0  0  0  0  0  0  0  0  0  0  0
    5.5970   14.3103   26.6044 H   0  0  0  0  0  0  0  0  0  0  0  0
    4.2160   14.1276   25.5059 H   0  0  0  0  0  0  0  0  0  0  0  0
    5.5122   15.2753   25.1180 H   0  0  0  0  0  0  0  0  0  0  0  0
   11.6870    9.6172   24.9463 H   0  0  0  0  0  0  0  0  0  0  0  0
   12.1745    8.4918   23.6655 H   0  0  0  0  0  0  0  0  0  0  0  0
   10.6200    8.2812   24.4925 H   0  0  0  0  0  0  0  0  0  0  0  0
   13.2269   12.5425   22.3222 H   0  0  0  0  0  0  0  0  0  0  0  0
   12.7644   14.0992   21.5547 H   0  0  0  0  0  0  0  0  0  0  0  0
   12.9629   14.0007   23.3373 H   0  0  0  0  0  0  0  0  0  0  0  0
   10.0734   12.0115   21.2378 H   0  0  0  0  0  0  0  0  0  0  0  0
   11.1674   13.1834   20.5019 H   0  0  0  0  0  0  0  0  0  0  0  0
   10.3021    9.3037   22.2136 H   0  0  0  0  0  0  0  0  0  0  0  0
   11.3797   10.6306   22.6526 H   0  0  0  0  0  0  0  0  0  0  0  0
  1  2  2  0  0  0  0
  1  3  1  0  0  0  0
  1 11  1  0  0  0  0
  2 10  1  0  0  0  0
  2 23  1  0  0  0  0
  3 12  1  0  0  0  0
  3 20  2  0  0  0  0
  4  6  1  0  0  0  0
  4 21  2  0  0  0  0
  4 24  1  0  0  0  0
  5 18  1  0  0  0  0
  5 22  2  0  0  0  0
  5 24  1  0  0  0  0
  6  7  2  0  0  0  0
  7  8  1  0  0  0  0
  8  9  2  0  0  0  0
  9 24  1  0  0  0  0
 10 25  1  0  0  0  0
 10 26  2  0  0  0  0
 11 13  1  0  0  0  0
 12 14  1  1  0  0  0
 12 27  1  0  0  0  0
 13 15  1  1  0  0  0
 13 27  1  0  0  0  0
 16 19  1  0  0  0  0
 17 25  1  0  0  0  0
 18 25  1  0  0  0  0
 19 23  1  0  0  0  0
 20 23  1  0  0  0  0
 21 22  1  0  0  0  0
  6 28  1  0  0  0  0
  7 29  1  0  0  0  0
  8 30  1  0  0  0  0
  9 31  1  0  0  0  0
 11 32  1  0  0  0  0
 11 33  1  0  0  0  0
 12 34  1  0  0  0  0
 13 35  1  0  0  0  0
 14 36  1  0  0  0  0
 14 37  1  0  0  0  0
 14 38  1  0  0  0  0
 15 39  1  0  0  0  0
 15 40  1  0  0  0  0
 15 41  1  0  0  0  0
 16 42  1  0  0  0  0
 16 43  1  0  0  0  0
 16 44  1  0  0  0  0
 17 45  1  0  0  0  0
 17 46  1  0  0  0  0
 17 47  1  0  0  0  0
 18 48  1  0  0  0  0
 18 49  1  0  0  0  0
 19 50  1  0  0  0  0
 19 51  1  0  0  0  0
M  END
> <idnumber>
Z4105195330

> <heavy_atoms>
27

> <LogS>
-2.367

> <LogP>
0.177

> <rotating_bonds>
4

> <PSA>
77.55

> <hb_acceptors>
5

> <hb_donors>
0

> <Collection>
HTS

> <link>
https://www.enaminestore.com/catalog/Z4105195330

> <ROCS_ShapeQuery>
x0446_0A_x1080_0A_x0929_0A_x0812_0A_x0719_0A_x1140_0A_x0528_0A_x0310_0A

> <ROCS_TanimotoCombo>
0.473 

> <ROCS_ShapeTanimoto>
0.273 

> <ROCS_ColorTanimoto>
0.199 

> <ROCS_RefTversky>
0.248 

> <ROCS_RefColorTversky>
0.216 

> <ROCS_RefTverskyCombo>
0.464 

> <ROCS_FitTversky>
1.619 

> <ROCS_FitColorTversky>
0.721 

> <ROCS_FitTverskyCombo>
2.340 

> <ROCS_ColorScore>
-7.738

> <ROCS_Overlap>
2928.059

> <ROCS_Rank>
55                  

$$$$
untitled-dbase-1163711_18
  -OEChem-02092406493D

 69 74  0     1  0  0  0  0  0999 V2000
    9.7273   17.8545   22.0388 C   0  0  0  0  0  0  0  0  0  0  0  0
   10.9413   17.5955   22.6416 C   0  0  0  0  0  0  0  0  0  0  0  0
    9.1161   16.7729   21.4382 C   0  0  0  0  0  0  0  0  0  0  0  0
   10.8282   15.4054   22.0433 C   0  0  0  0  0  0  0  0  0  0  0  0
    5.7864   16.2548   21.8450 C   0  0  0  0  0  0  0  0  0  0  0  0
    6.6941   15.0885   19.7892 C   0  0  0  0  0  0  0  0  0  0  0  0
    7.3272   10.7088   24.3771 C   0  0  0  0  0  0  0  0  0  0  0  0
    7.9675   12.9391   23.4380 C   0  0  0  0  0  0  0  0  0  0  0  0
    8.3558   10.8467   22.0976 C   0  0  0  0  0  0  0  0  0  0  0  0
    9.2736   11.9642   25.3334 C   0  0  0  0  0  0  0  0  0  0  0  0
    9.6577    9.8750   23.9947 C   0  0  0  0  0  0  0  0  0  0  0  0
    6.7066   17.4351   21.5312 C   0  0  0  0  0  0  0  0  0  0  0  0
    7.5956   16.3005   19.5314 C   0  0  0  0  0  0  0  0  0  0  0  0
   12.6783   13.8520   22.6832 C   0  0  0  0  0  0  0  0  0  0  0  0
   10.6056   12.9421   21.7390 C   0  0  0  0  0  0  0  0  0  0  0  0
   12.4194   13.0509   23.9487 C   0  0  0  0  0  0  0  0  0  0  0  0
    7.4131   11.5476   23.0903 C   0  0  0  0  0  0  0  0  0  0  0  0
    8.7248   10.5660   25.0030 C   0  0  0  0  0  0  0  0  0  0  0  0
    9.3801   12.8143   24.0459 C   0  0  0  0  0  0  0  0  0  0  0  0
    9.7676   10.7228   22.7054 C   0  0  0  0  0  0  0  0  0  0  0  0
    5.4244   15.4842   20.5632 C   0  0  0  0  0  0  0  0  0  0  0  0
   10.3635   12.1290   23.0419 C   0  0  0  0  0  0  0  0  0  0  0  0
   11.7107   18.6777   23.3271 C   0  0  0  0  0  0  0  0  0  0  0  0
    4.1801   13.4990   19.6340 C   0  0  0  0  0  0  0  0  0  0  0  0
    4.5819   14.2535   20.8896 C   0  0  2  0  0  0  0  0  0  0  0  0
   11.5231   16.3784   22.6629 N   0  0  0  0  0  0  0  0  0  0  0  0
    9.6402   15.5297   21.4213 N   0  0  0  0  0  0  0  0  0  0  0  0
    7.8888   16.9570   20.8100 N   0  0  0  0  0  0  0  0  0  0  0  0
   11.3959   14.1391   22.0472 N   0  0  1  0  0  0  0  0  0  0  0  0
   11.6515   11.8821   23.6554 O   0  0  0  0  0  0  0  0  0  0  0  0
    3.4130   14.6642   21.5884 O   0  0  0  0  0  0  0  0  0  0  0  0
    9.0320   19.4299   22.0438 Cl  0  0  0  0  0  0  0  0  0  0  0  0
    6.2804   15.5874   22.5570 H   0  0  0  0  0  0  0  0  0  0  0  0
    4.8767   16.6242   22.3245 H   0  0  0  0  0  0  0  0  0  0  0  0
    6.4186   14.6359   18.8302 H   0  0  0  0  0  0  0  0  0  0  0  0
    7.2559   14.3309   20.3490 H   0  0  0  0  0  0  0  0  0  0  0  0
    6.6430   11.1843   25.0906 H   0  0  0  0  0  0  0  0  0  0  0  0
    6.9132    9.7181   24.1523 H   0  0  0  0  0  0  0  0  0  0  0  0
    7.9780   13.5762   22.5481 H   0  0  0  0  0  0  0  0  0  0  0  0
    7.3000   13.4325   24.1558 H   0  0  0  0  0  0  0  0  0  0  0  0
    7.9667    9.8487   21.8595 H   0  0  0  0  0  0  0  0  0  0  0  0
    8.3854   11.3965   21.1510 H   0  0  0  0  0  0  0  0  0  0  0  0
    8.6110   12.4626   26.0525 H   0  0  0  0  0  0  0  0  0  0  0  0
   10.2511   11.8777   25.8220 H   0  0  0  0  0  0  0  0  0  0  0  0
   10.6463    9.7196   24.4426 H   0  0  0  0  0  0  0  0  0  0  0  0
    9.2696    8.8779   23.7512 H   0  0  0  0  0  0  0  0  0  0  0  0
    6.1718   18.1760   20.9243 H   0  0  0  0  0  0  0  0  0  0  0  0
    6.9940   17.9196   22.4717 H   0  0  0  0  0  0  0  0  0  0  0  0
    8.5155   15.9588   19.0488 H   0  0  0  0  0  0  0  0  0  0  0  0
    7.0966   17.0008   18.8551 H   0  0  0  0  0  0  0  0  0  0  0  0
   13.2107   14.7718   22.9349 H   0  0  0  0  0  0  0  0  0  0  0  0
   13.2978   13.2647   21.9996 H   0  0  0  0  0  0  0  0  0  0  0  0
   11.1711   12.3276   21.0312 H   0  0  0  0  0  0  0  0  0  0  0  0
    9.6695   13.2237   21.2582 H   0  0  0  0  0  0  0  0  0  0  0  0
   13.3695   12.7169   24.3688 H   0  0  0  0  0  0  0  0  0  0  0  0
   11.9247   13.6510   24.7125 H   0  0  0  0  0  0  0  0  0  0  0  0
    6.4153   11.6453   22.6483 H   0  0  0  0  0  0  0  0  0  0  0  0
    8.6594    9.9677   25.9185 H   0  0  0  0  0  0  0  0  0  0  0  0
    9.7350   13.8144   24.3192 H   0  0  0  0  0  0  0  0  0  0  0  0
   10.4287   10.1954   22.0064 H   0  0  0  0  0  0  0  0  0  0  0  0
    4.8157   16.1445   19.9200 H   0  0  0  0  0  0  0  0  0  0  0  0
   11.4223   18.7376   24.3826 H   0  0  0  0  0  0  0  0  0  0  0  0
   12.7902   18.4932   23.2689 H   0  0  0  0  0  0  0  0  0  0  0  0
   11.5268   19.6518   22.8577 H   0  0  0  0  0  0  0  0  0  0  0  0
    3.6092   14.1357   18.9513 H   0  0  0  0  0  0  0  0  0  0  0  0
    3.5681   12.6292   19.8957 H   0  0  0  0  0  0  0  0  0  0  0  0
    5.0592   13.1166   19.1036 H   0  0  0  0  0  0  0  0  0  0  0  0
    5.1496   13.5942   21.5513 H   0  0  0  0  0  0  0  0  0  0  0  0
    2.9044   13.8597   21.7783 H   0  0  0  0  0  0  0  0  0  0  0  0
  1  2  1  0  0  0  0
  1  3  2  0  0  0  0
  1 32  1  0  0  0  0
  2 23  1  0  0  0  0
  2 26  2  0  0  0  0
  3 27  1  0  0  0  0
  3 28  1  0  0  0  0
  4 26  1  0  0  0  0
  4 27  2  0  0  0  0
  4 29  1  0  0  0  0
  5 12  1  0  0  0  0
  5 21  1  0  0  0  0
  6 13  1  0  0  0  0
  6 21  1  0  0  0  0
  7 17  1  0  0  0  0
  7 18  1  0  0  0  0
  8 17  1  0  0  0  0
  8 19  1  0  0  0  0
  9 17  1  0  0  0  0
  9 20  1  0  0  0  0
 10 18  1  0  0  0  0
 10 19  1  0  0  0  0
 11 18  1  0  0  0  0
 11 20  1  0  0  0  0
 12 28  1  0  0  0  0
 13 28  1  0  0  0  0
 14 16  1  0  0  0  0
 14 29  1  0  0  0  0
 15 22  1  0  0  0  0
 15 29  1  0  0  0  0
 16 30  1  0  0  0  0
 19 22  1  0  0  0  0
 20 22  1  0  0  0  0
 21 25  1  0  0  0  0
 22 30  1  0  0  0  0
 24 25  1  0  0  0  0
 25 31  1  6  0  0  0
  5 33  1  0  0  0  0
  5 34  1  0  0  0  0
  6 35  1  0  0  0  0
  6 36  1  0  0  0  0
  7 37  1  0  0  0  0
  7 38  1  0  0  0  0
  8 39  1  0  0  0  0
  8 40  1  0  0  0  0
  9 41  1  0  0  0  0
  9 42  1  0  0  0  0
 10 43  1  0  0  0  0
 10 44  1  0  0  0  0
 11 45  1  0  0  0  0
 11 46  1  0  0  0  0
 12 47  1  0  0  0  0
 12 48  1  0  0  0  0
 13 49  1  0  0  0  0
 13 50  1  0  0  0  0
 14 51  1  0  0  0  0
 14 52  1  0  0  0  0
 15 53  1  0  0  0  0
 15 54  1  0  0  0  0
 16 55  1  0  0  0  0
 16 56  1  0  0  0  0
 17 57  1  0  0  0  0
 18 58  1  0  0  0  0
 19 59  1  0  0  0  0
 20 60  1  0  0  0  0
 21 61  1  0  0  0  0
 23 62  1  0  0  0  0
 23 63  1  0  0  0  0
 23 64  1  0  0  0  0
 24 65  1  0  0  0  0
 24 66  1  0  0  0  0
 24 67  1  0  0  0  0
 25 68  1  0  0  0  0
 31 69  1  0  0  0  0
M  END
> <idnumber>
Z8206495531

> <heavy_atoms>
32

> <LogS>
-6.286

> <LogP>
4.167

> <rotating_bonds>
3

> <PSA>
61.72

> <hb_acceptors>
6

> <hb_donors>
1

> <Collection>
Advanced

> <link>
https://www.enaminestore.com/catalog/Z8206495531

> <ROCS_ShapeQuery>
x0446_0A_x1080_0A_x0929_0A_x0812_0A_x0719_0A_x1140_0A_x0528_0A_x0310_0A

> <ROCS_TanimotoCombo>
0.473 

> <ROCS_ShapeTanimoto>
0.257 

> <ROCS_ColorTanimoto>
0.215 

> <ROCS_RefTversky>
0.239 

> <ROCS_RefColorTversky>
0.254 

> <ROCS_RefTverskyCombo>
0.493 

> <ROCS_FitTversky>
1.413 

> <ROCS_FitColorTversky>
0.587 

> <ROCS_FitTverskyCombo>
2.000 

> <ROCS_ColorScore>
-9.156

> <ROCS_Overlap>
2833.750

> <ROCS_Rank>
56                  

$$$$
untitled-dbase-1158147_186
  -OEChem-02092406493D

 51 55  0     1  0  0  0  0  0999 V2000
    6.1858   11.2793   24.8405 C   0  0  0  0  0  0  0  0  0  0  0  0
    5.5217   12.3350   25.4719 C   0  0  0  0  0  0  0  0  0  0  0  0
    7.4353   13.7451   25.1144 C   0  0  0  0  0  0  0  0  0  0  0  0
   13.2517   10.9475   22.4432 C   0  0  0  0  0  0  0  0  0  0  0  0
    8.0964   12.6785   24.4807 C   0  0  0  0  0  0  0  0  0  0  0  0
   12.3955    9.8748   22.4936 C   0  0  0  0  0  0  0  0  0  0  0  0
    7.4755   11.4271   24.3360 C   0  0  0  0  0  0  0  0  0  0  0  0
    6.1468   13.5694   25.6091 C   0  0  0  0  0  0  0  0  0  0  0  0
    9.3844   12.7878   23.9642 C   0  0  0  0  0  0  0  0  0  0  0  0
   13.0094    8.9760   23.3864 C   0  0  0  0  0  0  0  0  0  0  0  0
    9.3452   10.6329   23.2733 C   0  0  0  0  0  0  0  0  0  0  0  0
   12.8510   14.7936   21.8029 C   0  0  0  0  0  0  0  0  0  0  0  0
   11.8776   15.6557   23.8109 C   0  0  0  0  0  0  0  0  0  0  0  0
   11.0751   16.3742   21.5556 C   0  0  0  0  0  0  0  0  0  0  0  0
   12.3300   16.1009   22.4070 C   0  0  2  0  0  0  0  0  0  0  0  0
   11.5285   14.0550   22.0387 C   0  0  1  0  0  0  0  0  0  0  0  0
   11.3926   14.2154   23.5704 C   0  0  2  0  0  0  0  0  0  0  0  0
   10.5660   14.9595   21.2401 C   0  0  1  0  0  0  0  0  0  0  0  0
   15.4383   11.4620   23.5540 C   0  0  0  0  0  0  0  0  0  0  0  0
   11.0999    9.7238   21.7501 C   0  0  0  0  0  0  0  0  0  0  0  0
    8.0984   10.4004   23.7315 N   0  0  0  0  0  0  0  0  0  0  0  0
   10.0371   11.7809   23.3537 N   0  0  0  0  0  0  0  0  0  0  0  0
   14.1664    9.4376   23.8684 N   0  0  0  0  0  0  0  0  0  0  0  0
   14.2864   10.6380   23.2762 N   0  0  0  0  0  0  0  0  0  0  0  0
   10.0608   13.9957   24.0696 N   0  0  0  0  0  0  0  0  0  0  0  0
    9.9918    9.5511   22.6360 N   0  0  0  0  0  0  0  0  0  0  0  0
    9.2056   14.8071   21.5831 O   0  0  0  0  0  0  0  0  0  0  0  0
    5.3305   14.8695   26.3852 Cl  0  0  0  0  0  0  0  0  0  0  0  0
   12.2974    7.3016   23.8630 Br  0  0  0  0  0  0  0  0  0  0  0  0
    5.6745   10.3231   24.7455 H   0  0  0  0  0  0  0  0  0  0  0  0
    4.5153   12.1747   25.8504 H   0  0  0  0  0  0  0  0  0  0  0  0
    7.9159   14.7145   25.2269 H   0  0  0  0  0  0  0  0  0  0  0  0
   13.2141   11.8815   21.8991 H   0  0  0  0  0  0  0  0  0  0  0  0
   13.1180   14.8824   20.7444 H   0  0  0  0  0  0  0  0  0  0  0  0
   13.6930   14.3669   22.3582 H   0  0  0  0  0  0  0  0  0  0  0  0
   12.7244   15.6515   24.5071 H   0  0  0  0  0  0  0  0  0  0  0  0
   11.1076   16.3167   24.2233 H   0  0  0  0  0  0  0  0  0  0  0  0
   10.3377   16.9961   22.0731 H   0  0  0  0  0  0  0  0  0  0  0  0
   11.3588   16.8812   20.6259 H   0  0  0  0  0  0  0  0  0  0  0  0
   13.0383   16.9316   22.4198 H   0  0  0  0  0  0  0  0  0  0  0  0
   11.5112   13.0113   21.7160 H   0  0  0  0  0  0  0  0  0  0  0  0
   12.0707   13.5165   24.0751 H   0  0  0  0  0  0  0  0  0  0  0  0
   10.6657   14.7662   20.1650 H   0  0  0  0  0  0  0  0  0  0  0  0
   15.2006   12.0957   24.4124 H   0  0  0  0  0  0  0  0  0  0  0  0
   16.2977   10.8234   23.7765 H   0  0  0  0  0  0  0  0  0  0  0  0
   15.6648   12.0741   22.6765 H   0  0  0  0  0  0  0  0  0  0  0  0
   10.9037   10.6073   21.1328 H   0  0  0  0  0  0  0  0  0  0  0  0
   11.1302    8.8587   21.0794 H   0  0  0  0  0  0  0  0  0  0  0  0
    9.5844   14.7673   24.5280 H   0  0  0  0  0  0  0  0  0  0  0  0
    9.6376    8.6344   22.8299 H   0  0  0  0  0  0  0  0  0  0  0  0
    8.7007   15.4576   21.0633 H   0  0  0  0  0  0  0  0  0  0  0  0
  1  2  2  0  0  0  0
  1  7  1  0  0  0  0
  2  8  1  0  0  0  0
  3  5  1  0  0  0  0
  3  8  2  0  0  0  0
  4  6  2  0  0  0  0
  4 24  1  0  0  0  0
  5  7  2  0  0  0  0
  5  9  1  0  0  0  0
  6 10  1  0  0  0  0
  6 20  1  0  0  0  0
  7 21  1  0  0  0  0
  8 28  1  0  0  0  0
  9 22  2  0  0  0  0
  9 25  1  0  0  0  0
 10 23  2  0  0  0  0
 10 29  1  0  0  0  0
 11 21  2  0  0  0  0
 11 22  1  0  0  0  0
 11 26  1  0  0  0  0
 12 15  1  6  0  0  0
 12 16  1  6  0  0  0
 13 15  1  0  0  0  0
 13 17  1  0  0  0  0
 14 15  1  0  0  0  0
 14 18  1  0  0  0  0
 16 17  1  0  0  0  0
 16 18  1  0  0  0  0
 17 25  1  1  0  0  0
 18 27  1  1  0  0  0
 19 24  1  0  0  0  0
 20 26  1  0  0  0  0
 23 24  1  0  0  0  0
  1 30  1  0  0  0  0
  2 31  1  0  0  0  0
  3 32  1  0  0  0  0
  4 33  1  0  0  0  0
 12 34  1  0  0  0  0
 12 35  1  0  0  0  0
 13 36  1  0  0  0  0
 13 37  1  0  0  0  0
 14 38  1  0  0  0  0
 14 39  1  0  0  0  0
 15 40  1  0  0  0  0
 16 41  1  0  0  0  0
 17 42  1  0  0  0  0
 18 43  1  0  0  0  0
 19 44  1  0  0  0  0
 19 45  1  0  0  0  0
 19 46  1  0  0  0  0
 20 47  1  0  0  0  0
 20 48  1  0  0  0  0
 25 49  1  0  0  0  0
 26 50  1  0  0  0  0
 27 51  1  0  0  0  0
M  END
> <idnumber>
Z7684273555

> <heavy_atoms>
29

> <LogS>
-6.238

> <LogP>
4.718

> <rotating_bonds>
5

> <PSA>
87.89

> <hb_acceptors>
6

> <hb_donors>
3

> <Collection>
Advanced

> <link>
https://www.enaminestore.com/catalog/Z7684273555

> <ROCS_ShapeQuery>
x0446_0A_x1080_0A_x0929_0A_x0812_0A_x0719_0A_x1140_0A_x0528_0A_x0310_0A

> <ROCS_TanimotoCombo>
0.473 

> <ROCS_ShapeTanimoto>
0.287 

> <ROCS_ColorTanimoto>
0.186 

> <ROCS_RefTversky>
0.259 

> <ROCS_RefColorTversky>
0.236 

> <ROCS_RefTverskyCombo>
0.495 

> <ROCS_FitTversky>
1.621 

> <ROCS_FitColorTversky>
0.467 

> <ROCS_FitTverskyCombo>
2.088 

> <ROCS_ColorScore>
-8.540

> <ROCS_Overlap>
3059.569

> <ROCS_Rank>
57                  

$$$$
untitled-dbase-324160_93
  -OEChem-02092406493D

 58 63  0     0  0  0  0  0  0999 V2000
   13.0738   14.4413   22.0682 C   0  0  0  0  0  0  0  0  0  0  0  0
   12.6129   15.0609   20.9101 C   0  0  0  0  0  0  0  0  0  0  0  0
   10.7573   15.9833   19.6035 C   0  0  0  0  0  0  0  0  0  0  0  0
   12.1752   14.1187   23.0775 C   0  0  0  0  0  0  0  0  0  0  0  0
    9.4041   16.2656   19.4843 C   0  0  0  0  0  0  0  0  0  0  0  0
   11.2483   15.3601   20.7587 C   0  0  0  0  0  0  0  0  0  0  0  0
    8.0235   12.6236   24.1628 C   0  0  0  0  0  0  0  0  0  0  0  0
    6.9422   13.5047   24.5015 C   0  0  0  0  0  0  0  0  0  0  0  0
   10.3303   15.0356   21.7794 C   0  0  0  0  0  0  0  0  0  0  0  0
   10.8185   14.4162   22.9266 C   0  0  0  0  0  0  0  0  0  0  0  0
    5.7562   12.8151   24.6753 C   0  0  0  0  0  0  0  0  0  0  0  0
    8.5832   15.9106   20.5354 C   0  0  0  0  0  0  0  0  0  0  0  0
    9.3834   12.8334   23.9052 C   0  0  0  0  0  0  0  0  0  0  0  0
    7.5860   11.3063   24.0893 C   0  0  0  0  0  0  0  0  0  0  0  0
    9.6261   10.5699   23.5668 C   0  0  0  0  0  0  0  0  0  0  0  0
    7.0270   14.9910   24.6894 C   0  0  0  0  0  0  0  0  0  0  0  0
    4.4377   13.4383   25.0131 C   0  0  0  0  0  0  0  0  0  0  0  0
    5.6399   15.6515   24.6776 C   0  0  0  0  0  0  0  0  0  0  0  0
    4.6341   14.8700   25.5339 C   0  0  0  0  0  0  0  0  0  0  0  0
   12.8001    8.9006   22.5670 C   0  0  0  0  0  0  0  0  0  0  0  0
   12.3824    9.8559   24.7376 C   0  0  0  0  0  0  0  0  0  0  0  0
   14.2639    9.3110   22.6996 C   0  0  0  0  0  0  0  0  0  0  0  0
   13.8558   10.2448   24.8185 C   0  0  0  0  0  0  0  0  0  0  0  0
    7.1208   16.1949   20.4506 C   0  0  0  0  0  0  0  0  0  0  0  0
   10.5447    9.4425   23.2302 C   0  0  0  0  0  0  0  0  0  0  0  0
    9.0165   15.3082   21.6665 N   0  0  0  0  0  0  0  0  0  0  0  0
   10.1890   11.7928   23.6042 N   0  0  0  0  0  0  0  0  0  0  0  0
    8.3445   10.2329   23.7936 N   0  0  0  0  0  0  0  0  0  0  0  0
   11.9517    9.8241   23.3331 N   0  0  0  0  0  0  0  0  0  0  0  0
   14.6544    9.3249   24.0732 O   0  0  0  0  0  0  0  0  0  0  0  0
    9.9583   14.0800   23.9507 O   0  0  0  0  0  0  0  0  0  0  0  0
    5.9234   11.1418   24.4226 S   0  0  0  0  0  0  0  0  0  0  0  0
   14.1289   14.2119   22.1816 H   0  0  0  0  0  0  0  0  0  0  0  0
   13.3248   15.3092   20.1260 H   0  0  0  0  0  0  0  0  0  0  0  0
   11.4271   16.2520   18.7898 H   0  0  0  0  0  0  0  0  0  0  0  0
   12.5333   13.6348   23.9822 H   0  0  0  0  0  0  0  0  0  0  0  0
    9.0165   16.7481   18.5939 H   0  0  0  0  0  0  0  0  0  0  0  0
    7.5180   15.1937   25.6492 H   0  0  0  0  0  0  0  0  0  0  0  0
    7.6401   15.4440   23.9028 H   0  0  0  0  0  0  0  0  0  0  0  0
    3.8159   13.4637   24.1095 H   0  0  0  0  0  0  0  0  0  0  0  0
    3.9031   12.8474   25.7655 H   0  0  0  0  0  0  0  0  0  0  0  0
    5.7229   16.6813   25.0425 H   0  0  0  0  0  0  0  0  0  0  0  0
    5.2673   15.7056   23.6466 H   0  0  0  0  0  0  0  0  0  0  0  0
    3.6693   15.3895   25.5478 H   0  0  0  0  0  0  0  0  0  0  0  0
    4.9953   14.8378   26.5700 H   0  0  0  0  0  0  0  0  0  0  0  0
   12.5205    8.9203   21.5098 H   0  0  0  0  0  0  0  0  0  0  0  0
   12.6751    7.8777   22.9387 H   0  0  0  0  0  0  0  0  0  0  0  0
   12.2404    8.8721   25.1983 H   0  0  0  0  0  0  0  0  0  0  0  0
   11.7925   10.5876   25.2970 H   0  0  0  0  0  0  0  0  0  0  0  0
   14.9012    8.5886   22.1792 H   0  0  0  0  0  0  0  0  0  0  0  0
   14.4489   10.2969   22.2562 H   0  0  0  0  0  0  0  0  0  0  0  0
   14.0276   11.2626   24.4473 H   0  0  0  0  0  0  0  0  0  0  0  0
   14.1938   10.2111   25.8591 H   0  0  0  0  0  0  0  0  0  0  0  0
    6.5933   15.3468   19.9978 H   0  0  0  0  0  0  0  0  0  0  0  0
    6.6936   16.3807   21.4443 H   0  0  0  0  0  0  0  0  0  0  0  0
    6.9242   17.0903   19.8471 H   0  0  0  0  0  0  0  0  0  0  0  0
   10.3837    8.5881   23.9017 H   0  0  0  0  0  0  0  0  0  0  0  0
   10.3769    9.0793   22.2075 H   0  0  0  0  0  0  0  0  0  0  0  0
  1  2  2  0  0  0  0
  1  4  1  0  0  0  0
  2  6  1  0  0  0  0
  3  5  2  0  0  0  0
  3  6  1  0  0  0  0
  4 10  2  0  0  0  0
  5 12  1  0  0  0  0
  6  9  2  0  0  0  0
  7  8  1  0  0  0  0
  7 13  2  0  0  0  0
  7 14  1  0  0  0  0
  8 11  2  0  0  0  0
  8 16  1  0  0  0  0
  9 10  1  0  0  0  0
  9 26  1  0  0  0  0
 10 31  1  0  0  0  0
 11 17  1  0  0  0  0
 11 32  1  0  0  0  0
 12 24  1  0  0  0  0
 12 26  2  0  0  0  0
 13 27  1  0  0  0  0
 13 31  1  0  0  0  0
 14 28  2  0  0  0  0
 14 32  1  0  0  0  0
 15 25  1  0  0  0  0
 15 27  2  0  0  0  0
 15 28  1  0  0  0  0
 16 18  1  0  0  0  0
 17 19  1  0  0  0  0
 18 19  1  0  0  0  0
 20 22  1  0  0  0  0
 20 29  1  0  0  0  0
 21 23  1  0  0  0  0
 21 29  1  0  0  0  0
 22 30  1  0  0  0  0
 23 30  1  0  0  0  0
 25 29  1  0  0  0  0
  1 33  1  0  0  0  0
  2 34  1  0  0  0  0
  3 35  1  0  0  0  0
  4 36  1  0  0  0  0
  5 37  1  0  0  0  0
 16 38  1  0  0  0  0
 16 39  1  0  0  0  0
 17 40  1  0  0  0  0
 17 41  1  0  0  0  0
 18 42  1  0  0  0  0
 18 43  1  0  0  0  0
 19 44  1  0  0  0  0
 19 45  1  0  0  0  0
 20 46  1  0  0  0  0
 20 47  1  0  0  0  0
 21 48  1  0  0  0  0
 21 49  1  0  0  0  0
 22 50  1  0  0  0  0
 22 51  1  0  0  0  0
 23 52  1  0  0  0  0
 23 53  1  0  0  0  0
 24 54  1  0  0  0  0
 24 55  1  0  0  0  0
 24 56  1  0  0  0  0
 25 57  1  0  0  0  0
 25 58  1  0  0  0  0
M  END
> <idnumber>
Z31146723

> <heavy_atoms>
32

> <LogS>
-6.11

> <LogP>
4.689

> <rotating_bonds>
4

> <PSA>
60.37

> <hb_acceptors>
5

> <hb_donors>
0

> <Collection>
Legacy

> <link>
https://www.enaminestore.com/catalog/Z31146723

> <ROCS_ShapeQuery>
x0446_0A_x1080_0A_x0929_0A_x0812_0A_x0719_0A_x1140_0A_x0528_0A_x0310_0A

> <ROCS_TanimotoCombo>
0.472 

> <ROCS_ShapeTanimoto>
0.274 

> <ROCS_ColorTanimoto>
0.198 

> <ROCS_RefTversky>
0.252 

> <ROCS_RefColorTversky>
0.227 

> <ROCS_RefTverskyCombo>
0.479 

> <ROCS_FitTversky>
1.469 

> <ROCS_FitColorTversky>
0.612 

> <ROCS_FitTverskyCombo>
2.081 

> <ROCS_ColorScore>
-8.149

> <ROCS_Overlap>
2983.913

> <ROCS_Rank>
58                  

$$$$
untitled-dbase-326129_22
  -OEChem-02092406493D

 44 48  0     0  0  0  0  0  0999 V2000
   13.0866   15.0718   22.3884 C   0  0  0  0  0  0  0  0  0  0  0  0
   12.6652   15.5741   21.1573 C   0  0  0  0  0  0  0  0  0  0  0  0
   12.0160    7.6673   22.7394 C   0  0  0  0  0  0  0  0  0  0  0  0
   10.9643    8.5656   22.8820 C   0  0  0  0  0  0  0  0  0  0  0  0
   12.1468   14.6332   23.3213 C   0  0  0  0  0  0  0  0  0  0  0  0
   11.3041   15.6380   20.8590 C   0  0  0  0  0  0  0  0  0  0  0  0
   13.2470    8.0208   23.2679 C   0  0  0  0  0  0  0  0  0  0  0  0
   12.4416   10.0320   24.0325 C   0  0  0  0  0  0  0  0  0  0  0  0
    8.1648   12.5350   24.0042 C   0  0  0  0  0  0  0  0  0  0  0  0
   11.1728    9.7728   23.5396 C   0  0  0  0  0  0  0  0  0  0  0  0
    6.9380   13.2192   24.1653 C   0  0  0  0  0  0  0  0  0  0  0  0
   10.7857   14.6970   23.0230 C   0  0  0  0  0  0  0  0  0  0  0  0
   10.3643   15.1994   21.7919 C   0  0  0  0  0  0  0  0  0  0  0  0
    5.8655   12.3712   24.2139 C   0  0  0  0  0  0  0  0  0  0  0  0
    9.4981   12.9394   23.9033 C   0  0  0  0  0  0  0  0  0  0  0  0
    7.9280   11.1593   23.9387 C   0  0  0  0  0  0  0  0  0  0  0  0
   10.1029   10.7246   23.7030 C   0  0  0  0  0  0  0  0  0  0  0  0
    6.5078   14.6332   24.3002 C   0  0  0  0  0  0  0  0  0  0  0  0
    4.5624   13.0540   24.3841 C   0  0  0  0  0  0  0  0  0  0  0  0
    4.9645   14.5317   24.0859 C   0  0  0  0  0  0  0  0  0  0  0  0
    8.6913   15.7942   20.2098 C   0  0  0  0  0  0  0  0  0  0  0  0
   13.4878    9.1841   23.9131 N   0  0  0  0  0  0  0  0  0  0  0  0
   10.4753   12.0197   23.7510 N   0  0  0  0  0  0  0  0  0  0  0  0
    8.8653   10.2032   23.7878 N   0  0  0  0  0  0  0  0  0  0  0  0
    9.8666   14.2613   23.9544 O   0  0  0  0  0  0  0  0  0  0  0  0
    9.0379   15.2680   21.4893 O   0  0  0  0  0  0  0  0  0  0  0  0
    6.2609   10.7534   24.0736 S   0  0  0  0  0  0  0  0  0  0  0  0
   14.1466   15.0219   22.6205 H   0  0  0  0  0  0  0  0  0  0  0  0
   13.3967   15.9156   20.4311 H   0  0  0  0  0  0  0  0  0  0  0  0
   11.8771    6.7199   22.2314 H   0  0  0  0  0  0  0  0  0  0  0  0
    9.9883    8.3117   22.4759 H   0  0  0  0  0  0  0  0  0  0  0  0
   12.4817   14.2427   24.2785 H   0  0  0  0  0  0  0  0  0  0  0  0
   10.9826   16.0319   19.8988 H   0  0  0  0  0  0  0  0  0  0  0  0
   14.0997    7.3548   23.1826 H   0  0  0  0  0  0  0  0  0  0  0  0
   12.6696   10.9558   24.5566 H   0  0  0  0  0  0  0  0  0  0  0  0
    6.7309   15.0068   25.3051 H   0  0  0  0  0  0  0  0  0  0  0  0
    6.9674   15.2905   23.5572 H   0  0  0  0  0  0  0  0  0  0  0  0
    3.7946   12.7042   23.6888 H   0  0  0  0  0  0  0  0  0  0  0  0
    4.2016   12.9546   25.4130 H   0  0  0  0  0  0  0  0  0  0  0  0
    4.4105   15.2457   24.7031 H   0  0  0  0  0  0  0  0  0  0  0  0
    4.7358   14.7571   23.0357 H   0  0  0  0  0  0  0  0  0  0  0  0
    7.6044   15.7933   20.0968 H   0  0  0  0  0  0  0  0  0  0  0  0
    9.1502   15.1843   19.4275 H   0  0  0  0  0  0  0  0  0  0  0  0
    9.0623   16.8191   20.1346 H   0  0  0  0  0  0  0  0  0  0  0  0
  1  2  1  0  0  0  0
  1  5  2  0  0  0  0
  2  6  2  0  0  0  0
  3  4  2  0  0  0  0
  3  7  1  0  0  0  0
  4 10  1  0  0  0  0
  5 12  1  0  0  0  0
  6 13  1  0  0  0  0
  7 22  2  0  0  0  0
  8 10  2  0  0  0  0
  8 22  1  0  0  0  0
  9 11  1  0  0  0  0
  9 15  2  0  0  0  0
  9 16  1  0  0  0  0
 10 17  1  0  0  0  0
 11 14  2  0  0  0  0
 11 18  1  0  0  0  0
 12 13  2  0  0  0  0
 12 25  1  0  0  0  0
 13 26  1  0  0  0  0
 14 19  1  0  0  0  0
 14 27  1  0  0  0  0
 15 23  1  0  0  0  0
 15 25  1  0  0  0  0
 16 24  2  0  0  0  0
 16 27  1  0  0  0  0
 17 23  2  0  0  0  0
 17 24  1  0  0  0  0
 18 20  1  0  0  0  0
 19 20  1  0  0  0  0
 21 26  1  0  0  0  0
  1 28  1  0  0  0  0
  2 29  1  0  0  0  0
  3 30  1  0  0  0  0
  4 31  1  0  0  0  0
  5 32  1  0  0  0  0
  6 33  1  0  0  0  0
  7 34  1  0  0  0  0
  8 35  1  0  0  0  0
 18 36  1  0  0  0  0
 18 37  1  0  0  0  0
 19 38  1  0  0  0  0
 19 39  1  0  0  0  0
 20 40  1  0  0  0  0
 20 41  1  0  0  0  0
 21 42  1  0  0  0  0
 21 43  1  0  0  0  0
 21 44  1  0  0  0  0
M  END
> <idnumber>
Z31211743

> <heavy_atoms>
27

> <LogS>
-6.545

> <LogP>
4.257

> <rotating_bonds>
4

> <PSA>
57.13

> <hb_acceptors>
4

> <hb_donors>
0

> <Collection>
Legacy

> <link>
https://www.enaminestore.com/catalog/Z31211743

> <ROCS_ShapeQuery>
x0446_0A_x1080_0A_x0929_0A_x0812_0A_x0719_0A_x1140_0A_x0528_0A_x0310_0A

> <ROCS_TanimotoCombo>
0.472 

> <ROCS_ShapeTanimoto>
0.260 

> <ROCS_ColorTanimoto>
0.212 

> <ROCS_RefTversky>
0.238 

> <ROCS_RefColorTversky>
0.231 

> <ROCS_RefTverskyCombo>
0.469 

> <ROCS_FitTversky>
1.548 

> <ROCS_FitColorTversky>
0.723 

> <ROCS_FitTverskyCombo>
2.271 

> <ROCS_ColorScore>
-8.264

> <ROCS_Overlap>
2819.732

> <ROCS_Rank>
59                  

$$$$
untitled-dbase-512262_33
  -OEChem-02092406493D

 43 46  0     0  0  0  0  0  0999 V2000
    5.7970   12.9559   25.4980 C   0  0  0  0  0  0  0  0  0  0  0  0
    5.5473   11.5920   25.6012 C   0  0  0  0  0  0  0  0  0  0  0  0
    6.9707   13.3951   24.8934 C   0  0  0  0  0  0  0  0  0  0  0  0
   13.0163   14.2839   22.9533 C   0  0  0  0  0  0  0  0  0  0  0  0
    6.4710   10.6704   25.0996 C   0  0  0  0  0  0  0  0  0  0  0  0
   11.7997   13.9910   23.5694 C   0  0  0  0  0  0  0  0  0  0  0  0
   11.8483   15.5068   21.2278 C   0  0  0  0  0  0  0  0  0  0  0  0
    7.8946   12.4620   24.3916 C   0  0  0  0  0  0  0  0  0  0  0  0
   13.0407   15.0419   21.7826 C   0  0  0  0  0  0  0  0  0  0  0  0
    7.6536   11.0819   24.4897 C   0  0  0  0  0  0  0  0  0  0  0  0
   10.6073   14.4560   23.0147 C   0  0  0  0  0  0  0  0  0  0  0  0
   10.6316   15.2139   21.8439 C   0  0  0  0  0  0  0  0  0  0  0  0
    9.0862   12.8345   23.7760 C   0  0  0  0  0  0  0  0  0  0  0  0
    9.6484   10.6683   23.4382 C   0  0  0  0  0  0  0  0  0  0  0  0
   15.3198   16.8925   19.0917 C   0  0  0  0  0  0  0  0  0  0  0  0
   15.0692   17.8415   20.2456 C   0  0  0  0  0  0  0  0  0  0  0  0
   14.3596   15.3616   21.1161 C   0  0  0  0  0  0  0  0  0  0  0  0
    8.8301   14.8284   20.3400 C   0  0  0  0  0  0  0  0  0  0  0  0
   10.6162    9.6627   22.9130 C   0  0  0  0  0  0  0  0  0  0  0  0
    8.5302   10.1808   24.0129 N   0  0  0  0  0  0  0  0  0  0  0  0
    9.9855   11.9594   23.2881 N   0  0  0  0  0  0  0  0  0  0  0  0
    9.4101   14.1591   23.6340 O   0  0  0  0  0  0  0  0  0  0  0  0
    9.4736   15.6728   21.2923 O   0  0  0  0  0  0  0  0  0  0  0  0
   10.2162    8.3695   23.0968 F   0  0  0  0  0  0  0  0  0  0  0  0
   10.8487    9.7759   21.5717 F   0  0  0  0  0  0  0  0  0  0  0  0
   11.8423    9.7541   23.5059 F   0  0  0  0  0  0  0  0  0  0  0  0
   14.2146   15.4741   19.3012 S   0  0  0  0  0  0  0  0  0  0  0  0
   15.1290   16.8785   21.7790 S   0  0  0  0  0  0  0  0  0  0  0  0
    5.0819   13.6735   25.8882 H   0  0  0  0  0  0  0  0  0  0  0  0
    4.6337   11.2402   26.0717 H   0  0  0  0  0  0  0  0  0  0  0  0
    7.1519   14.4643   24.8205 H   0  0  0  0  0  0  0  0  0  0  0  0
   13.9404   13.9189   23.3935 H   0  0  0  0  0  0  0  0  0  0  0  0
    6.2526    9.6082   25.1936 H   0  0  0  0  0  0  0  0  0  0  0  0
   11.7879   13.3998   24.4809 H   0  0  0  0  0  0  0  0  0  0  0  0
   11.8645   16.0983   20.3156 H   0  0  0  0  0  0  0  0  0  0  0  0
   15.1193   17.3803   18.1331 H   0  0  0  0  0  0  0  0  0  0  0  0
   16.3577   16.5420   19.0776 H   0  0  0  0  0  0  0  0  0  0  0  0
   15.8271   18.6301   20.2744 H   0  0  0  0  0  0  0  0  0  0  0  0
   14.0889   18.3241   20.1639 H   0  0  0  0  0  0  0  0  0  0  0  0
   15.0549   14.5072   21.3480 H   0  0  0  0  0  0  0  0  0  0  0  0
    7.9196   15.3128   19.9789 H   0  0  0  0  0  0  0  0  0  0  0  0
    8.5856   13.8710   20.8070 H   0  0  0  0  0  0  0  0  0  0  0  0
    9.5078   14.6591   19.4998 H   0  0  0  0  0  0  0  0  0  0  0  0
  1  2  1  0  0  0  0
  1  3  2  0  0  0  0
  2  5  2  0  0  0  0
  3  8  1  0  0  0  0
  4  6  2  0  0  0  0
  4  9  1  0  0  0  0
  5 10  1  0  0  0  0
  6 11  1  0  0  0  0
  7  9  2  0  0  0  0
  7 12  1  0  0  0  0
  8 10  1  0  0  0  0
  8 13  2  0  0  0  0
  9 17  1  0  0  0  0
 10 20  2  0  0  0  0
 11 12  2  0  0  0  0
 11 22  1  0  0  0  0
 12 23  1  0  0  0  0
 13 21  1  0  0  0  0
 13 22  1  0  0  0  0
 14 19  1  0  0  0  0
 14 20  1  0  0  0  0
 14 21  2  0  0  0  0
 15 16  1  0  0  0  0
 15 27  1  0  0  0  0
 16 28  1  0  0  0  0
 17 27  1  0  0  0  0
 17 28  1  0  0  0  0
 18 23  1  0  0  0  0
 19 24  1  0  0  0  0
 19 25  1  0  0  0  0
 19 26  1  0  0  0  0
  1 29  1  0  0  0  0
  2 30  1  0  0  0  0
  3 31  1  0  0  0  0
  4 32  1  0  0  0  0
  5 33  1  0  0  0  0
  6 34  1  0  0  0  0
  7 35  1  0  0  0  0
 15 36  1  0  0  0  0
 15 37  1  0  0  0  0
 16 38  1  0  0  0  0
 16 39  1  0  0  0  0
 17 40  1  0  0  0  0
 18 41  1  0  0  0  0
 18 42  1  0  0  0  0
 18 43  1  0  0  0  0
M  END
> <idnumber>
Z86334835

> <heavy_atoms>
28

> <LogS>
-6.88

> <LogP>
4.202

> <rotating_bonds>
5

> <PSA>
44.24

> <hb_acceptors>
3

> <hb_donors>
0

> <Collection>
Legacy

> <link>
https://www.enaminestore.com/catalog/Z86334835

> <ROCS_ShapeQuery>
x0446_0A_x1080_0A_x0929_0A_x0812_0A_x0719_0A_x1140_0A_x0528_0A_x0310_0A

> <ROCS_TanimotoCombo>
0.472 

> <ROCS_ShapeTanimoto>
0.275 

> <ROCS_ColorTanimoto>
0.198 

> <ROCS_RefTversky>
0.249 

> <ROCS_RefColorTversky>
0.209 

> <ROCS_RefTverskyCombo>
0.458 

> <ROCS_FitTversky>
1.608 

> <ROCS_FitColorTversky>
0.787 

> <ROCS_FitTverskyCombo>
2.395 

> <ROCS_ColorScore>
-7.460

> <ROCS_Overlap>
2942.469

> <ROCS_Rank>
60                  

$$$$
untitled-dbase-471612_123
  -OEChem-02092406493D

 51 54  0     0  0  0  0  0  0999 V2000
   12.8111   15.1980   21.2135 C   0  0  0  0  0  0  0  0  0  0  0  0
   11.4750   14.9709   20.8836 C   0  0  0  0  0  0  0  0  0  0  0  0
   12.3335   14.6576   23.5194 C   0  0  0  0  0  0  0  0  0  0  0  0
    8.1163   12.6805   24.2702 C   0  0  0  0  0  0  0  0  0  0  0  0
   13.2404   15.0413   22.5314 C   0  0  0  0  0  0  0  0  0  0  0  0
    7.0842   13.5825   24.6794 C   0  0  0  0  0  0  0  0  0  0  0  0
   10.5682   14.5872   21.8715 C   0  0  0  0  0  0  0  0  0  0  0  0
   10.9974   14.4305   23.1894 C   0  0  0  0  0  0  0  0  0  0  0  0
    5.8561   12.9663   24.7842 C   0  0  0  0  0  0  0  0  0  0  0  0
    9.4854   12.8428   24.0351 C   0  0  0  0  0  0  0  0  0  0  0  0
    7.6091   11.4014   24.0818 C   0  0  0  0  0  0  0  0  0  0  0  0
    9.6120   10.6062   23.5047 C   0  0  0  0  0  0  0  0  0  0  0  0
   12.7122    8.8698   22.3771 C   0  0  0  0  0  0  0  0  0  0  0  0
   12.3199    9.6552   24.6193 C   0  0  0  0  0  0  0  0  0  0  0  0
   14.1922    9.1982   22.5514 C   0  0  0  0  0  0  0  0  0  0  0  0
   13.8089    9.9662   24.7404 C   0  0  0  0  0  0  0  0  0  0  0  0
   14.6692   15.2822   22.8830 C   0  0  0  0  0  0  0  0  0  0  0  0
    7.3007   15.0242   24.9624 C   0  0  0  0  0  0  0  0  0  0  0  0
    4.5535   13.5508   25.1755 C   0  0  0  0  0  0  0  0  0  0  0  0
   10.4785    9.4586   23.0731 C   0  0  0  0  0  0  0  0  0  0  0  0
   10.2380   11.7907   23.6481 N   0  0  0  0  0  0  0  0  0  0  0  0
    8.3124   10.3183   23.6974 N   0  0  0  0  0  0  0  0  0  0  0  0
   11.9007    9.7635   23.2151 N   0  0  0  0  0  0  0  0  0  0  0  0
    9.2101   14.3601   21.5167 N   0  3  0  0  0  0  0  0  0  0  0  0
    8.8599   13.2086   21.1652 O   0  5  0  0  0  0  0  0  0  0  0  0
    8.4026   15.3181   21.5653 O   0  0  0  0  0  0  0  0  0  0  0  0
   14.5706    9.0767   23.9231 O   0  0  0  0  0  0  0  0  0  0  0  0
   10.1192   14.0524   24.1831 O   0  0  0  0  0  0  0  0  0  0  0  0
    5.9361   11.3035   24.3913 S   0  0  0  0  0  0  0  0  0  0  0  0
   13.5111   15.4958   20.4373 H   0  0  0  0  0  0  0  0  0  0  0  0
   11.1545   15.0967   19.8522 H   0  0  0  0  0  0  0  0  0  0  0  0
   12.6663   14.5345   24.5472 H   0  0  0  0  0  0  0  0  0  0  0  0
   12.4425    8.9897   21.3216 H   0  0  0  0  0  0  0  0  0  0  0  0
   12.5359    7.8229   22.6566 H   0  0  0  0  0  0  0  0  0  0  0  0
   12.1266    8.6427   24.9971 H   0  0  0  0  0  0  0  0  0  0  0  0
   11.7579   10.3627   25.2397 H   0  0  0  0  0  0  0  0  0  0  0  0
   14.7999    8.4937   21.9743 H   0  0  0  0  0  0  0  0  0  0  0  0
   14.4266   10.2085   22.1949 H   0  0  0  0  0  0  0  0  0  0  0  0
   14.0311   11.0028   24.4585 H   0  0  0  0  0  0  0  0  0  0  0  0
   14.1358    9.8281   25.7759 H   0  0  0  0  0  0  0  0  0  0  0  0
   14.8229   16.3325   23.1600 H   0  0  0  0  0  0  0  0  0  0  0  0
   14.9849   14.6512   23.7241 H   0  0  0  0  0  0  0  0  0  0  0  0
   15.3327   15.0440   22.0412 H   0  0  0  0  0  0  0  0  0  0  0  0
    7.1616   15.6237   24.0518 H   0  0  0  0  0  0  0  0  0  0  0  0
    6.6030   15.3958   25.7273 H   0  0  0  0  0  0  0  0  0  0  0  0
    8.3143   15.2135   25.3460 H   0  0  0  0  0  0  0  0  0  0  0  0
    4.0119   13.9288   24.2949 H   0  0  0  0  0  0  0  0  0  0  0  0
    3.9084   12.8131   25.6791 H   0  0  0  0  0  0  0  0  0  0  0  0
    4.6758   14.3869   25.8828 H   0  0  0  0  0  0  0  0  0  0  0  0
   10.2635    8.5662   23.6711 H   0  0  0  0  0  0  0  0  0  0  0  0
   10.2946    9.1998   22.0251 H   0  0  0  0  0  0  0  0  0  0  0  0
  1  2  2  0  0  0  0
  1  5  1  0  0  0  0
  2  7  1  0  0  0  0
  3  5  2  0  0  0  0
  3  8  1  0  0  0  0
  4  6  1  0  0  0  0
  4 10  1  0  0  0  0
  4 11  2  0  0  0  0
  5 17  1  0  0  0  0
  6  9  2  0  0  0  0
  6 18  1  0  0  0  0
  7  8  2  0  0  0  0
  7 24  1  0  0  0  0
  8 28  1  0  0  0  0
  9 19  1  0  0  0  0
  9 29  1  0  0  0  0
 10 21  2  0  0  0  0
 10 28  1  0  0  0  0
 11 22  1  0  0  0  0
 11 29  1  0  0  0  0
 12 20  1  0  0  0  0
 12 21  1  0  0  0  0
 12 22  2  0  0  0  0
 13 15  1  0  0  0  0
 13 23  1  0  0  0  0
 14 16  1  0  0  0  0
 14 23  1  0  0  0  0
 15 27  1  0  0  0  0
 16 27  1  0  0  0  0
 20 23  1  0  0  0  0
 24 25  1  0  0  0  0
 24 26  2  0  0  0  0
  1 30  1  0  0  0  0
  2 31  1  0  0  0  0
  3 32  1  0  0  0  0
 13 33  1  0  0  0  0
 13 34  1  0  0  0  0
 14 35  1  0  0  0  0
 14 36  1  0  0  0  0
 15 37  1  0  0  0  0
 15 38  1  0  0  0  0
 16 39  1  0  0  0  0
 16 40  1  0  0  0  0
 17 41  1  0  0  0  0
 17 42  1  0  0  0  0
 17 43  1  0  0  0  0
 18 44  1  0  0  0  0
 18 45  1  0  0  0  0
 18 46  1  0  0  0  0
 19 47  1  0  0  0  0
 19 48  1  0  0  0  0
 19 49  1  0  0  0  0
 20 50  1  0  0  0  0
 20 51  1  0  0  0  0
M  CHG  2  24   1  25  -1
M  END
> <idnumber>
Z64689816

> <heavy_atoms>
29

> <LogS>
-5.91

> <LogP>
3.641

> <rotating_bonds>
5

> <PSA>
90.62

> <hb_acceptors>
6

> <hb_donors>
0

> <Collection>
Legacy

> <link>
https://www.enaminestore.com/catalog/Z64689816

> <ROCS_ShapeQuery>
x0446_0A_x1080_0A_x0929_0A_x0812_0A_x0719_0A_x1140_0A_x0528_0A_x0310_0A

> <ROCS_TanimotoCombo>
0.472 

> <ROCS_ShapeTanimoto>
0.281 

> <ROCS_ColorTanimoto>
0.191 

> <ROCS_RefTversky>
0.254 

> <ROCS_RefColorTversky>
0.215 

> <ROCS_RefTverskyCombo>
0.470 

> <ROCS_FitTversky>
1.604 

> <ROCS_FitColorTversky>
0.626 

> <ROCS_FitTverskyCombo>
2.229 

> <ROCS_ColorScore>
-7.729

> <ROCS_Overlap>
3010.184

> <ROCS_Rank>
61                  

$$$$
untitled-dbase-511737_17
  -OEChem-02092406493D

 41 43  0     0  0  0  0  0  0999 V2000
    5.7964   12.9562   25.4962 C   0  0  0  0  0  0  0  0  0  0  0  0
    5.5468   11.5924   25.5998 C   0  0  0  0  0  0  0  0  0  0  0  0
    6.9703   13.3953   24.8918 C   0  0  0  0  0  0  0  0  0  0  0  0
   13.0165   14.2838   22.9537 C   0  0  0  0  0  0  0  0  0  0  0  0
    6.4708   10.6706   25.0990 C   0  0  0  0  0  0  0  0  0  0  0  0
   11.7996   13.9911   23.5693 C   0  0  0  0  0  0  0  0  0  0  0  0
   11.8492   15.5059   21.2271 C   0  0  0  0  0  0  0  0  0  0  0  0
    7.8945   12.4620   24.3906 C   0  0  0  0  0  0  0  0  0  0  0  0
   13.0413   15.0412   21.7826 C   0  0  0  0  0  0  0  0  0  0  0  0
    7.6535   11.0819   24.4893 C   0  0  0  0  0  0  0  0  0  0  0  0
   10.6074   14.4557   23.0138 C   0  0  0  0  0  0  0  0  0  0  0  0
   10.6322   15.2131   21.8427 C   0  0  0  0  0  0  0  0  0  0  0  0
    9.0863   12.8345   23.7753 C   0  0  0  0  0  0  0  0  0  0  0  0
    9.6488   10.6682   23.4386 C   0  0  0  0  0  0  0  0  0  0  0  0
   14.3106   15.3485   21.1424 C   0  0  0  0  0  0  0  0  0  0  0  0
   15.5264   15.3096   21.7336 C   0  0  0  0  0  0  0  0  0  0  0  0
   16.8059   15.6431   21.0375 C   0  0  0  0  0  0  0  0  0  0  0  0
    9.0150   16.9523   21.7180 C   0  0  0  0  0  0  0  0  0  0  0  0
   10.6169    9.6624   22.9142 C   0  0  0  0  0  0  0  0  0  0  0  0
    8.5304   10.1807   24.0132 N   0  0  0  0  0  0  0  0  0  0  0  0
    9.9858   11.9592   23.2881 N   0  0  0  0  0  0  0  0  0  0  0  0
    9.4100   14.1590   23.6329 O   0  0  0  0  0  0  0  0  0  0  0  0
    9.4740   15.6713   21.2909 O   0  0  0  0  0  0  0  0  0  0  0  0
   10.2169    8.3693   23.0984 F   0  0  0  0  0  0  0  0  0  0  0  0
   10.8498    9.7751   21.5729 F   0  0  0  0  0  0  0  0  0  0  0  0
   11.8427    9.7542   23.5075 F   0  0  0  0  0  0  0  0  0  0  0  0
    5.0811   13.6739   25.8858 H   0  0  0  0  0  0  0  0  0  0  0  0
    4.6331   11.2407   26.0701 H   0  0  0  0  0  0  0  0  0  0  0  0
    7.1514   14.4644   24.8184 H   0  0  0  0  0  0  0  0  0  0  0  0
   13.9376   13.9157   23.3990 H   0  0  0  0  0  0  0  0  0  0  0  0
    6.2524    9.6085   25.1933 H   0  0  0  0  0  0  0  0  0  0  0  0
   11.7872   13.4004   24.4813 H   0  0  0  0  0  0  0  0  0  0  0  0
   11.8594   16.0976   20.3144 H   0  0  0  0  0  0  0  0  0  0  0  0
   14.2667   15.6560   20.0915 H   0  0  0  0  0  0  0  0  0  0  0  0
   15.6171   15.0334   22.7803 H   0  0  0  0  0  0  0  0  0  0  0  0
   17.2349   14.7393   20.5943 H   0  0  0  0  0  0  0  0  0  0  0  0
   16.6163   16.3628   20.2352 H   0  0  0  0  0  0  0  0  0  0  0  0
   17.5482   16.0761   21.7155 H   0  0  0  0  0  0  0  0  0  0  0  0
    8.0836   17.1972   21.2017 H   0  0  0  0  0  0  0  0  0  0  0  0
    9.7756   17.7053   21.4966 H   0  0  0  0  0  0  0  0  0  0  0  0
    8.8353   16.9246   22.7953 H   0  0  0  0  0  0  0  0  0  0  0  0
  1  2  1  0  0  0  0
  1  3  2  0  0  0  0
  2  5  2  0  0  0  0
  3  8  1  0  0  0  0
  4  6  2  0  0  0  0
  4  9  1  0  0  0  0
  5 10  1  0  0  0  0
  6 11  1  0  0  0  0
  7  9  2  0  0  0  0
  7 12  1  0  0  0  0
  8 10  1  0  0  0  0
  8 13  2  0  0  0  0
  9 15  1  0  0  0  0
 10 20  2  0  0  0  0
 11 12  2  0  0  0  0
 11 22  1  0  0  0  0
 12 23  1  0  0  0  0
 13 21  1  0  0  0  0
 13 22  1  0  0  0  0
 14 19  1  0  0  0  0
 14 20  1  0  0  0  0
 14 21  2  0  0  0  0
 15 16  2  0  0  0  0
 16 17  1  4  0  0  0
 18 23  1  0  0  0  0
 19 24  1  0  0  0  0
 19 25  1  0  0  0  0
 19 26  1  0  0  0  0
  1 27  1  0  0  0  0
  2 28  1  0  0  0  0
  3 29  1  0  0  0  0
  4 30  1  0  0  0  0
  5 31  1  0  0  0  0
  6 32  1  0  0  0  0
  7 33  1  0  0  0  0
 15 34  1  0  0  0  0
 16 35  1  0  0  0  0
 17 36  1  0  0  0  0
 17 37  1  0  0  0  0
 17 38  1  0  0  0  0
 18 39  1  0  0  0  0
 18 40  1  0  0  0  0
 18 41  1  0  0  0  0
M  END
> <idnumber>
Z86302940

> <heavy_atoms>
26

> <LogS>
-6.57

> <LogP>
4.942

> <rotating_bonds>
5

> <PSA>
44.24

> <hb_acceptors>
3

> <hb_donors>
0

> <Collection>
Legacy

> <link>
https://www.enaminestore.com/catalog/Z86302940

> <ROCS_ShapeQuery>
x0446_0A_x1080_0A_x0929_0A_x0812_0A_x0719_0A_x1140_0A_x0528_0A_x0310_0A

> <ROCS_TanimotoCombo>
0.472 

> <ROCS_ShapeTanimoto>
0.275 

> <ROCS_ColorTanimoto>
0.198 

> <ROCS_RefTversky>
0.248 

> <ROCS_RefColorTversky>
0.209 

> <ROCS_RefTverskyCombo>
0.456 

> <ROCS_FitTversky>
1.658 

> <ROCS_FitColorTversky>
0.787 

> <ROCS_FitTverskyCombo>
2.445 

> <ROCS_ColorScore>
-7.460

> <ROCS_Overlap>
2927.866

> <ROCS_Rank>
62                  

$$$$
untitled-dbase-512034_7
  -OEChem-02092406493D

 37 39  0     0  0  0  0  0  0999 V2000
    5.8100   13.3197   24.5322 C   0  0  0  0  0  0  0  0  0  0  0  0
    5.3817   11.9983   24.4703 C   0  0  0  0  0  0  0  0  0  0  0  0
    7.1600   13.6122   24.3649 C   0  0  0  0  0  0  0  0  0  0  0  0
   13.1450   14.5777   22.2695 C   0  0  0  0  0  0  0  0  0  0  0  0
    6.3036   10.9726   24.2411 C   0  0  0  0  0  0  0  0  0  0  0  0
   12.2178   14.2206   23.2485 C   0  0  0  0  0  0  0  0  0  0  0  0
   11.3494   15.3554   20.8524 C   0  0  0  0  0  0  0  0  0  0  0  0
    8.0807   12.5752   24.1349 C   0  0  0  0  0  0  0  0  0  0  0  0
   12.7108   15.1452   21.0715 C   0  0  0  0  0  0  0  0  0  0  0  0
    7.6603   11.2367   24.0701 C   0  0  0  0  0  0  0  0  0  0  0  0
   10.8564   14.4308   23.0294 C   0  0  0  0  0  0  0  0  0  0  0  0
   10.4221   14.9982   21.8313 C   0  0  0  0  0  0  0  0  0  0  0  0
    9.4433   12.7996   23.9592 C   0  0  0  0  0  0  0  0  0  0  0  0
    9.8261   10.5844   23.6962 C   0  0  0  0  0  0  0  0  0  0  0  0
   13.7023   15.5294   20.0258 C   0  0  0  0  0  0  0  0  0  0  0  0
    8.5591   16.4652   22.0121 C   0  0  0  0  0  0  0  0  0  0  0  0
   10.7872    9.4701   23.4541 C   0  0  0  0  0  0  0  0  0  0  0  0
    8.5322   10.2371   23.8503 N   0  0  0  0  0  0  0  0  0  0  0  0
   10.3431   11.8229   23.7378 N   0  0  0  0  0  0  0  0  0  0  0  0
    9.9491   14.0729   24.0060 O   0  0  0  0  0  0  0  0  0  0  0  0
    9.0951   15.2076   21.6056 O   0  0  0  0  0  0  0  0  0  0  0  0
   10.1998    8.2372   23.4240 F   0  0  0  0  0  0  0  0  0  0  0  0
   11.4574    9.5740   22.2684 F   0  0  0  0  0  0  0  0  0  0  0  0
   11.7534    9.3917   24.4150 F   0  0  0  0  0  0  0  0  0  0  0  0
    5.0963   14.1177   24.7116 H   0  0  0  0  0  0  0  0  0  0  0  0
    4.3298   11.7607   24.5998 H   0  0  0  0  0  0  0  0  0  0  0  0
    7.4795   14.6498   24.4162 H   0  0  0  0  0  0  0  0  0  0  0  0
   14.2037   14.4118   22.4495 H   0  0  0  0  0  0  0  0  0  0  0  0
    5.9430    9.9466   24.1981 H   0  0  0  0  0  0  0  0  0  0  0  0
   12.5628   13.7787   24.1791 H   0  0  0  0  0  0  0  0  0  0  0  0
   11.0084   15.7980   19.9196 H   0  0  0  0  0  0  0  0  0  0  0  0
   13.8803   14.6907   19.3416 H   0  0  0  0  0  0  0  0  0  0  0  0
   13.3505   16.3881   19.4394 H   0  0  0  0  0  0  0  0  0  0  0  0
   14.6608   15.8223   20.4740 H   0  0  0  0  0  0  0  0  0  0  0  0
    7.4930   16.5016   21.7748 H   0  0  0  0  0  0  0  0  0  0  0  0
    9.0860   17.2711   21.4951 H   0  0  0  0  0  0  0  0  0  0  0  0
    8.6940   16.5773   23.0905 H   0  0  0  0  0  0  0  0  0  0  0  0
  1  2  1  0  0  0  0
  1  3  2  0  0  0  0
  2  5  2  0  0  0  0
  3  8  1  0  0  0  0
  4  6  2  0  0  0  0
  4  9  1  0  0  0  0
  5 10  1  0  0  0  0
  6 11  1  0  0  0  0
  7  9  2  0  0  0  0
  7 12  1  0  0  0  0
  8 10  1  0  0  0  0
  8 13  2  0  0  0  0
  9 15  1  0  0  0  0
 10 18  2  0  0  0  0
 11 12  2  0  0  0  0
 11 20  1  0  0  0  0
 12 21  1  0  0  0  0
 13 19  1  0  0  0  0
 13 20  1  0  0  0  0
 14 17  1  0  0  0  0
 14 18  1  0  0  0  0
 14 19  2  0  0  0  0
 16 21  1  0  0  0  0
 17 22  1  0  0  0  0
 17 23  1  0  0  0  0
 17 24  1  0  0  0  0
  1 25  1  0  0  0  0
  2 26  1  0  0  0  0
  3 27  1  0  0  0  0
  4 28  1  0  0  0  0
  5 29  1  0  0  0  0
  6 30  1  0  0  0  0
  7 31  1  0  0  0  0
 15 32  1  0  0  0  0
 15 33  1  0  0  0  0
 15 34  1  0  0  0  0
 16 35  1  0  0  0  0
 16 36  1  0  0  0  0
 16 37  1  0  0  0  0
M  END
> <idnumber>
Z86317305

> <heavy_atoms>
24

> <LogS>
-5.78

> <LogP>
4.188

> <rotating_bonds>
4

> <PSA>
44.24

> <hb_acceptors>
3

> <hb_donors>
0

> <Collection>
Legacy

> <link>
https://www.enaminestore.com/catalog/Z86317305

> <ROCS_ShapeQuery>
x0446_0A_x1080_0A_x0929_0A_x0812_0A_x0719_0A_x1140_0A_x0528_0A_x0310_0A

> <ROCS_TanimotoCombo>
0.472 

> <ROCS_ShapeTanimoto>
0.263 

> <ROCS_ColorTanimoto>
0.209 

> <ROCS_RefTversky>
0.238 

> <ROCS_RefColorTversky>
0.214 

> <ROCS_RefTverskyCombo>
0.452 

> <ROCS_FitTversky>
1.666 

> <ROCS_FitColorTversky>
0.897 

> <ROCS_FitTverskyCombo>
2.563 

> <ROCS_ColorScore>
-7.649

> <ROCS_Overlap>
2812.175

> <ROCS_Rank>
63                  

$$$$
untitled-dbase-1034788_4
  -OEChem-02092406493D

 39 43  0     1  0  0  0  0  0999 V2000
   10.1329   13.9276   23.1853 C   0  0  0  0  0  0  0  0  0  0  0  0
    9.6945   16.0499   21.4355 C   0  0  0  0  0  0  0  0  0  0  0  0
   13.7142   14.4897   21.9583 C   0  0  0  0  0  0  0  0  0  0  0  0
   13.4743   15.6691   21.0123 C   0  0  0  0  0  0  0  0  0  0  0  0
    7.6889   10.4473   25.4433 C   0  0  0  0  0  0  0  0  0  0  0  0
    7.9249   11.1419   22.6972 C   0  0  0  0  0  0  0  0  0  0  0  0
   10.2667   11.3928   22.8368 C   0  0  0  0  0  0  0  0  0  0  0  0
   11.2353   14.1568   22.1837 C   0  0  1  0  0  0  0  0  0  0  0  0
   10.9927   15.3268   21.2307 C   0  0  2  0  0  0  0  0  0  0  0  0
    9.0069   10.3854   24.7151 C   0  0  2  0  0  0  0  0  0  0  0  0
    8.3639   11.7183   24.9943 C   0  0  1  0  0  0  0  0  0  0  0  0
    9.1640   10.3663   23.1921 C   0  0  1  0  0  0  0  0  0  0  0  0
    8.2187   12.3434   23.6086 C   0  0  1  0  0  0  0  0  0  0  0  0
   12.5160   14.5859   22.9037 C   0  0  2  0  0  0  0  0  0  0  0  0
   12.1707   16.2537   21.5552 C   0  0  1  0  0  0  0  0  0  0  0  0
    9.5949   12.6588   23.1854 N   0  0  0  0  0  0  0  0  0  0  0  0
    9.7678   14.8335   23.9353 O   0  0  0  0  0  0  0  0  0  0  0  0
    9.5882   17.2151   21.7881 O   0  0  0  0  0  0  0  0  0  0  0  0
   12.3421   16.0224   22.9739 O   0  0  0  0  0  0  0  0  0  0  0  0
    8.6450   15.2317   21.1781 O   0  0  0  0  0  0  0  0  0  0  0  0
   13.7760   13.5286   21.4394 H   0  0  0  0  0  0  0  0  0  0  0  0
   14.6503   14.6467   22.5060 H   0  0  0  0  0  0  0  0  0  0  0  0
   14.2922   16.3912   21.1153 H   0  0  0  0  0  0  0  0  0  0  0  0
   13.4076   15.3709   19.9621 H   0  0  0  0  0  0  0  0  0  0  0  0
    6.7852   10.1135   24.9533 H   0  0  0  0  0  0  0  0  0  0  0  0
    7.6980   10.2289   26.5060 H   0  0  0  0  0  0  0  0  0  0  0  0
    7.9640   11.3895   21.6301 H   0  0  0  0  0  0  0  0  0  0  0  0
    6.9761   10.6428   22.9084 H   0  0  0  0  0  0  0  0  0  0  0  0
   11.1832   11.2772   23.4220 H   0  0  0  0  0  0  0  0  0  0  0  0
   10.4981   11.4039   21.7670 H   0  0  0  0  0  0  0  0  0  0  0  0
   11.3711   13.2136   21.6464 H   0  0  0  0  0  0  0  0  0  0  0  0
   11.0167   15.0032   20.1839 H   0  0  0  0  0  0  0  0  0  0  0  0
    9.8948   10.1023   25.2621 H   0  0  0  0  0  0  0  0  0  0  0  0
    8.7999   12.3694   25.7391 H   0  0  0  0  0  0  0  0  0  0  0  0
    9.3014    9.3727   22.7631 H   0  0  0  0  0  0  0  0  0  0  0  0
    7.5322   13.1898   23.5521 H   0  0  0  0  0  0  0  0  0  0  0  0
   12.6795   14.1484   23.8918 H   0  0  0  0  0  0  0  0  0  0  0  0
   12.0191   17.3126   21.3308 H   0  0  0  0  0  0  0  0  0  0  0  0
    7.7854   15.6862   21.3084 H   0  0  0  0  0  0  0  0  0  0  0  0
  1  8  1  6  0  0  0
  1 16  1  0  0  0  0
  1 17  2  0  0  0  0
  2  9  1  6  0  0  0
  2 18  2  0  0  0  0
  2 20  1  0  0  0  0
  3  4  1  0  0  0  0
  3 14  1  0  0  0  0
  4 15  1  0  0  0  0
  5 10  1  1  0  0  0
  5 11  1  1  0  0  0
  6 12  1  1  0  0  0
  6 13  1  1  0  0  0
  7 12  1  0  0  0  0
  7 16  1  0  0  0  0
  8  9  1  0  0  0  0
  8 14  1  0  0  0  0
  9 15  1  0  0  0  0
 10 11  1  0  0  0  0
 10 12  1  0  0  0  0
 11 13  1  0  0  0  0
 13 16  1  0  0  0  0
 14 19  1  6  0  0  0
 15 19  1  6  0  0  0
  3 21  1  0  0  0  0
  3 22  1  0  0  0  0
  4 23  1  0  0  0  0
  4 24  1  0  0  0  0
  5 25  1  0  0  0  0
  5 26  1  0  0  0  0
  6 27  1  0  0  0  0
  6 28  1  0  0  0  0
  7 29  1  0  0  0  0
  7 30  1  0  0  0  0
  8 31  1  0  0  0  0
  9 32  1  0  0  0  0
 10 33  1  0  0  0  0
 11 34  1  0  0  0  0
 12 35  1  0  0  0  0
 13 36  1  0  0  0  0
 14 37  1  0  0  0  0
 15 38  1  0  0  0  0
 20 39  1  0  0  0  0
M  END
> <idnumber>
Z3482749671

> <heavy_atoms>
20

> <LogS>
-2.245

> <LogP>
0.584

> <rotating_bonds>
2

> <PSA>
66.84

> <hb_acceptors>
4

> <hb_donors>
1

> <Collection>
Advanced

> <link>
https://www.enaminestore.com/catalog/Z3482749671

> <ROCS_ShapeQuery>
x0446_0A_x1080_0A_x0929_0A_x0812_0A_x0719_0A_x1140_0A_x0528_0A_x0310_0A

> <ROCS_TanimotoCombo>
0.472 

> <ROCS_ShapeTanimoto>
0.232 

> <ROCS_ColorTanimoto>
0.240 

> <ROCS_RefTversky>
0.213 

> <ROCS_RefColorTversky>
0.346 

> <ROCS_RefTverskyCombo>
0.559 

> <ROCS_FitTversky>
1.653 

> <ROCS_FitColorTversky>
0.439 

> <ROCS_FitTverskyCombo>
2.092 

> <ROCS_ColorScore>
-12.726

> <ROCS_Overlap>
2510.288

> <ROCS_Rank>
64                  

$$$$
untitled-dbase-512045_8
  -OEChem-02092406493D

 32 34  0     0  0  0  0  0  0999 V2000
    6.0466   13.5100   24.8771 C   0  0  0  0  0  0  0  0  0  0  0  0
    5.4900   12.2492   24.6934 C   0  0  0  0  0  0  0  0  0  0  0  0
    7.4097   13.6955   24.6685 C   0  0  0  0  0  0  0  0  0  0  0  0
    6.2969   11.1770   24.3014 C   0  0  0  0  0  0  0  0  0  0  0  0
   11.6174   14.8704   20.9319 C   0  0  0  0  0  0  0  0  0  0  0  0
   12.9479   15.0982   21.2836 C   0  0  0  0  0  0  0  0  0  0  0  0
   12.4348   14.5499   23.5799 C   0  0  0  0  0  0  0  0  0  0  0  0
    8.2144   12.6123   24.2744 C   0  0  0  0  0  0  0  0  0  0  0  0
    7.6638   11.3342   24.0855 C   0  0  0  0  0  0  0  0  0  0  0  0
   10.6956   14.4824   21.9043 C   0  0  0  0  0  0  0  0  0  0  0  0
   11.1043   14.3221   23.2282 C   0  0  0  0  0  0  0  0  0  0  0  0
   13.3566   14.9379   22.6075 C   0  0  0  0  0  0  0  0  0  0  0  0
    9.5830   12.7303   24.0491 C   0  0  0  0  0  0  0  0  0  0  0  0
    9.7372   10.5346   23.5221 C   0  0  0  0  0  0  0  0  0  0  0  0
   10.5739    9.3727   23.1052 C   0  0  0  0  0  0  0  0  0  0  0  0
    8.4240   10.2913   23.7085 N   0  0  0  0  0  0  0  0  0  0  0  0
   10.3732   11.7077   23.6715 N   0  0  0  0  0  0  0  0  0  0  0  0
    9.3437   14.2534   21.5275 N   0  3  0  0  0  0  0  0  0  0  0  0
    9.0017   13.1024   21.1667 O   0  5  0  0  0  0  0  0  0  0  0  0
    8.5334   15.2095   21.5668 O   0  0  0  0  0  0  0  0  0  0  0  0
   10.2114   13.9382   24.2083 O   0  0  0  0  0  0  0  0  0  0  0  0
   14.6344   15.1557   22.9451 F   0  0  0  0  0  0  0  0  0  0  0  0
    9.8691    8.2101   22.9717 F   0  0  0  0  0  0  0  0  0  0  0  0
   11.1972    9.5509   21.9029 F   0  0  0  0  0  0  0  0  0  0  0  0
   11.5701    9.0962   23.9964 F   0  0  0  0  0  0  0  0  0  0  0  0
    5.4223   14.3437   25.1831 H   0  0  0  0  0  0  0  0  0  0  0  0
    4.4269   12.0951   24.8541 H   0  0  0  0  0  0  0  0  0  0  0  0
    7.8302   14.6868   24.8163 H   0  0  0  0  0  0  0  0  0  0  0  0
    5.8371   10.1999   24.1653 H   0  0  0  0  0  0  0  0  0  0  0  0
   11.3126   14.9996   19.8965 H   0  0  0  0  0  0  0  0  0  0  0  0
   13.6659   15.4001   20.5270 H   0  0  0  0  0  0  0  0  0  0  0  0
   12.7609   14.4264   24.6090 H   0  0  0  0  0  0  0  0  0  0  0  0
  1  2  1  0  0  0  0
  1  3  2  0  0  0  0
  2  4  2  0  0  0  0
  3  8  1  0  0  0  0
  4  9  1  0  0  0  0
  5  6  2  0  0  0  0
  5 10  1  0  0  0  0
  6 12  1  0  0  0  0
  7 11  1  0  0  0  0
  7 12  2  0  0  0  0
  8  9  1  0  0  0  0
  8 13  2  0  0  0  0
  9 16  2  0  0  0  0
 10 11  2  0  0  0  0
 10 18  1  0  0  0  0
 11 21  1  0  0  0  0
 12 22  1  0  0  0  0
 13 17  1  0  0  0  0
 13 21  1  0  0  0  0
 14 15  1  0  0  0  0
 14 16  1  0  0  0  0
 14 17  2  0  0  0  0
 15 23  1  0  0  0  0
 15 24  1  0  0  0  0
 15 25  1  0  0  0  0
 18 19  1  0  0  0  0
 18 20  2  0  0  0  0
  1 26  1  0  0  0  0
  2 27  1  0  0  0  0
  3 28  1  0  0  0  0
  4 29  1  0  0  0  0
  5 30  1  0  0  0  0
  6 31  1  0  0  0  0
  7 32  1  0  0  0  0
M  CHG  2  18   1  19  -1
M  END
> <idnumber>
Z86267629

> <heavy_atoms>
25

> <LogS>
-6.24

> <LogP>
3.726

> <rotating_bonds>
4

> <PSA>
78.15

> <hb_acceptors>
4

> <hb_donors>
0

> <Collection>
HTS

> <link>
https://www.enaminestore.com/catalog/Z86267629

> <ROCS_ShapeQuery>
x0446_0A_x1080_0A_x0929_0A_x0812_0A_x0719_0A_x1140_0A_x0528_0A_x0310_0A

> <ROCS_TanimotoCombo>
0.472 

> <ROCS_ShapeTanimoto>
0.283 

> <ROCS_ColorTanimoto>
0.189 

> <ROCS_RefTversky>
0.253 

> <ROCS_RefColorTversky>
0.202 

> <ROCS_RefTverskyCombo>
0.454 

> <ROCS_FitTversky>
1.713 

> <ROCS_FitColorTversky>
0.759 

> <ROCS_FitTverskyCombo>
2.471 

> <ROCS_ColorScore>
-7.203

> <ROCS_Overlap>
2988.615

> <ROCS_Rank>
65                  

$$$$
untitled-dbase-511753_6
  -OEChem-02092406493D

 32 34  0     0  0  0  0  0  0999 V2000
    6.0462   13.5098   24.8774 C   0  0  0  0  0  0  0  0  0  0  0  0
    5.4896   12.2490   24.6939 C   0  0  0  0  0  0  0  0  0  0  0  0
   12.9474   15.0958   21.2825 C   0  0  0  0  0  0  0  0  0  0  0  0
   13.3563   14.9357   22.6064 C   0  0  0  0  0  0  0  0  0  0  0  0
    7.4092   13.6954   24.6686 C   0  0  0  0  0  0  0  0  0  0  0  0
    6.2964   11.1768   24.3019 C   0  0  0  0  0  0  0  0  0  0  0  0
   11.6166   14.8692   20.9312 C   0  0  0  0  0  0  0  0  0  0  0  0
   12.4344   14.5488   23.5791 C   0  0  0  0  0  0  0  0  0  0  0  0
    8.2139   12.6122   24.2745 C   0  0  0  0  0  0  0  0  0  0  0  0
    7.6633   11.3341   24.0858 C   0  0  0  0  0  0  0  0  0  0  0  0
   10.6948   14.4823   21.9039 C   0  0  0  0  0  0  0  0  0  0  0  0
   11.1036   14.3221   23.2279 C   0  0  0  0  0  0  0  0  0  0  0  0
    9.5825   12.7302   24.0490 C   0  0  0  0  0  0  0  0  0  0  0  0
    9.7367   10.5345   23.5222 C   0  0  0  0  0  0  0  0  0  0  0  0
   10.5734    9.3726   23.1053 C   0  0  0  0  0  0  0  0  0  0  0  0
    8.4236   10.2912   23.7088 N   0  0  0  0  0  0  0  0  0  0  0  0
   10.3726   11.7077   23.6714 N   0  0  0  0  0  0  0  0  0  0  0  0
    9.3421   14.2555   21.5282 N   0  3  0  0  0  0  0  0  0  0  0  0
    8.9978   13.1049   21.1684 O   0  5  0  0  0  0  0  0  0  0  0  0
    8.5337   15.2132   21.5673 O   0  0  0  0  0  0  0  0  0  0  0  0
   10.2109   13.9382   24.2080 O   0  0  0  0  0  0  0  0  0  0  0  0
    9.8687    8.2100   22.9720 F   0  0  0  0  0  0  0  0  0  0  0  0
   11.1966    9.5508   21.9029 F   0  0  0  0  0  0  0  0  0  0  0  0
   11.5698    9.0962   23.9964 F   0  0  0  0  0  0  0  0  0  0  0  0
    5.4219   14.3436   25.1833 H   0  0  0  0  0  0  0  0  0  0  0  0
    4.4265   12.0949   24.8547 H   0  0  0  0  0  0  0  0  0  0  0  0
   13.6653   15.3968   20.5250 H   0  0  0  0  0  0  0  0  0  0  0  0
   14.3924   15.1123   22.8800 H   0  0  0  0  0  0  0  0  0  0  0  0
    7.8297   14.6867   24.8163 H   0  0  0  0  0  0  0  0  0  0  0  0
    5.8367   10.1997   24.1659 H   0  0  0  0  0  0  0  0  0  0  0  0
   11.3121   14.9980   19.8953 H   0  0  0  0  0  0  0  0  0  0  0  0
   12.7598   14.4260   24.6089 H   0  0  0  0  0  0  0  0  0  0  0  0
  1  2  1  0  0  0  0
  1  5  2  0  0  0  0
  2  6  2  0  0  0  0
  3  4  1  0  0  0  0
  3  7  2  0  0  0  0
  4  8  2  0  0  0  0
  5  9  1  0  0  0  0
  6 10  1  0  0  0  0
  7 11  1  0  0  0  0
  8 12  1  0  0  0  0
  9 10  1  0  0  0  0
  9 13  2  0  0  0  0
 10 16  2  0  0  0  0
 11 12  2  0  0  0  0
 11 18  1  0  0  0  0
 12 21  1  0  0  0  0
 13 17  1  0  0  0  0
 13 21  1  0  0  0  0
 14 15  1  0  0  0  0
 14 16  1  0  0  0  0
 14 17  2  0  0  0  0
 15 22  1  0  0  0  0
 15 23  1  0  0  0  0
 15 24  1  0  0  0  0
 18 19  1  0  0  0  0
 18 20  2  0  0  0  0
  1 25  1  0  0  0  0
  2 26  1  0  0  0  0
  3 27  1  0  0  0  0
  4 28  1  0  0  0  0
  5 29  1  0  0  0  0
  6 30  1  0  0  0  0
  7 31  1  0  0  0  0
  8 32  1  0  0  0  0
M  CHG  2  18   1  19  -1
M  END
> <idnumber>
Z86235401

> <heavy_atoms>
24

> <LogS>
-5.97

> <LogP>
3.583

> <rotating_bonds>
4

> <PSA>
78.15

> <hb_acceptors>
4

> <hb_donors>
0

> <Collection>
HTS

> <link>
https://www.enaminestore.com/catalog/Z86235401

> <ROCS_ShapeQuery>
x0446_0A_x1080_0A_x0929_0A_x0812_0A_x0719_0A_x1140_0A_x0528_0A_x0310_0A

> <ROCS_TanimotoCombo>
0.472 

> <ROCS_ShapeTanimoto>
0.282 

> <ROCS_ColorTanimoto>
0.190 

> <ROCS_RefTversky>
0.252 

> <ROCS_RefColorTversky>
0.202 

> <ROCS_RefTverskyCombo>
0.453 

> <ROCS_FitTversky>
1.749 

> <ROCS_FitColorTversky>
0.759 

> <ROCS_FitTverskyCombo>
2.508 

> <ROCS_ColorScore>
-7.207

> <ROCS_Overlap>
2974.018

> <ROCS_Rank>
66                  

$$$$
untitled-dbase-384439_87
  -OEChem-02092406493D

 51 55  0     0  0  0  0  0  0999 V2000
    9.3959   16.2629   19.4823 C   0  0  0  0  0  0  0  0  0  0  0  0
   10.7496   15.9817   19.5987 C   0  0  0  0  0  0  0  0  0  0  0  0
   12.1770   14.1221   23.0714 C   0  0  0  0  0  0  0  0  0  0  0  0
   13.0730   14.4442   22.0596 C   0  0  0  0  0  0  0  0  0  0  0  0
    8.5778   15.9085   20.5358 C   0  0  0  0  0  0  0  0  0  0  0  0
   11.2437   15.3602   20.7534 C   0  0  0  0  0  0  0  0  0  0  0  0
    8.0289   12.6275   24.1624 C   0  0  0  0  0  0  0  0  0  0  0  0
    6.9545   13.5094   24.5001 C   0  0  0  0  0  0  0  0  0  0  0  0
   10.3283   15.0361   21.7766 C   0  0  0  0  0  0  0  0  0  0  0  0
   10.8197   14.4184   22.9234 C   0  0  0  0  0  0  0  0  0  0  0  0
   12.6089   15.0621   20.9020 C   0  0  0  0  0  0  0  0  0  0  0  0
    5.7581   12.8454   24.6627 C   0  0  0  0  0  0  0  0  0  0  0  0
    9.3881   12.8357   23.9072 C   0  0  0  0  0  0  0  0  0  0  0  0
    7.5845   11.3139   24.0845 C   0  0  0  0  0  0  0  0  0  0  0  0
    9.6231   10.5713   23.5654 C   0  0  0  0  0  0  0  0  0  0  0  0
   12.8030    8.8989   22.5706 C   0  0  0  0  0  0  0  0  0  0  0  0
   12.3756    9.8498   24.7412 C   0  0  0  0  0  0  0  0  0  0  0  0
   14.2654    9.3123   22.7089 C   0  0  0  0  0  0  0  0  0  0  0  0
   13.8479   10.2418   24.8278 C   0  0  0  0  0  0  0  0  0  0  0  0
    7.1007   14.9786   24.6602 C   0  0  0  0  0  0  0  0  0  0  0  0
    4.4290   13.3967   25.0107 C   0  0  0  0  0  0  0  0  0  0  0  0
   10.5441    9.4349   23.2268 C   0  0  0  0  0  0  0  0  0  0  0  0
    9.0141   15.3077   21.6665 N   0  0  0  0  0  0  0  0  0  0  0  0
   10.1907   11.7926   23.6057 N   0  0  0  0  0  0  0  0  0  0  0  0
    8.3393   10.2378   23.7885 N   0  0  0  0  0  0  0  0  0  0  0  0
   11.9499    9.8194   23.3351 N   0  0  0  0  0  0  0  0  0  0  0  0
   14.6510    9.3249   24.0839 O   0  0  0  0  0  0  0  0  0  0  0  0
    9.9623   14.0829   23.9500 O   0  0  0  0  0  0  0  0  0  0  0  0
    5.9187   11.1612   24.4101 S   0  0  0  0  0  0  0  0  0  0  0  0
   13.7964   15.4278   19.6920 Cl  0  0  0  0  0  0  0  0  0  0  0  0
    8.9964   16.7430   18.5968 H   0  0  0  0  0  0  0  0  0  0  0  0
   11.3924   16.2613   18.7688 H   0  0  0  0  0  0  0  0  0  0  0  0
   12.5374   13.6395   23.9759 H   0  0  0  0  0  0  0  0  0  0  0  0
   14.1257   14.2071   22.1899 H   0  0  0  0  0  0  0  0  0  0  0  0
    7.5109   16.1034   20.5012 H   0  0  0  0  0  0  0  0  0  0  0  0
   12.5264    8.9166   21.5102 H   0  0  0  0  0  0  0  0  0  0  0  0
   12.6783    7.8719   22.9378 H   0  0  0  0  0  0  0  0  0  0  0  0
   12.2325    8.8644   25.2035 H   0  0  0  0  0  0  0  0  0  0  0  0
   11.7805   10.5788   25.3031 H   0  0  0  0  0  0  0  0  0  0  0  0
   14.9060    8.5922   22.1896 H   0  0  0  0  0  0  0  0  0  0  0  0
   14.4497   10.2993   22.2677 H   0  0  0  0  0  0  0  0  0  0  0  0
   14.0187   11.2606   24.4589 H   0  0  0  0  0  0  0  0  0  0  0  0
   14.1824   10.2071   25.8695 H   0  0  0  0  0  0  0  0  0  0  0  0
    6.9313   15.4921   23.7033 H   0  0  0  0  0  0  0  0  0  0  0  0
    6.3866   15.3787   25.3950 H   0  0  0  0  0  0  0  0  0  0  0  0
    8.1044   15.2485   25.0211 H   0  0  0  0  0  0  0  0  0  0  0  0
    3.8685   13.6727   24.1044 H   0  0  0  0  0  0  0  0  0  0  0  0
    3.8213   12.6734   25.5777 H   0  0  0  0  0  0  0  0  0  0  0  0
    4.5112   14.2941   25.6448 H   0  0  0  0  0  0  0  0  0  0  0  0
   10.3737    8.5866   23.8986 H   0  0  0  0  0  0  0  0  0  0  0  0
   10.3717    9.0804   22.2051 H   0  0  0  0  0  0  0  0  0  0  0  0
  1  2  2  0  0  0  0
  1  5  1  0  0  0  0
  2  6  1  0  0  0  0
  3  4  2  0  0  0  0
  3 10  1  0  0  0  0
  4 11  1  0  0  0  0
  5 23  2  0  0  0  0
  6  9  1  0  0  0  0
  6 11  2  0  0  0  0
  7  8  1  0  0  0  0
  7 13  1  0  0  0  0
  7 14  2  0  0  0  0
  8 12  2  0  0  0  0
  8 20  1  0  0  0  0
  9 10  2  0  0  0  0
  9 23  1  0  0  0  0
 10 28  1  0  0  0  0
 11 30  1  0  0  0  0
 12 21  1  0  0  0  0
 12 29  1  0  0  0  0
 13 24  2  0  0  0  0
 13 28  1  0  0  0  0
 14 25  1  0  0  0  0
 14 29  1  0  0  0  0
 15 22  1  0  0  0  0
 15 24  1  0  0  0  0
 15 25  2  0  0  0  0
 16 18  1  0  0  0  0
 16 26  1  0  0  0  0
 17 19  1  0  0  0  0
 17 26  1  0  0  0  0
 18 27  1  0  0  0  0
 19 27  1  0  0  0  0
 22 26  1  0  0  0  0
  1 31  1  0  0  0  0
  2 32  1  0  0  0  0
  3 33  1  0  0  0  0
  4 34  1  0  0  0  0
  5 35  1  0  0  0  0
 16 36  1  0  0  0  0
 16 37  1  0  0  0  0
 17 38  1  0  0  0  0
 17 39  1  0  0  0  0
 18 40  1  0  0  0  0
 18 41  1  0  0  0  0
 19 42  1  0  0  0  0
 19 43  1  0  0  0  0
 20 44  1  0  0  0  0
 20 45  1  0  0  0  0
 20 46  1  0  0  0  0
 21 47  1  0  0  0  0
 21 48  1  0  0  0  0
 21 49  1  0  0  0  0
 22 50  1  0  0  0  0
 22 51  1  0  0  0  0
M  END
> <idnumber>
Z48804375

> <heavy_atoms>
30

> <LogS>
-6.02

> <LogP>
4.342

> <rotating_bonds>
4

> <PSA>
60.37

> <hb_acceptors>
5

> <hb_donors>
0

> <Collection>
Legacy

> <link>
https://www.enaminestore.com/catalog/Z48804375

> <ROCS_ShapeQuery>
x0446_0A_x1080_0A_x0929_0A_x0812_0A_x0719_0A_x1140_0A_x0528_0A_x0310_0A

> <ROCS_TanimotoCombo>
0.471 

> <ROCS_ShapeTanimoto>
0.269 

> <ROCS_ColorTanimoto>
0.203 

> <ROCS_RefTversky>
0.246 

> <ROCS_RefColorTversky>
0.226 

> <ROCS_RefTverskyCombo>
0.473 

> <ROCS_FitTversky>
1.509 

> <ROCS_FitColorTversky>
0.658 

> <ROCS_FitTverskyCombo>
2.168 

> <ROCS_ColorScore>
-8.127

> <ROCS_Overlap>
2914.990

> <ROCS_Rank>
67                  

$$$$
untitled-dbase-1180180_9
  -OEChem-02092406493D

 42 45  0     1  0  0  0  0  0999 V2000
    9.3294   16.5595   21.0662 C   0  0  0  0  0  0  0  0  0  0  0  0
   10.4065   17.1787   21.6510 C   0  0  0  0  0  0  0  0  0  0  0  0
   10.5322   14.9748   21.8582 C   0  0  0  0  0  0  0  0  0  0  0  0
   12.3051   13.8503   22.9503 C   0  0  0  0  0  0  0  0  0  0  0  0
   11.1402   13.7566   22.2837 C   0  0  0  0  0  0  0  0  0  0  0  0
   12.8799   15.1999   23.1995 C   0  0  0  0  0  0  0  0  0  0  0  0
    6.5706   12.9075   24.8553 C   0  0  0  0  0  0  0  0  0  0  0  0
    9.4445   10.3288   24.9065 C   0  0  0  0  0  0  0  0  0  0  0  0
    8.3127   11.2235   25.4199 C   0  0  0  0  0  0  0  0  0  0  0  0
    7.2681   11.2528   23.0950 C   0  0  0  0  0  0  0  0  0  0  0  0
   10.3654   11.0474   23.9135 C   0  0  0  0  0  0  0  0  0  0  0  0
    8.4979   11.1968   22.1713 C   0  0  0  0  0  0  0  0  0  0  0  0
    8.7963   12.9919   23.7137 C   0  0  0  0  0  0  0  0  0  0  0  0
    7.7054   12.0963   24.3076 C   0  0  1  0  0  0  0  0  0  0  0  0
    9.6049   11.9608   22.9234 C   0  0  1  0  0  0  0  0  0  0  0  0
    4.4614   12.7206   25.9042 C   0  0  0  0  0  0  0  0  0  0  0  0
    9.4119   15.1980   21.1970 N   0  0  0  0  0  0  0  0  0  0  0  0
   12.3479   16.3212   22.8238 N   0  0  0  0  0  0  0  0  0  0  0  0
   11.1751   16.1635   22.1567 N   0  0  0  0  0  0  0  0  0  0  0  0
   10.5607   12.5881   22.0203 N   0  0  0  0  0  0  0  0  0  0  0  0
    6.5376   14.1306   24.8502 O   0  0  0  0  0  0  0  0  0  0  0  0
    5.6097   12.0740   25.3463 O   0  0  0  0  0  0  0  0  0  0  0  0
   14.3768   15.3307   24.0554 Cl  0  0  0  0  0  0  0  0  0  0  0  0
    8.4983   17.0255   20.5575 H   0  0  0  0  0  0  0  0  0  0  0  0
   10.6866   18.2182   21.7496 H   0  0  0  0  0  0  0  0  0  0  0  0
   12.8413   12.9808   23.3129 H   0  0  0  0  0  0  0  0  0  0  0  0
   10.0301    9.9445   25.7496 H   0  0  0  0  0  0  0  0  0  0  0  0
    9.0108    9.4485   24.4160 H   0  0  0  0  0  0  0  0  0  0  0  0
    7.5401   10.5986   25.8856 H   0  0  0  0  0  0  0  0  0  0  0  0
    8.7017   11.8688   26.2190 H   0  0  0  0  0  0  0  0  0  0  0  0
    6.4314   11.7193   22.5600 H   0  0  0  0  0  0  0  0  0  0  0  0
    6.9363   10.2492   23.3833 H   0  0  0  0  0  0  0  0  0  0  0  0
   11.0822   11.6527   24.4846 H   0  0  0  0  0  0  0  0  0  0  0  0
   10.9510   10.2966   23.3683 H   0  0  0  0  0  0  0  0  0  0  0  0
    8.7841   10.1664   21.9351 H   0  0  0  0  0  0  0  0  0  0  0  0
    8.2454   11.6908   21.2244 H   0  0  0  0  0  0  0  0  0  0  0  0
    8.3629   13.7584   23.0570 H   0  0  0  0  0  0  0  0  0  0  0  0
    9.3882   13.5063   24.4799 H   0  0  0  0  0  0  0  0  0  0  0  0
    3.7578   11.9669   26.2662 H   0  0  0  0  0  0  0  0  0  0  0  0
    3.9855   13.3421   25.1415 H   0  0  0  0  0  0  0  0  0  0  0  0
    4.7785   13.3505   26.7388 H   0  0  0  0  0  0  0  0  0  0  0  0
   10.8072   12.1257   21.1440 H   0  0  0  0  0  0  0  0  0  0  0  0
  1  2  2  0  0  0  0
  1 17  1  0  0  0  0
  2 19  1  0  0  0  0
  3  5  1  0  0  0  0
  3 17  2  0  0  0  0
  3 19  1  0  0  0  0
  4  5  2  0  0  0  0
  4  6  1  0  0  0  0
  5 20  1  0  0  0  0
  6 18  2  0  0  0  0
  6 23  1  0  0  0  0
  7 14  1  0  0  0  0
  7 21  2  0  0  0  0
  7 22  1  0  0  0  0
  8  9  1  0  0  0  0
  8 11  1  0  0  0  0
  9 14  1  0  0  0  0
 10 12  1  0  0  0  0
 10 14  1  0  0  0  0
 11 15  1  0  0  0  0
 12 15  1  0  0  0  0
 13 14  1  0  0  0  0
 13 15  1  0  0  0  0
 15 20  1  0  0  0  0
 16 22  1  0  0  0  0
 18 19  1  0  0  0  0
  1 24  1  0  0  0  0
  2 25  1  0  0  0  0
  4 26  1  0  0  0  0
  8 27  1  0  0  0  0
  8 28  1  0  0  0  0
  9 29  1  0  0  0  0
  9 30  1  0  0  0  0
 10 31  1  0  0  0  0
 10 32  1  0  0  0  0
 11 33  1  0  0  0  0
 11 34  1  0  0  0  0
 12 35  1  0  0  0  0
 12 36  1  0  0  0  0
 13 37  1  0  0  0  0
 13 38  1  0  0  0  0
 16 39  1  0  0  0  0
 16 40  1  0  0  0  0
 16 41  1  0  0  0  0
 20 42  1  0  0  0  0
M  END
> <idnumber>
Z8788886655

> <heavy_atoms>
23

> <LogS>
-3.545

> <LogP>
3.169

> <rotating_bonds>
4

> <PSA>
68.52

> <hb_acceptors>
4

> <hb_donors>
1

> <Collection>
Advanced

> <link>
https://www.enaminestore.com/catalog/Z8788886655

> <ROCS_ShapeQuery>
x0446_0A_x1080_0A_x0929_0A_x0812_0A_x0719_0A_x1140_0A_x0528_0A_x0310_0A

> <ROCS_TanimotoCombo>
0.471 

> <ROCS_ShapeTanimoto>
0.249 

> <ROCS_ColorTanimoto>
0.222 

> <ROCS_RefTversky>
0.227 

> <ROCS_RefColorTversky>
0.253 

> <ROCS_RefTverskyCombo>
0.480 

> <ROCS_FitTversky>
1.642 

> <ROCS_FitColorTversky>
0.647 

> <ROCS_FitTverskyCombo>
2.289 

> <ROCS_ColorScore>
-9.087

> <ROCS_Overlap>
2682.718

> <ROCS_Rank>
68                  

$$$$
untitled-dbase-323629_58
  -OEChem-02092406493D

 46 50  0     0  0  0  0  0  0999 V2000
   11.9916    7.7158   22.9093 C   0  0  0  0  0  0  0  0  0  0  0  0
   10.9051    8.5638   23.0922 C   0  0  0  0  0  0  0  0  0  0  0  0
   13.1846   14.6210   23.7910 C   0  0  0  0  0  0  0  0  0  0  0  0
   11.8703   14.2838   24.1142 C   0  0  0  0  0  0  0  0  0  0  0  0
   12.4186   15.6394   21.7383 C   0  0  0  0  0  0  0  0  0  0  0  0
   13.2540    8.2069   23.2011 C   0  0  0  0  0  0  0  0  0  0  0  0
   12.4128   10.2539   23.8177 C   0  0  0  0  0  0  0  0  0  0  0  0
    7.9965   12.4828   24.1089 C   0  0  0  0  0  0  0  0  0  0  0  0
   11.1111    9.8588   23.5547 C   0  0  0  0  0  0  0  0  0  0  0  0
    6.7558   13.1117   24.3626 C   0  0  0  0  0  0  0  0  0  0  0  0
   11.1043   15.3022   22.0615 C   0  0  0  0  0  0  0  0  0  0  0  0
   13.4588   15.2988   22.6031 C   0  0  0  0  0  0  0  0  0  0  0  0
   10.8301   14.6244   23.2494 C   0  0  0  0  0  0  0  0  0  0  0  0
    5.7679   12.2184   24.6757 C   0  0  0  0  0  0  0  0  0  0  0  0
    9.2682   12.9450   23.7616 C   0  0  0  0  0  0  0  0  0  0  0  0
    7.8579   11.0997   24.2525 C   0  0  0  0  0  0  0  0  0  0  0  0
   10.0054   10.7616   23.7538 C   0  0  0  0  0  0  0  0  0  0  0  0
    6.2427   14.5042   24.3810 C   0  0  0  0  0  0  0  0  0  0  0  0
    4.4533   12.8429   24.9498 C   0  0  0  0  0  0  0  0  0  0  0  0
    4.6967   14.2870   24.4121 C   0  0  0  0  0  0  0  0  0  0  0  0
   14.9505   16.3211   21.0585 C   0  0  0  0  0  0  0  0  0  0  0  0
   13.4934    9.4586   23.6522 N   0  0  0  0  0  0  0  0  0  0  0  0
   10.2816   12.0703   23.5831 N   0  0  0  0  0  0  0  0  0  0  0  0
    8.8347   10.1869   24.0857 N   0  0  0  0  0  0  0  0  0  0  0  0
   10.0561   15.6587   21.1691 N   0  3  0  0  0  0  0  0  0  0  0  0
   10.3419   16.2679   20.1111 O   0  5  0  0  0  0  0  0  0  0  0  0
    8.8769   15.3537   21.4667 O   0  0  0  0  0  0  0  0  0  0  0  0
    9.5390   14.2805   23.5911 O   0  0  0  0  0  0  0  0  0  0  0  0
   14.7413   15.6286   22.2883 O   0  0  0  0  0  0  0  0  0  0  0  0
    6.2615   10.6217   24.6826 S   0  0  0  0  0  0  0  0  0  0  0  0
   11.8556    6.7020   22.5506 H   0  0  0  0  0  0  0  0  0  0  0  0
    9.9041    8.2022   22.8702 H   0  0  0  0  0  0  0  0  0  0  0  0
   13.9907   14.3543   24.4689 H   0  0  0  0  0  0  0  0  0  0  0  0
   11.6641   13.7571   25.0420 H   0  0  0  0  0  0  0  0  0  0  0  0
   12.6408   16.1683   20.8142 H   0  0  0  0  0  0  0  0  0  0  0  0
   14.1345    7.5850   23.0748 H   0  0  0  0  0  0  0  0  0  0  0  0
   12.6409   11.2516   24.1820 H   0  0  0  0  0  0  0  0  0  0  0  0
    6.5747   15.0224   25.2868 H   0  0  0  0  0  0  0  0  0  0  0  0
    6.5431   15.0801   23.5015 H   0  0  0  0  0  0  0  0  0  0  0  0
    3.6248   12.3591   24.4253 H   0  0  0  0  0  0  0  0  0  0  0  0
    4.2480   12.8632   26.0250 H   0  0  0  0  0  0  0  0  0  0  0  0
    4.1817   15.0454   25.0098 H   0  0  0  0  0  0  0  0  0  0  0  0
    4.3075   14.3549   23.3874 H   0  0  0  0  0  0  0  0  0  0  0  0
   16.0167   16.5231   20.9300 H   0  0  0  0  0  0  0  0  0  0  0  0
   14.3895   17.2590   21.0675 H   0  0  0  0  0  0  0  0  0  0  0  0
   14.5984   15.6962   20.2344 H   0  0  0  0  0  0  0  0  0  0  0  0
  1  2  2  0  0  0  0
  1  6  1  0  0  0  0
  2  9  1  0  0  0  0
  3  4  2  0  0  0  0
  3 12  1  0  0  0  0
  4 13  1  0  0  0  0
  5 11  1  0  0  0  0
  5 12  2  0  0  0  0
  6 22  2  0  0  0  0
  7  9  2  0  0  0  0
  7 22  1  0  0  0  0
  8 10  1  0  0  0  0
  8 15  2  0  0  0  0
  8 16  1  0  0  0  0
  9 17  1  0  0  0  0
 10 14  2  0  0  0  0
 10 18  1  0  0  0  0
 11 13  2  0  0  0  0
 11 25  1  0  0  0  0
 12 29  1  0  0  0  0
 13 28  1  0  0  0  0
 14 19  1  0  0  0  0
 14 30  1  0  0  0  0
 15 23  1  0  0  0  0
 15 28  1  0  0  0  0
 16 24  2  0  0  0  0
 16 30  1  0  0  0  0
 17 23  2  0  0  0  0
 17 24  1  0  0  0  0
 18 20  1  0  0  0  0
 19 20  1  0  0  0  0
 21 29  1  0  0  0  0
 25 26  1  0  0  0  0
 25 27  2  0  0  0  0
  1 31  1  0  0  0  0
  2 32  1  0  0  0  0
  3 33  1  0  0  0  0
  4 34  1  0  0  0  0
  5 35  1  0  0  0  0
  6 36  1  0  0  0  0
  7 37  1  0  0  0  0
 18 38  1  0  0  0  0
 18 39  1  0  0  0  0
 19 40  1  0  0  0  0
 19 41  1  0  0  0  0
 20 42  1  0  0  0  0
 20 43  1  0  0  0  0
 21 44  1  0  0  0  0
 21 45  1  0  0  0  0
 21 46  1  0  0  0  0
M  CHG  2  25   1  26  -1
M  END
> <idnumber>
Z31118171

> <heavy_atoms>
30

> <LogS>
-7.188

> <LogP>
4.37

> <rotating_bonds>
5

> <PSA>
100.27

> <hb_acceptors>
6

> <hb_donors>
0

> <Collection>
Legacy

> <link>
https://www.enaminestore.com/catalog/Z31118171

> <ROCS_ShapeQuery>
x0446_0A_x1080_0A_x0929_0A_x0812_0A_x0719_0A_x1140_0A_x0528_0A_x0310_0A

> <ROCS_TanimotoCombo>
0.471 

> <ROCS_ShapeTanimoto>
0.268 

> <ROCS_ColorTanimoto>
0.203 

> <ROCS_RefTversky>
0.247 

> <ROCS_RefColorTversky>
0.231 

> <ROCS_RefTverskyCombo>
0.478 

> <ROCS_FitTversky>
1.490 

> <ROCS_FitColorTversky>
0.623 

> <ROCS_FitTverskyCombo>
2.113 

> <ROCS_ColorScore>
-8.309

> <ROCS_Overlap>
2917.911

> <ROCS_Rank>
69                  

$$$$
untitled-dbase-1114103_180
  -OEChem-02092406493D

 66 72  0     0  0  0  0  0  0999 V2000
    3.9515    9.9897   19.7806 C   0  0  0  0  0  0  0  0  0  0  0  0
    2.8415   10.7675   20.0964 C   0  0  0  0  0  0  0  0  0  0  0  0
    5.2369   10.5026   19.9568 C   0  0  0  0  0  0  0  0  0  0  0  0
    3.0126   12.0612   20.5897 C   0  0  0  0  0  0  0  0  0  0  0  0
   11.7172    8.4681   20.7463 C   0  0  0  0  0  0  0  0  0  0  0  0
   10.7628    9.3443   21.2631 C   0  0  0  0  0  0  0  0  0  0  0  0
    6.7144   12.3352   20.6359 C   0  0  0  0  0  0  0  0  0  0  0  0
    5.7756   14.4068   21.4450 C   0  0  0  0  0  0  0  0  0  0  0  0
   11.9748    9.4327   23.3513 C   0  0  0  0  0  0  0  0  0  0  0  0
    5.4279   11.8027   20.4522 C   0  0  0  0  0  0  0  0  0  0  0  0
    4.2991   12.5937   20.7734 C   0  0  0  0  0  0  0  0  0  0  0  0
    6.8856   13.6289   21.1292 C   0  0  0  0  0  0  0  0  0  0  0  0
    7.6366   11.1768   23.7860 C   0  0  0  0  0  0  0  0  0  0  0  0
    6.2195   11.0464   24.0292 C   0  0  0  0  0  0  0  0  0  0  0  0
   12.8003    8.0741   21.5320 C   0  0  0  0  0  0  0  0  0  0  0  0
   10.8917    9.8267   22.5656 C   0  0  0  0  0  0  0  0  0  0  0  0
    4.4901   13.8939   21.2687 C   0  0  0  0  0  0  0  0  0  0  0  0
   12.9291    8.5565   22.8344 C   0  0  0  0  0  0  0  0  0  0  0  0
    5.7280   12.1635   24.6877 C   0  0  0  0  0  0  0  0  0  0  0  0
    8.1349   12.3785   24.2489 C   0  0  0  0  0  0  0  0  0  0  0  0
    8.2061   14.1574   21.3128 C   0  0  0  0  0  0  0  0  0  0  0  0
   10.2895   14.0506   21.5661 C   0  0  0  0  0  0  0  0  0  0  0  0
    8.5710   10.2429   23.1574 C   0  0  0  0  0  0  0  0  0  0  0  0
   10.2430   12.0169   23.5844 C   0  0  0  0  0  0  0  0  0  0  0  0
    5.3377    9.8881   23.6548 C   0  0  0  0  0  0  0  0  0  0  0  0
    4.3185   12.4072   25.1379 C   0  0  0  0  0  0  0  0  0  0  0  0
    4.6810    9.2211   24.8656 C   0  0  0  0  0  0  0  0  0  0  0  0
    3.8306   11.3271   26.1050 C   0  0  0  0  0  0  0  0  0  0  0  0
    3.4876    9.9937   25.4351 C   0  0  0  0  0  0  0  0  0  0  0  0
   13.8010    7.1342   20.9409 C   0  0  0  0  0  0  0  0  0  0  0  0
   11.6271   13.3762   21.6984 C   0  0  0  0  0  0  0  0  0  0  0  0
    8.6198   15.3988   21.4166 N   0  0  0  0  0  0  0  0  0  0  0  0
    9.9903   15.3285   21.5831 N   0  0  0  0  0  0  0  0  0  0  0  0
    9.4087   12.8318   24.1581 N   0  0  0  0  0  0  0  0  0  0  0  0
    9.9077   10.7285   23.0982 N   0  0  0  0  0  0  0  0  0  0  0  0
    8.2112    9.1321   22.7766 O   0  0  0  0  0  0  0  0  0  0  0  0
    9.2086   13.2406   21.3979 O   0  0  0  0  0  0  0  0  0  0  0  0
    3.4311   14.6922   21.5955 O   0  0  0  0  0  0  0  0  0  0  0  0
    6.9324   13.3338   24.9816 S   0  0  0  0  0  0  0  0  0  0  0  0
   11.8670   12.6561   23.3336 S   0  0  0  0  0  0  0  0  0  0  0  0
   14.2556    8.0905   23.8360 Cl  0  0  0  0  0  0  0  0  0  0  0  0
    3.8176    8.9824   19.3970 H   0  0  0  0  0  0  0  0  0  0  0  0
    1.8411   10.3674   19.9591 H   0  0  0  0  0  0  0  0  0  0  0  0
    6.0900    9.8762   19.7042 H   0  0  0  0  0  0  0  0  0  0  0  0
    2.1243   12.6426   20.8265 H   0  0  0  0  0  0  0  0  0  0  0  0
   11.6071    8.0982   19.7303 H   0  0  0  0  0  0  0  0  0  0  0  0
    9.9226    9.6440   20.6421 H   0  0  0  0  0  0  0  0  0  0  0  0
    7.5878   11.7317   20.3914 H   0  0  0  0  0  0  0  0  0  0  0  0
    5.9010   15.4163   21.8311 H   0  0  0  0  0  0  0  0  0  0  0  0
   12.0708    9.8111   24.3670 H   0  0  0  0  0  0  0  0  0  0  0  0
    4.5709   10.2306   22.9484 H   0  0  0  0  0  0  0  0  0  0  0  0
    5.9108    9.1258   23.1221 H   0  0  0  0  0  0  0  0  0  0  0  0
    4.2429   13.3786   25.6429 H   0  0  0  0  0  0  0  0  0  0  0  0
    3.6588   12.4630   24.2631 H   0  0  0  0  0  0  0  0  0  0  0  0
    4.3121    8.2371   24.5485 H   0  0  0  0  0  0  0  0  0  0  0  0
    5.4206    9.0391   25.6551 H   0  0  0  0  0  0  0  0  0  0  0  0
    4.5637   11.1643   26.9050 H   0  0  0  0  0  0  0  0  0  0  0  0
    2.9169   11.6967   26.5880 H   0  0  0  0  0  0  0  0  0  0  0  0
    2.7429   10.1572   24.6465 H   0  0  0  0  0  0  0  0  0  0  0  0
    3.0041    9.3562   26.1862 H   0  0  0  0  0  0  0  0  0  0  0  0
   14.5988    7.6954   20.4417 H   0  0  0  0  0  0  0  0  0  0  0  0
   14.2500    6.4983   21.7131 H   0  0  0  0  0  0  0  0  0  0  0  0
   13.3313    6.4661   20.2091 H   0  0  0  0  0  0  0  0  0  0  0  0
   11.7302   12.5869   20.9455 H   0  0  0  0  0  0  0  0  0  0  0  0
   12.4317   14.0954   21.5090 H   0  0  0  0  0  0  0  0  0  0  0  0
    3.7488   15.5478   21.9208 H   0  0  0  0  0  0  0  0  0  0  0  0
  1  2  1  0  0  0  0
  1  3  2  0  0  0  0
  2  4  2  0  0  0  0
  3 10  1  0  0  0  0
  4 11  1  0  0  0  0
  5  6  2  0  0  0  0
  5 15  1  0  0  0  0
  6 16  1  0  0  0  0
  7 10  1  0  0  0  0
  7 12  2  0  0  0  0
  8 12  1  0  0  0  0
  8 17  2  0  0  0  0
  9 16  2  0  0  0  0
  9 18  1  0  0  0  0
 10 11  2  0  0  0  0
 11 17  1  0  0  0  0
 12 21  1  0  0  0  0
 13 14  1  0  0  0  0
 13 20  2  0  0  0  0
 13 23  1  0  0  0  0
 14 19  2  0  0  0  0
 14 25  1  0  0  0  0
 15 18  2  0  0  0  0
 15 30  1  0  0  0  0
 16 35  1  0  0  0  0
 17 38  1  0  0  0  0
 18 41  1  0  0  0  0
 19 26  1  0  0  0  0
 19 39  1  0  0  0  0
 20 34  1  0  0  0  0
 20 39  1  0  0  0  0
 21 32  2  0  0  0  0
 21 37  1  0  0  0  0
 22 31  1  0  0  0  0
 22 33  2  0  0  0  0
 22 37  1  0  0  0  0
 23 35  1  0  0  0  0
 23 36  2  0  0  0  0
 24 34  2  0  0  0  0
 24 35  1  0  0  0  0
 24 40  1  0  0  0  0
 25 27  1  0  0  0  0
 26 28  1  0  0  0  0
 27 29  1  0  0  0  0
 28 29  1  0  0  0  0
 31 40  1  0  0  0  0
 32 33  1  0  0  0  0
  1 42  1  0  0  0  0
  2 43  1  0  0  0  0
  3 44  1  0  0  0  0
  4 45  1  0  0  0  0
  5 46  1  0  0  0  0
  6 47  1  0  0  0  0
  7 48  1  0  0  0  0
  8 49  1  0  0  0  0
  9 50  1  0  0  0  0
 25 51  1  0  0  0  0
 25 52  1  0  0  0  0
 26 53  1  0  0  0  0
 26 54  1  0  0  0  0
 27 55  1  0  0  0  0
 27 56  1  0  0  0  0
 28 57  1  0  0  0  0
 28 58  1  0  0  0  0
 29 59  1  0  0  0  0
 29 60  1  0  0  0  0
 30 61  1  0  0  0  0
 30 62  1  0  0  0  0
 30 63  1  0  0  0  0
 31 64  1  0  0  0  0
 31 65  1  0  0  0  0
 38 66  1  0  0  0  0
M  END
> <idnumber>
Z5129826379

> <heavy_atoms>
41

> <LogS>
-11.35

> <LogP>
7.826

> <rotating_bonds>
5

> <PSA>
91.82

> <hb_acceptors>
5

> <hb_donors>
1

> <Collection>
Advanced

> <link>
https://www.enaminestore.com/catalog/Z5129826379

> <ROCS_ShapeQuery>
x0446_0A_x1080_0A_x0929_0A_x0812_0A_x0719_0A_x1140_0A_x0528_0A_x0310_0A

> <ROCS_TanimotoCombo>
0.471 

> <ROCS_ShapeTanimoto>
0.274 

> <ROCS_ColorTanimoto>
0.197 

> <ROCS_RefTversky>
0.259 

> <ROCS_RefColorTversky>
0.231 

> <ROCS_RefTverskyCombo>
0.490 

> <ROCS_FitTversky>
1.271 

> <ROCS_FitColorTversky>
0.574 

> <ROCS_FitTverskyCombo>
1.845 

> <ROCS_ColorScore>
-8.329

> <ROCS_Overlap>
3066.145

> <ROCS_Rank>
70                  

$$$$
untitled-dbase-301033_127
  -OEChem-02092406493D

 74 79  0     1  0  0  0  0  0999 V2000
    9.9655   14.4427   21.3226 C   0  0  0  0  0  0  0  0  0  0  0  0
   10.6014   15.5636   20.7890 C   0  0  0  0  0  0  0  0  0  0  0  0
   11.6076   14.3537   23.0925 C   0  0  0  0  0  0  0  0  0  0  0  0
   10.4686   13.8377   22.4744 C   0  0  0  0  0  0  0  0  0  0  0  0
   11.7404   16.0796   21.4071 C   0  0  0  0  0  0  0  0  0  0  0  0
   12.2435   15.4746   22.5588 C   0  0  0  0  0  0  0  0  0  0  0  0
    2.8988   13.3277   20.7375 C   0  0  0  0  0  0  0  0  0  0  0  0
    6.1750   12.1162   24.4602 C   0  0  0  0  0  0  0  0  0  0  0  0
    4.8141   11.7657   21.1278 C   0  0  0  0  0  0  0  0  0  0  0  0
    2.9896   12.0555   22.8740 C   0  0  0  0  0  0  0  0  0  0  0  0
    9.7608    9.7563   23.9842 C   0  0  0  0  0  0  0  0  0  0  0  0
    9.7066   11.3881   22.0840 C   0  0  0  0  0  0  0  0  0  0  0  0
   10.5140   12.1228   24.3421 C   0  0  0  0  0  0  0  0  0  0  0  0
    7.5634   10.5767   23.0976 C   0  0  0  0  0  0  0  0  0  0  0  0
    8.3648   11.3203   25.3569 C   0  0  0  0  0  0  0  0  0  0  0  0
    8.3004   12.9530   23.4480 C   0  0  0  0  0  0  0  0  0  0  0  0
    5.7370   12.6126   22.0052 C   0  0  0  0  0  0  0  0  0  0  0  0
    3.9623   12.9076   23.6875 C   0  0  0  0  0  0  0  0  0  0  0  0
    2.4272   11.9997   18.6346 C   0  0  0  0  0  0  0  0  0  0  0  0
    2.0322   14.4426   18.7076 C   0  0  0  0  0  0  0  0  0  0  0  0
    2.4760   12.2989   17.1421 C   0  0  0  0  0  0  0  0  0  0  0  0
    0.9586   14.0851   17.6895 C   0  0  0  0  0  0  0  0  0  0  0  0
    3.3282   12.0409   21.3800 C   0  0  0  0  0  0  0  0  0  0  0  0
    8.9982   10.1808   22.7216 C   0  0  2  0  0  0  0  0  0  0  0  0
    9.8014   10.9198   24.9845 C   0  0  1  0  0  0  0  0  0  0  0  0
    9.7681   12.6022   23.0619 C   0  0  0  0  0  0  0  0  0  0  0  0
    7.5905   11.7464   24.0952 C   0  0  0  0  0  0  0  0  0  0  0  0
   12.4047   17.2799   20.8167 C   0  0  0  0  0  0  0  0  0  0  0  0
   13.4618   16.0093   23.2376 C   0  0  0  0  0  0  0  0  0  0  0  0
    2.4780   13.2414   19.4122 N   0  0  0  0  0  0  0  0  0  0  0  0
    5.3454   12.5191   23.4147 N   0  0  0  0  0  0  0  0  0  0  0  0
    2.9382   14.3772   21.3837 O   0  0  0  0  0  0  0  0  0  0  0  0
    5.8189   12.0464   25.6393 O   0  0  0  0  0  0  0  0  0  0  0  0
    1.4061   13.1424   16.7125 O   0  0  0  0  0  0  0  0  0  0  0  0
    9.0788   14.0472   20.8340 H   0  0  0  0  0  0  0  0  0  0  0  0
   10.2019   16.0273   19.8907 H   0  0  0  0  0  0  0  0  0  0  0  0
   11.9988   13.8819   23.9908 H   0  0  0  0  0  0  0  0  0  0  0  0
    5.0621   11.9413   20.0719 H   0  0  0  0  0  0  0  0  0  0  0  0
    5.0181   10.7035   21.3251 H   0  0  0  0  0  0  0  0  0  0  0  0
    3.0218   11.0281   23.2537 H   0  0  0  0  0  0  0  0  0  0  0  0
    1.9705   12.4240   23.0296 H   0  0  0  0  0  0  0  0  0  0  0  0
    9.2752    8.8853   24.4409 H   0  0  0  0  0  0  0  0  0  0  0  0
   10.7812    9.4510   23.7219 H   0  0  0  0  0  0  0  0  0  0  0  0
   10.7224   11.1002   21.7807 H   0  0  0  0  0  0  0  0  0  0  0  0
    9.1839   11.6763   21.1618 H   0  0  0  0  0  0  0  0  0  0  0  0
   10.5756   12.9443   25.0685 H   0  0  0  0  0  0  0  0  0  0  0  0
   11.5497   11.8515   24.0968 H   0  0  0  0  0  0  0  0  0  0  0  0
    7.0025   10.8549   22.1955 H   0  0  0  0  0  0  0  0  0  0  0  0
    7.0383    9.7150   23.5307 H   0  0  0  0  0  0  0  0  0  0  0  0
    7.8610   10.4784   25.8499 H   0  0  0  0  0  0  0  0  0  0  0  0
    8.3812   12.1381   26.0894 H   0  0  0  0  0  0  0  0  0  0  0  0
    8.2896   13.8087   24.1383 H   0  0  0  0  0  0  0  0  0  0  0  0
    7.7475   13.2858   22.5578 H   0  0  0  0  0  0  0  0  0  0  0  0
    6.7731   12.2891   21.8669 H   0  0  0  0  0  0  0  0  0  0  0  0
    5.6858   13.6692   21.7192 H   0  0  0  0  0  0  0  0  0  0  0  0
    3.8643   13.9674   23.4239 H   0  0  0  0  0  0  0  0  0  0  0  0
    3.7131   12.8230   24.7474 H   0  0  0  0  0  0  0  0  0  0  0  0
    1.5331   11.4177   18.8789 H   0  0  0  0  0  0  0  0  0  0  0  0
    3.3049   11.4129   18.9320 H   0  0  0  0  0  0  0  0  0  0  0  0
    2.9146   14.8472   18.1976 H   0  0  0  0  0  0  0  0  0  0  0  0
    1.6572   15.2086   19.3888 H   0  0  0  0  0  0  0  0  0  0  0  0
    3.4217   12.8150   16.8972 H   0  0  0  0  0  0  0  0  0  0  0  0
    2.4702   11.3657   16.5451 H   0  0  0  0  0  0  0  0  0  0  0  0
    0.0491   13.6926   18.1864 H   0  0  0  0  0  0  0  0  0  0  0  0
    0.6427   14.9949   17.1470 H   0  0  0  0  0  0  0  0  0  0  0  0
    2.7355   11.2536   20.8966 H   0  0  0  0  0  0  0  0  0  0  0  0
    8.9753    9.3491   22.0083 H   0  0  0  0  0  0  0  0  0  0  0  0
   10.3428   10.6115   25.8860 H   0  0  0  0  0  0  0  0  0  0  0  0
   11.9829   18.1966   21.2449 H   0  0  0  0  0  0  0  0  0  0  0  0
   13.4848   17.2694   21.0081 H   0  0  0  0  0  0  0  0  0  0  0  0
   12.2737   17.3100   19.7279 H   0  0  0  0  0  0  0  0  0  0  0  0
   14.3623   15.5344   22.8311 H   0  0  0  0  0  0  0  0  0  0  0  0
   13.5471   17.0944   23.1019 H   0  0  0  0  0  0  0  0  0  0  0  0
   13.4265   15.8245   24.3184 H   0  0  0  0  0  0  0  0  0  0  0  0
  1  2  2  0  0  0  0
  1  4  1  0  0  0  0
  2  5  1  0  0  0  0
  3  4  2  0  0  0  0
  3  6  1  0  0  0  0
  4 26  1  0  0  0  0
  5  6  2  0  0  0  0
  5 28  1  0  0  0  0
  6 29  1  0  0  0  0
  7 23  1  0  0  0  0
  7 30  1  0  0  0  0
  7 32  2  0  0  0  0
  8 27  1  0  0  0  0
  8 31  1  0  0  0  0
  8 33  2  0  0  0  0
  9 17  1  0  0  0  0
  9 23  1  0  0  0  0
 10 18  1  0  0  0  0
 10 23  1  0  0  0  0
 11 24  1  0  0  0  0
 11 25  1  0  0  0  0
 12 24  1  0  0  0  0
 12 26  1  0  0  0  0
 13 25  1  0  0  0  0
 13 26  1  0  0  0  0
 14 24  1  0  0  0  0
 14 27  1  0  0  0  0
 15 25  1  0  0  0  0
 15 27  1  0  0  0  0
 16 26  1  0  0  0  0
 16 27  1  0  0  0  0
 17 31  1  0  0  0  0
 18 31  1  0  0  0  0
 19 21  1  0  0  0  0
 19 30  1  0  0  0  0
 20 22  1  0  0  0  0
 20 30  1  0  0  0  0
 21 34  1  0  0  0  0
 22 34  1  0  0  0  0
  1 35  1  0  0  0  0
  2 36  1  0  0  0  0
  3 37  1  0  0  0  0
  9 38  1  0  0  0  0
  9 39  1  0  0  0  0
 10 40  1  0  0  0  0
 10 41  1  0  0  0  0
 11 42  1  0  0  0  0
 11 43  1  0  0  0  0
 12 44  1  0  0  0  0
 12 45  1  0  0  0  0
 13 46  1  0  0  0  0
 13 47  1  0  0  0  0
 14 48  1  0  0  0  0
 14 49  1  0  0  0  0
 15 50  1  0  0  0  0
 15 51  1  0  0  0  0
 16 52  1  0  0  0  0
 16 53  1  0  0  0  0
 17 54  1  0  0  0  0
 17 55  1  0  0  0  0
 18 56  1  0  0  0  0
 18 57  1  0  0  0  0
 19 58  1  0  0  0  0
 19 59  1  0  0  0  0
 20 60  1  0  0  0  0
 20 61  1  0  0  0  0
 21 62  1  0  0  0  0
 21 63  1  0  0  0  0
 22 64  1  0  0  0  0
 22 65  1  0  0  0  0
 23 66  1  0  0  0  0
 24 67  1  0  0  0  0
 25 68  1  0  0  0  0
 28 69  1  0  0  0  0
 28 70  1  0  0  0  0
 28 71  1  0  0  0  0
 29 72  1  0  0  0  0
 29 73  1  0  0  0  0
 29 74  1  0  0  0  0
M  END
> <idnumber>
Z29122947

> <heavy_atoms>
34

> <LogS>
-6.156

> <LogP>
2.86

> <rotating_bonds>
3

> <PSA>
49.85

> <hb_acceptors>
3

> <hb_donors>
0

> <Collection>
Advanced

> <link>
https://www.enaminestore.com/catalog/Z29122947

> <ROCS_ShapeQuery>
x0446_0A_x1080_0A_x0929_0A_x0812_0A_x0719_0A_x1140_0A_x0528_0A_x0310_0A

> <ROCS_TanimotoCombo>
0.471 

> <ROCS_ShapeTanimoto>
0.286 

> <ROCS_ColorTanimoto>
0.186 

> <ROCS_RefTversky>
0.261 

> <ROCS_RefColorTversky>
0.216 

> <ROCS_RefTverskyCombo>
0.478 

> <ROCS_FitTversky>
1.478 

> <ROCS_FitColorTversky>
0.568 

> <ROCS_FitTverskyCombo>
2.046 

> <ROCS_ColorScore>
-7.772

> <ROCS_Overlap>
3094.912

> <ROCS_Rank>
71                  

$$$$
untitled-dbase-412241_161
  -OEChem-02092406493D

 43 46  0     0  0  0  0  0  0999 V2000
    5.8230   13.0399   24.2887 C   0  0  0  0  0  0  0  0  0  0  0  0
    5.5476   11.6784   24.2288 C   0  0  0  0  0  0  0  0  0  0  0  0
   13.0823   15.0820   22.3813 C   0  0  0  0  0  0  0  0  0  0  0  0
   12.6513   15.5817   21.1524 C   0  0  0  0  0  0  0  0  0  0  0  0
   12.0122    7.6727   22.7362 C   0  0  0  0  0  0  0  0  0  0  0  0
    7.1392   13.4792   24.1859 C   0  0  0  0  0  0  0  0  0  0  0  0
   10.9761    8.5880   22.8850 C   0  0  0  0  0  0  0  0  0  0  0  0
    6.5882   10.7592   24.0661 C   0  0  0  0  0  0  0  0  0  0  0  0
   12.1503   14.6350   23.3180 C   0  0  0  0  0  0  0  0  0  0  0  0
   11.2884   15.6345   20.8603 C   0  0  0  0  0  0  0  0  0  0  0  0
   13.2519    8.0061   23.2574 C   0  0  0  0  0  0  0  0  0  0  0  0
   12.4839   10.0302   24.0264 C   0  0  0  0  0  0  0  0  0  0  0  0
    8.1800   12.5486   24.0225 C   0  0  0  0  0  0  0  0  0  0  0  0
   11.2082    9.7917   23.5411 C   0  0  0  0  0  0  0  0  0  0  0  0
    7.9145   11.1709   23.9604 C   0  0  0  0  0  0  0  0  0  0  0  0
   10.7874   14.6879   23.0259 C   0  0  0  0  0  0  0  0  0  0  0  0
   10.3565   15.1876   21.7970 C   0  0  0  0  0  0  0  0  0  0  0  0
    9.5168   12.9214   23.9131 C   0  0  0  0  0  0  0  0  0  0  0  0
   10.1561   10.7597   23.7105 C   0  0  0  0  0  0  0  0  0  0  0  0
    8.9133   13.0465   20.5605 C   0  0  0  0  0  0  0  0  0  0  0  0
    8.5859   14.5109   20.3606 C   0  0  0  0  0  0  0  0  0  0  0  0
   13.5154    9.1654   23.9009 N   0  0  0  0  0  0  0  0  0  0  0  0
    8.9023   10.2722   23.8040 N   0  0  0  0  0  0  0  0  0  0  0  0
   10.5298   12.0486   23.7561 N   0  0  0  0  0  0  0  0  0  0  0  0
    9.8753   14.2437   23.9617 O   0  0  0  0  0  0  0  0  0  0  0  0
    9.0282   15.2455   21.5003 O   0  0  0  0  0  0  0  0  0  0  0  0
    5.0160   13.7551   24.4150 H   0  0  0  0  0  0  0  0  0  0  0  0
    4.5226   11.3272   24.3086 H   0  0  0  0  0  0  0  0  0  0  0  0
   14.1437   15.0406   22.6087 H   0  0  0  0  0  0  0  0  0  0  0  0
   13.3768   15.9296   20.4233 H   0  0  0  0  0  0  0  0  0  0  0  0
   11.8549    6.7276   22.2293 H   0  0  0  0  0  0  0  0  0  0  0  0
    7.3386   14.5466   24.2339 H   0  0  0  0  0  0  0  0  0  0  0  0
    9.9937    8.3500   22.4847 H   0  0  0  0  0  0  0  0  0  0  0  0
    6.3451    9.6990   24.0231 H   0  0  0  0  0  0  0  0  0  0  0  0
   12.4926   14.2467   24.2735 H   0  0  0  0  0  0  0  0  0  0  0  0
   10.9594   16.0265   19.9018 H   0  0  0  0  0  0  0  0  0  0  0  0
   14.0932    7.3263   23.1671 H   0  0  0  0  0  0  0  0  0  0  0  0
   12.7300   10.9502   24.5489 H   0  0  0  0  0  0  0  0  0  0  0  0
    9.9910   12.8994   20.6738 H   0  0  0  0  0  0  0  0  0  0  0  0
    8.4078   12.6558   21.4498 H   0  0  0  0  0  0  0  0  0  0  0  0
    8.5634   12.4532   19.7092 H   0  0  0  0  0  0  0  0  0  0  0  0
    7.5067   14.6510   20.2481 H   0  0  0  0  0  0  0  0  0  0  0  0
    9.0925   14.8998   19.4723 H   0  0  0  0  0  0  0  0  0  0  0  0
  1  2  1  0  0  0  0
  1  6  2  0  0  0  0
  2  8  2  0  0  0  0
  3  4  1  0  0  0  0
  3  9  2  0  0  0  0
  4 10  2  0  0  0  0
  5  7  2  0  0  0  0
  5 11  1  0  0  0  0
  6 13  1  0  0  0  0
  7 14  1  0  0  0  0
  8 15  1  0  0  0  0
  9 16  1  0  0  0  0
 10 17  1  0  0  0  0
 11 22  2  0  0  0  0
 12 14  2  0  0  0  0
 12 22  1  0  0  0  0
 13 15  1  0  0  0  0
 13 18  2  0  0  0  0
 14 19  1  0  0  0  0
 15 23  2  0  0  0  0
 16 17  2  0  0  0  0
 16 25  1  0  0  0  0
 17 26  1  0  0  0  0
 18 24  1  0  0  0  0
 18 25  1  0  0  0  0
 19 23  1  0  0  0  0
 19 24  2  0  0  0  0
 20 21  1  0  0  0  0
 21 26  1  0  0  0  0
  1 27  1  0  0  0  0
  2 28  1  0  0  0  0
  3 29  1  0  0  0  0
  4 30  1  0  0  0  0
  5 31  1  0  0  0  0
  6 32  1  0  0  0  0
  7 33  1  0  0  0  0
  8 34  1  0  0  0  0
  9 35  1  0  0  0  0
 10 36  1  0  0  0  0
 11 37  1  0  0  0  0
 12 38  1  0  0  0  0
 20 39  1  0  0  0  0
 20 40  1  0  0  0  0
 20 41  1  0  0  0  0
 21 42  1  0  0  0  0
 21 43  1  0  0  0  0
M  END
> <idnumber>
Z52587622

> <heavy_atoms>
26

> <LogS>
-5.84

> <LogP>
3.98

> <rotating_bonds>
5

> <PSA>
57.13

> <hb_acceptors>
4

> <hb_donors>
0

> <Collection>
Legacy

> <link>
https://www.enaminestore.com/catalog/Z52587622

> <ROCS_ShapeQuery>
x0446_0A_x1080_0A_x0929_0A_x0812_0A_x0719_0A_x1140_0A_x0528_0A_x0310_0A

> <ROCS_TanimotoCombo>
0.471 

> <ROCS_ShapeTanimoto>
0.261 

> <ROCS_ColorTanimoto>
0.211 

> <ROCS_RefTversky>
0.238 

> <ROCS_RefColorTversky>
0.225 

> <ROCS_RefTverskyCombo>
0.462 

> <ROCS_FitTversky>
1.580 

> <ROCS_FitColorTversky>
0.771 

> <ROCS_FitTverskyCombo>
2.350 

> <ROCS_ColorScore>
-8.039

> <ROCS_Overlap>
2811.496

> <ROCS_Rank>
72                  

$$$$
untitled-dbase-323048_191
  -OEChem-02092406493D

 49 53  0     0  0  0  0  0  0999 V2000
   12.0168    7.6679   22.7397 C   0  0  0  0  0  0  0  0  0  0  0  0
   10.9649    8.5658   22.8825 C   0  0  0  0  0  0  0  0  0  0  0  0
   13.0850   15.0706   22.3869 C   0  0  0  0  0  0  0  0  0  0  0  0
   12.1457   14.6328   23.3204 C   0  0  0  0  0  0  0  0  0  0  0  0
   11.3019   15.6371   20.8583 C   0  0  0  0  0  0  0  0  0  0  0  0
   13.2479    8.0218   23.2679 C   0  0  0  0  0  0  0  0  0  0  0  0
   12.4420   10.0328   24.0325 C   0  0  0  0  0  0  0  0  0  0  0  0
    8.1645   12.5344   24.0050 C   0  0  0  0  0  0  0  0  0  0  0  0
   11.1732    9.7732   23.5399 C   0  0  0  0  0  0  0  0  0  0  0  0
   12.6631   15.5728   21.1558 C   0  0  0  0  0  0  0  0  0  0  0  0
    6.9374   13.2183   24.1664 C   0  0  0  0  0  0  0  0  0  0  0  0
   10.7844   14.6972   23.0230 C   0  0  0  0  0  0  0  0  0  0  0  0
   10.3625   15.1993   21.7919 C   0  0  0  0  0  0  0  0  0  0  0  0
    5.8652   12.3699   24.2153 C   0  0  0  0  0  0  0  0  0  0  0  0
    9.4975   12.9392   23.9037 C   0  0  0  0  0  0  0  0  0  0  0  0
    7.9281   11.1586   23.9397 C   0  0  0  0  0  0  0  0  0  0  0  0
   10.1031   10.7247   23.7035 C   0  0  0  0  0  0  0  0  0  0  0  0
   13.6425   16.0311   20.1833 C   0  0  0  0  0  0  0  0  0  0  0  0
    6.5068   14.6321   24.3013 C   0  0  0  0  0  0  0  0  0  0  0  0
    4.5620   13.0523   24.3858 C   0  0  0  0  0  0  0  0  0  0  0  0
    4.9635   14.5301   24.0873 C   0  0  0  0  0  0  0  0  0  0  0  0
   13.5685   17.4658   19.7479 C   0  0  0  0  0  0  0  0  0  0  0  0
    8.4550   14.1338   20.8527 C   0  0  0  0  0  0  0  0  0  0  0  0
   13.4885    9.1853   23.9129 N   0  0  0  0  0  0  0  0  0  0  0  0
   10.4751   12.0199   23.7513 N   0  0  0  0  0  0  0  0  0  0  0  0
    8.8656   10.2029   23.7886 N   0  0  0  0  0  0  0  0  0  0  0  0
   14.5259   15.3297   19.6859 O   0  0  0  0  0  0  0  0  0  0  0  0
    9.8657   14.2613   23.9546 O   0  0  0  0  0  0  0  0  0  0  0  0
    9.0359   15.2696   21.4904 O   0  0  0  0  0  0  0  0  0  0  0  0
    6.2611   10.7522   24.0750 S   0  0  0  0  0  0  0  0  0  0  0  0
   11.8781    6.7204   22.2319 H   0  0  0  0  0  0  0  0  0  0  0  0
    9.9889    8.3116   22.4767 H   0  0  0  0  0  0  0  0  0  0  0  0
   14.1431   15.0159   22.6295 H   0  0  0  0  0  0  0  0  0  0  0  0
   12.4807   14.2424   24.2775 H   0  0  0  0  0  0  0  0  0  0  0  0
   10.9695   16.0304   19.9003 H   0  0  0  0  0  0  0  0  0  0  0  0
   14.1008    7.3561   23.1824 H   0  0  0  0  0  0  0  0  0  0  0  0
   12.6699   10.9567   24.5564 H   0  0  0  0  0  0  0  0  0  0  0  0
    6.7301   15.0059   25.3060 H   0  0  0  0  0  0  0  0  0  0  0  0
    6.9660   15.2895   23.5580 H   0  0  0  0  0  0  0  0  0  0  0  0
    3.7941   12.7022   23.6907 H   0  0  0  0  0  0  0  0  0  0  0  0
    4.2015   12.9529   25.4148 H   0  0  0  0  0  0  0  0  0  0  0  0
    4.4094   15.2440   24.7046 H   0  0  0  0  0  0  0  0  0  0  0  0
    4.7345   14.7553   23.0371 H   0  0  0  0  0  0  0  0  0  0  0  0
   14.1681   18.1520   20.3666 H   0  0  0  0  0  0  0  0  0  0  0  0
   12.5400   17.8580   19.7220 H   0  0  0  0  0  0  0  0  0  0  0  0
   13.9524   17.6311   18.7254 H   0  0  0  0  0  0  0  0  0  0  0  0
    7.3943   14.3212   20.6685 H   0  0  0  0  0  0  0  0  0  0  0  0
    8.5752   13.2551   21.4915 H   0  0  0  0  0  0  0  0  0  0  0  0
    8.9630   13.9620   19.9008 H   0  0  0  0  0  0  0  0  0  0  0  0
  1  2  2  0  0  0  0
  1  6  1  0  0  0  0
  2  9  1  0  0  0  0
  3  4  2  0  0  0  0
  3 10  1  0  0  0  0
  4 12  1  0  0  0  0
  5 10  2  0  0  0  0
  5 13  1  0  0  0  0
  6 24  2  0  0  0  0
  7  9  2  0  0  0  0
  7 24  1  0  0  0  0
  8 11  1  0  0  0  0
  8 15  2  0  0  0  0
  8 16  1  0  0  0  0
  9 17  1  0  0  0  0
 10 18  1  0  0  0  0
 11 14  2  0  0  0  0
 11 19  1  0  0  0  0
 12 13  2  0  0  0  0
 12 28  1  0  0  0  0
 13 29  1  0  0  0  0
 14 20  1  0  0  0  0
 14 30  1  0  0  0  0
 15 25  1  0  0  0  0
 15 28  1  0  0  0  0
 16 26  2  0  0  0  0
 16 30  1  0  0  0  0
 17 25  2  0  0  0  0
 17 26  1  0  0  0  0
 18 22  1  0  0  0  0
 18 27  2  0  0  0  0
 19 21  1  0  0  0  0
 20 21  1  0  0  0  0
 23 29  1  0  0  0  0
  1 31  1  0  0  0  0
  2 32  1  0  0  0  0
  3 33  1  0  0  0  0
  4 34  1  0  0  0  0
  5 35  1  0  0  0  0
  6 36  1  0  0  0  0
  7 37  1  0  0  0  0
 19 38  1  0  0  0  0
 19 39  1  0  0  0  0
 20 40  1  0  0  0  0
 20 41  1  0  0  0  0
 21 42  1  0  0  0  0
 21 43  1  0  0  0  0
 22 44  1  0  0  0  0
 22 45  1  0  0  0  0
 22 46  1  0  0  0  0
 23 47  1  0  0  0  0
 23 48  1  0  0  0  0
 23 49  1  0  0  0  0
M  END
> <idnumber>
Z31120785

> <heavy_atoms>
30

> <LogS>
-6.84

> <LogP>
3.997

> <rotating_bonds>
5

> <PSA>
74.2

> <hb_acceptors>
5

> <hb_donors>
0

> <Collection>
Legacy

> <link>
https://www.enaminestore.com/catalog/Z31120785

> <ROCS_ShapeQuery>
x0446_0A_x1080_0A_x0929_0A_x0812_0A_x0719_0A_x1140_0A_x0528_0A_x0310_0A

> <ROCS_TanimotoCombo>
0.471 

> <ROCS_ShapeTanimoto>
0.264 

> <ROCS_ColorTanimoto>
0.207 

> <ROCS_RefTversky>
0.243 

> <ROCS_RefColorTversky>
0.230 

> <ROCS_RefTverskyCombo>
0.474 

> <ROCS_FitTversky>
1.478 

> <ROCS_FitColorTversky>
0.668 

> <ROCS_FitTverskyCombo>
2.146 

> <ROCS_ColorScore>
-8.265

> <ROCS_Overlap>
2880.711

> <ROCS_Rank>
73                  

$$$$
untitled-dbase-328800_125
  -OEChem-02092406493D

 49 53  0     0  0  0  0  0  0999 V2000
   11.4798   14.9794   20.8877 C   0  0  0  0  0  0  0  0  0  0  0  0
   12.8140   15.2125   21.2212 C   0  0  0  0  0  0  0  0  0  0  0  0
   12.3334   14.6668   23.5252 C   0  0  0  0  0  0  0  0  0  0  0  0
    8.1278   12.6715   24.2669 C   0  0  0  0  0  0  0  0  0  0  0  0
    7.0864   13.5391   24.6696 C   0  0  0  0  0  0  0  0  0  0  0  0
   10.5724   14.5901   21.8729 C   0  0  0  0  0  0  0  0  0  0  0  0
   10.9992   14.4337   23.1917 C   0  0  0  0  0  0  0  0  0  0  0  0
   13.2408   15.0561   22.5400 C   0  0  0  0  0  0  0  0  0  0  0  0
    5.8794   12.9022   24.7664 C   0  0  0  0  0  0  0  0  0  0  0  0
    9.4950   12.8361   24.0328 C   0  0  0  0  0  0  0  0  0  0  0  0
    7.6175   11.3843   24.0781 C   0  0  0  0  0  0  0  0  0  0  0  0
    9.6233   10.5972   23.5018 C   0  0  0  0  0  0  0  0  0  0  0  0
    6.9625   14.9755   25.0215 C   0  0  0  0  0  0  0  0  0  0  0  0
    4.7646   13.7810   25.1882 C   0  0  0  0  0  0  0  0  0  0  0  0
    5.4155   15.1874   25.0082 C   0  0  0  0  0  0  0  0  0  0  0  0
   12.7199    8.8654   22.3733 C   0  0  0  0  0  0  0  0  0  0  0  0
   12.3323    9.6504   24.6165 C   0  0  0  0  0  0  0  0  0  0  0  0
   14.2009    9.1905   22.5458 C   0  0  0  0  0  0  0  0  0  0  0  0
   13.8222    9.9580   24.7357 C   0  0  0  0  0  0  0  0  0  0  0  0
   10.4884    9.4588   23.0726 C   0  0  0  0  0  0  0  0  0  0  0  0
   10.2477   11.7837   23.6459 N   0  0  0  0  0  0  0  0  0  0  0  0
    8.3241   10.3035   23.6937 N   0  0  0  0  0  0  0  0  0  0  0  0
   11.9115    9.7605   23.2129 N   0  0  0  0  0  0  0  0  0  0  0  0
    9.2163   14.3557   21.5145 N   0  3  0  0  0  0  0  0  0  0  0  0
    8.8737   13.2027   21.1605 O   0  5  0  0  0  0  0  0  0  0  0  0
    8.4033   15.3090   21.5628 O   0  0  0  0  0  0  0  0  0  0  0  0
   14.5808    9.0673   23.9169 O   0  0  0  0  0  0  0  0  0  0  0  0
   10.1214   14.0489   24.1834 O   0  0  0  0  0  0  0  0  0  0  0  0
   14.5222   15.2790   22.8602 F   0  0  0  0  0  0  0  0  0  0  0  0
    5.9286   11.2744   24.3907 S   0  0  0  0  0  0  0  0  0  0  0  0
   11.1608   15.1055   19.8562 H   0  0  0  0  0  0  0  0  0  0  0  0
   13.5208   15.5154   20.4547 H   0  0  0  0  0  0  0  0  0  0  0  0
   12.6735   14.5464   24.5501 H   0  0  0  0  0  0  0  0  0  0  0  0
    7.3656   15.1603   26.0226 H   0  0  0  0  0  0  0  0  0  0  0  0
    7.4572   15.6341   24.3023 H   0  0  0  0  0  0  0  0  0  0  0  0
    3.8702   13.6762   24.5682 H   0  0  0  0  0  0  0  0  0  0  0  0
    4.5083   13.6084   26.2384 H   0  0  0  0  0  0  0  0  0  0  0  0
    5.0865   15.8984   25.7722 H   0  0  0  0  0  0  0  0  0  0  0  0
    5.1206   15.5937   24.0315 H   0  0  0  0  0  0  0  0  0  0  0  0
   12.4498    8.9895   21.3207 H   0  0  0  0  0  0  0  0  0  0  0  0
   12.5423    7.8218   22.6551 H   0  0  0  0  0  0  0  0  0  0  0  0
   12.1391    8.6390   24.9903 H   0  0  0  0  0  0  0  0  0  0  0  0
   11.7745   10.3597   25.2346 H   0  0  0  0  0  0  0  0  0  0  0  0
   14.8062    8.4850   21.9675 H   0  0  0  0  0  0  0  0  0  0  0  0
   14.4370   10.2005   22.1895 H   0  0  0  0  0  0  0  0  0  0  0  0
   14.0463   10.9943   24.4541 H   0  0  0  0  0  0  0  0  0  0  0  0
   14.1502    9.8187   25.7707 H   0  0  0  0  0  0  0  0  0  0  0  0
   10.2806    8.5591   23.6676 H   0  0  0  0  0  0  0  0  0  0  0  0
   10.3108    9.1935   22.0219 H   0  0  0  0  0  0  0  0  0  0  0  0
  1  2  2  0  0  0  0
  1  6  1  0  0  0  0
  2  8  1  0  0  0  0
  3  7  1  0  0  0  0
  3  8  2  0  0  0  0
  4  5  1  0  0  0  0
  4 10  2  0  0  0  0
  4 11  1  0  0  0  0
  5  9  2  0  0  0  0
  5 13  1  0  0  0  0
  6  7  2  0  0  0  0
  6 24  1  0  0  0  0
  7 28  1  0  0  0  0
  8 29  1  0  0  0  0
  9 14  1  0  0  0  0
  9 30  1  0  0  0  0
 10 21  1  0  0  0  0
 10 28  1  0  0  0  0
 11 22  2  0  0  0  0
 11 30  1  0  0  0  0
 12 20  1  0  0  0  0
 12 21  2  0  0  0  0
 12 22  1  0  0  0  0
 13 15  1  0  0  0  0
 14 15  1  0  0  0  0
 16 18  1  0  0  0  0
 16 23  1  0  0  0  0
 17 19  1  0  0  0  0
 17 23  1  0  0  0  0
 18 27  1  0  0  0  0
 19 27  1  0  0  0  0
 20 23  1  0  0  0  0
 24 25  1  0  0  0  0
 24 26  2  0  0  0  0
  1 31  1  0  0  0  0
  2 32  1  0  0  0  0
  3 33  1  0  0  0  0
 13 34  1  0  0  0  0
 13 35  1  0  0  0  0
 14 36  1  0  0  0  0
 14 37  1  0  0  0  0
 15 38  1  0  0  0  0
 15 39  1  0  0  0  0
 16 40  1  0  0  0  0
 16 41  1  0  0  0  0
 17 42  1  0  0  0  0
 17 43  1  0  0  0  0
 18 44  1  0  0  0  0
 18 45  1  0  0  0  0
 19 46  1  0  0  0  0
 19 47  1  0  0  0  0
 20 48  1  0  0  0  0
 20 49  1  0  0  0  0
M  CHG  2  24   1  25  -1
M  END
> <idnumber>
Z31266367

> <heavy_atoms>
30

> <LogS>
-5.82

> <LogP>
3.35

> <rotating_bonds>
5

> <PSA>
90.62

> <hb_acceptors>
6

> <hb_donors>
0

> <Collection>
Legacy

> <link>
https://www.enaminestore.com/catalog/Z31266367

> <ROCS_ShapeQuery>
x0446_0A_x1080_0A_x0929_0A_x0812_0A_x0719_0A_x1140_0A_x0528_0A_x0310_0A

> <ROCS_TanimotoCombo>
0.471 

> <ROCS_ShapeTanimoto>
0.284 

> <ROCS_ColorTanimoto>
0.187 

> <ROCS_RefTversky>
0.257 

> <ROCS_RefColorTversky>
0.216 

> <ROCS_RefTverskyCombo>
0.473 

> <ROCS_FitTversky>
1.569 

> <ROCS_FitColorTversky>
0.582 

> <ROCS_FitTverskyCombo>
2.151 

> <ROCS_ColorScore>
-7.762

> <ROCS_Overlap>
3045.297

> <ROCS_Rank>
74                  

$$$$
untitled-dbase-1092193_28
  -OEChem-02092406493D

 46 49  0     1  0  0  0  0  0999 V2000
    4.4479   14.9770   25.3606 C   0  0  0  0  0  0  0  0  0  0  0  0
    4.2673   13.6126   25.1632 C   0  0  0  0  0  0  0  0  0  0  0  0
    5.4993   15.5940   24.7020 C   0  0  0  0  0  0  0  0  0  0  0  0
   12.8821   15.6627   22.4344 C   0  0  0  0  0  0  0  0  0  0  0  0
    5.1313   12.9166   24.3252 C   0  0  0  0  0  0  0  0  0  0  0  0
    6.1520   13.6258   23.7128 C   0  0  0  0  0  0  0  0  0  0  0  0
   10.6673   15.4535   22.1387 C   0  0  0  0  0  0  0  0  0  0  0  0
   11.8245   13.8156   23.1462 C   0  0  0  0  0  0  0  0  0  0  0  0
    7.0885   12.9506   22.8236 C   0  0  0  0  0  0  0  0  0  0  0  0
    8.2645   10.3731   25.0620 C   0  0  0  0  0  0  0  0  0  0  0  0
    8.5046    9.7074   23.6940 C   0  0  0  0  0  0  0  0  0  0  0  0
    9.6531   12.4992   24.8507 C   0  0  0  0  0  0  0  0  0  0  0  0
   10.0512   11.3904   22.5673 C   0  0  0  0  0  0  0  0  0  0  0  0
    8.2456   11.8775   24.7699 C   0  0  1  0  0  0  0  0  0  0  0  0
    8.6052   10.8712   22.7006 C   0  0  2  0  0  0  0  0  0  0  0  0
   10.6628   11.7731   23.9342 C   0  0  0  0  0  0  0  0  0  0  0  0
   13.1280   12.0116   24.2446 C   0  0  0  0  0  0  0  0  0  0  0  0
    6.3591   14.9512   23.8803 N   0  0  0  0  0  0  0  0  0  0  0  0
   11.7556   16.2193   21.9603 N   0  0  0  0  0  0  0  0  0  0  0  0
   12.9930   14.4681   23.0376 N   0  0  0  0  0  0  0  0  0  0  0  0
   10.6251   14.2444   22.7213 N   0  0  0  0  0  0  0  0  0  0  0  0
    7.8393   11.9167   23.3737 N   0  0  0  0  0  0  0  0  0  0  0  0
    9.4424   15.9710   21.6640 N   0  0  0  0  0  0  0  0  0  0  0  0
   11.8599   12.5600   23.7652 N   0  0  3  0  0  0  0  0  0  0  0  0
    7.1910   13.2809   21.6411 O   0  0  0  0  0  0  0  0  0  0  0  0
    4.9724   11.6025   24.1240 F   0  0  0  0  0  0  0  0  0  0  0  0
    3.7854   15.5400   26.0078 H   0  0  0  0  0  0  0  0  0  0  0  0
    3.4553   13.0923   25.6617 H   0  0  0  0  0  0  0  0  0  0  0  0
    5.6837   16.6562   24.8224 H   0  0  0  0  0  0  0  0  0  0  0  0
   13.7932   16.2364   22.3200 H   0  0  0  0  0  0  0  0  0  0  0  0
    7.2925   10.0509   25.4538 H   0  0  0  0  0  0  0  0  0  0  0  0
    9.0276   10.0901   25.7940 H   0  0  0  0  0  0  0  0  0  0  0  0
    9.3965    9.0727   23.6988 H   0  0  0  0  0  0  0  0  0  0  0  0
    7.6457    9.0720   23.4474 H   0  0  0  0  0  0  0  0  0  0  0  0
    9.5811   13.5581   24.5677 H   0  0  0  0  0  0  0  0  0  0  0  0
   10.0138   12.4722   25.8863 H   0  0  0  0  0  0  0  0  0  0  0  0
   10.6773   10.6277   22.0880 H   0  0  0  0  0  0  0  0  0  0  0  0
   10.0485   12.2631   21.9005 H   0  0  0  0  0  0  0  0  0  0  0  0
    7.5457   12.4237   25.4099 H   0  0  0  0  0  0  0  0  0  0  0  0
    8.1940   10.6166   21.7199 H   0  0  0  0  0  0  0  0  0  0  0  0
   10.9609   10.8347   24.4455 H   0  0  0  0  0  0  0  0  0  0  0  0
   12.9534   11.0244   24.6975 H   0  0  0  0  0  0  0  0  0  0  0  0
   13.8257   11.9093   23.4003 H   0  0  0  0  0  0  0  0  0  0  0  0
   13.5593   12.6887   24.9966 H   0  0  0  0  0  0  0  0  0  0  0  0
    9.4232   16.8872   21.2657 H   0  0  0  0  0  0  0  0  0  0  0  0
    8.6026   15.4524   21.8199 H   0  0  0  0  0  0  0  0  0  0  0  0
  1  2  2  0  0  0  0
  1  3  1  0  0  0  0
  2  5  1  0  0  0  0
  3 18  2  0  0  0  0
  4 19  1  0  0  0  0
  4 20  2  0  0  0  0
  5  6  2  0  0  0  0
  5 26  1  0  0  0  0
  6  9  1  0  0  0  0
  6 18  1  0  0  0  0
  7 19  2  0  0  0  0
  7 21  1  0  0  0  0
  7 23  1  0  0  0  0
  8 20  1  0  0  0  0
  8 21  2  0  0  0  0
  8 24  1  0  0  0  0
  9 22  1  0  0  0  0
  9 25  2  0  0  0  0
 10 11  1  0  0  0  0
 10 14  1  0  0  0  0
 11 15  1  0  0  0  0
 12 14  1  0  0  0  0
 12 16  1  0  0  0  0
 13 15  1  0  0  0  0
 13 16  1  0  0  0  0
 14 22  1  0  0  0  0
 15 22  1  0  0  0  0
 16 24  1  0  0  0  0
 17 24  1  0  0  0  0
  1 27  1  0  0  0  0
  2 28  1  0  0  0  0
  3 29  1  0  0  0  0
  4 30  1  0  0  0  0
 10 31  1  0  0  0  0
 10 32  1  0  0  0  0
 11 33  1  0  0  0  0
 11 34  1  0  0  0  0
 12 35  1  0  0  0  0
 12 36  1  0  0  0  0
 13 37  1  0  0  0  0
 13 38  1  0  0  0  0
 14 39  1  0  0  0  0
 15 40  1  0  0  0  0
 16 41  1  0  0  0  0
 17 42  1  0  0  0  0
 17 43  1  0  0  0  0
 17 44  1  0  0  0  0
 23 45  1  0  0  0  0
 23 46  1  0  0  0  0
M  END
> <idnumber>
Z4515313158

> <heavy_atoms>
26

> <LogS>
-4.17

> <LogP>
-0.314

> <rotating_bonds>
3

> <PSA>
101.13

> <hb_acceptors>
7

> <hb_donors>
1

> <Collection>
Advanced

> <link>
https://www.enaminestore.com/catalog/Z4515313158

> <ROCS_ShapeQuery>
x0446_0A_x1080_0A_x0929_0A_x0812_0A_x0719_0A_x1140_0A_x0528_0A_x0310_0A

> <ROCS_TanimotoCombo>
0.471 

> <ROCS_ShapeTanimoto>
0.262 

> <ROCS_ColorTanimoto>
0.209 

> <ROCS_RefTversky>
0.238 

> <ROCS_RefColorTversky>
0.250 

> <ROCS_RefTverskyCombo>
0.488 

> <ROCS_FitTversky>
1.592 

> <ROCS_FitColorTversky>
0.563 

> <ROCS_FitTverskyCombo>
2.155 

> <ROCS_ColorScore>
-9.008

> <ROCS_Overlap>
2819.523

> <ROCS_Rank>
75                  

$$$$
untitled-dbase-1167042_73
  -OEChem-02092406493D

 54 59  0     1  0  0  0  0  0999 V2000
    3.0515   11.0944   21.3452 C   0  0  0  0  0  0  0  0  0  0  0  0
    1.8023   10.7001   20.8496 C   0  0  0  0  0  0  0  0  0  0  0  0
    1.1024   13.0174   20.5878 C   0  0  0  0  0  0  0  0  0  0  0  0
    3.3242   12.4677   21.4615 C   0  0  0  0  0  0  0  0  0  0  0  0
    0.8457   11.6468   20.4780 C   0  0  0  0  0  0  0  0  0  0  0  0
    2.3537   13.3892   21.0843 C   0  0  0  0  0  0  0  0  0  0  0  0
    4.4092   13.2598   21.8947 C   0  0  0  0  0  0  0  0  0  0  0  0
   10.5906   14.8470   21.7549 C   0  0  0  0  0  0  0  0  0  0  0  0
   13.2450   15.0407   22.6514 C   0  0  0  0  0  0  0  0  0  0  0  0
   12.5826   13.7516   22.5169 C   0  0  0  0  0  0  0  0  0  0  0  0
   12.5730   16.1608   22.3403 C   0  0  0  0  0  0  0  0  0  0  0  0
   11.3086   13.6659   22.0863 C   0  0  0  0  0  0  0  0  0  0  0  0
    5.7236   12.7964   22.4093 C   0  0  0  0  0  0  0  0  0  0  0  0
   10.6892   12.3311   21.9696 C   0  0  0  0  0  0  0  0  0  0  0  0
    9.3526   10.2219   24.6117 C   0  0  0  0  0  0  0  0  0  0  0  0
    7.4511   11.8818   24.7913 C   0  0  0  0  0  0  0  0  0  0  0  0
    7.9487   10.6693   22.5613 C   0  0  0  0  0  0  0  0  0  0  0  0
    9.8674   12.5208   24.3786 C   0  0  0  0  0  0  0  0  0  0  0  0
    8.9239   11.5891   25.1545 C   0  0  2  0  0  0  0  0  0  0  0  0
    9.3802   10.5387   23.1162 C   0  0  1  0  0  0  0  0  0  0  0  0
    6.9096   11.0065   23.6455 C   0  0  2  0  0  0  0  0  0  0  0  0
   -0.4758   11.1899   19.9542 C   0  0  0  0  0  0  0  0  0  0  0  0
    4.1632   14.5688   21.8061 N   0  0  0  0  0  0  0  0  0  0  0  0
    9.3716   15.0781   21.3195 N   0  0  0  0  0  0  0  0  0  0  0  0
    9.2676   16.4381   21.1856 N   0  0  0  0  0  0  0  0  0  0  0  0
   10.3947   17.0458   21.5291 N   0  0  0  0  0  0  0  0  0  0  0  0
    2.9142   14.6168   21.3135 N   0  0  0  0  0  0  0  0  0  0  0  0
   11.2562   16.0682   21.8951 N   0  0  0  0  0  0  0  0  0  0  0  0
   10.0299   11.8563   23.0866 N   0  0  0  0  0  0  0  0  0  0  0  0
    5.7169   11.5785   23.0681 N   0  0  0  0  0  0  0  0  0  0  0  0
    6.7144   13.5040   22.2478 O   0  0  0  0  0  0  0  0  0  0  0  0
   10.7920   11.7213   20.9058 O   0  0  0  0  0  0  0  0  0  0  0  0
    3.7865   10.3479   21.6308 H   0  0  0  0  0  0  0  0  0  0  0  0
    1.5835    9.6386   20.7567 H   0  0  0  0  0  0  0  0  0  0  0  0
    0.3662   13.7606   20.3009 H   0  0  0  0  0  0  0  0  0  0  0  0
   14.2698   15.0686   23.0015 H   0  0  0  0  0  0  0  0  0  0  0  0
   13.1635   12.8730   22.7794 H   0  0  0  0  0  0  0  0  0  0  0  0
   13.0073   17.1498   22.4170 H   0  0  0  0  0  0  0  0  0  0  0  0
   10.3519    9.9564   24.9718 H   0  0  0  0  0  0  0  0  0  0  0  0
    8.6613    9.4178   24.8743 H   0  0  0  0  0  0  0  0  0  0  0  0
    6.8430   11.6899   25.6808 H   0  0  0  0  0  0  0  0  0  0  0  0
    7.3286   12.9425   24.5589 H   0  0  0  0  0  0  0  0  0  0  0  0
    7.9188   11.4076   21.7519 H   0  0  0  0  0  0  0  0  0  0  0  0
    7.6718    9.7110   22.1046 H   0  0  0  0  0  0  0  0  0  0  0  0
    9.4789   13.5364   24.2614 H   0  0  0  0  0  0  0  0  0  0  0  0
   10.8530   12.5681   24.8552 H   0  0  0  0  0  0  0  0  0  0  0  0
    9.0751   11.6786   26.2311 H   0  0  0  0  0  0  0  0  0  0  0  0
    9.9582    9.8141   22.5340 H   0  0  0  0  0  0  0  0  0  0  0  0
    6.5517   10.0506   24.0835 H   0  0  0  0  0  0  0  0  0  0  0  0
   -1.1894   11.0679   20.7774 H   0  0  0  0  0  0  0  0  0  0  0  0
   -0.8890   11.9103   19.2374 H   0  0  0  0  0  0  0  0  0  0  0  0
   -0.3837   10.2322   19.4267 H   0  0  0  0  0  0  0  0  0  0  0  0
    2.4982   15.5259   21.1544 H   0  0  0  0  0  0  0  0  0  0  0  0
    4.8479   11.0783   23.2188 H   0  0  0  0  0  0  0  0  0  0  0  0
  1  2  2  0  0  0  0
  1  4  1  0  0  0  0
  2  5  1  0  0  0  0
  3  5  2  0  0  0  0
  3  6  1  0  0  0  0
  4  6  2  0  0  0  0
  4  7  1  0  0  0  0
  5 22  1  0  0  0  0
  6 27  1  0  0  0  0
  7 13  1  0  0  0  0
  7 23  2  0  0  0  0
  8 12  1  0  0  0  0
  8 24  2  0  0  0  0
  8 28  1  0  0  0  0
  9 10  1  0  0  0  0
  9 11  2  0  0  0  0
 10 12  2  0  0  0  0
 11 28  1  0  0  0  0
 12 14  1  0  0  0  0
 13 30  1  0  0  0  0
 13 31  2  0  0  0  0
 14 29  1  0  0  0  0
 14 32  2  0  0  0  0
 15 19  1  6  0  0  0
 15 20  1  6  0  0  0
 16 19  1  0  0  0  0
 16 21  1  0  0  0  0
 17 20  1  0  0  0  0
 17 21  1  0  0  0  0
 18 19  1  0  0  0  0
 18 29  1  0  0  0  0
 20 29  1  0  0  0  0
 21 30  1  1  0  0  0
 23 27  1  0  0  0  0
 24 25  1  0  0  0  0
 25 26  2  0  0  0  0
 26 28  1  0  0  0  0
  1 33  1  0  0  0  0
  2 34  1  0  0  0  0
  3 35  1  0  0  0  0
  9 36  1  0  0  0  0
 10 37  1  0  0  0  0
 11 38  1  0  0  0  0
 15 39  1  0  0  0  0
 15 40  1  0  0  0  0
 16 41  1  0  0  0  0
 16 42  1  0  0  0  0
 17 43  1  0  0  0  0
 17 44  1  0  0  0  0
 18 45  1  0  0  0  0
 18 46  1  0  0  0  0
 19 47  1  0  0  0  0
 20 48  1  0  0  0  0
 21 49  1  0  0  0  0
 22 50  1  0  0  0  0
 22 51  1  0  0  0  0
 22 52  1  0  0  0  0
 27 53  1  0  0  0  0
 30 54  1  0  0  0  0
M  END
> <idnumber>
Z8320497326

> <heavy_atoms>
32

> <LogS>
-5.52

> <LogP>
1.126

> <rotating_bonds>
3

> <PSA>
121.17

> <hb_acceptors>
6

> <hb_donors>
2

> <Collection>
Advanced

> <link>
https://www.enaminestore.com/catalog/Z8320497326

> <ROCS_ShapeQuery>
x0446_0A_x1080_0A_x0929_0A_x0812_0A_x0719_0A_x1140_0A_x0528_0A_x0310_0A

> <ROCS_TanimotoCombo>
0.471 

> <ROCS_ShapeTanimoto>
0.244 

> <ROCS_ColorTanimoto>
0.227 

> <ROCS_RefTversky>
0.231 

> <ROCS_RefColorTversky>
0.284 

> <ROCS_RefTverskyCombo>
0.514 

> <ROCS_FitTversky>
1.318 

> <ROCS_FitColorTversky>
0.529 

> <ROCS_FitTverskyCombo>
1.847 

> <ROCS_ColorScore>
-10.291

> <ROCS_Overlap>
2729.415

> <ROCS_Rank>
76                  

$$$$
untitled-dbase-462518_19
  -OEChem-02092406493D

 49 54  0     0  0  0  0  0  0999 V2000
    4.0417   11.4467   25.4955 C   0  0  0  0  0  0  0  0  0  0  0  0
   11.4003    8.8283   22.6825 C   0  0  0  0  0  0  0  0  0  0  0  0
   12.1355   10.0032   22.6802 C   0  0  0  0  0  0  0  0  0  0  0  0
    4.0800   12.8163   25.7485 C   0  0  0  0  0  0  0  0  0  0  0  0
    5.1706   10.7756   25.0120 C   0  0  0  0  0  0  0  0  0  0  0  0
   12.5341   16.1091   22.9500 C   0  0  0  0  0  0  0  0  0  0  0  0
   10.0718    8.8500   23.1029 C   0  0  0  0  0  0  0  0  0  0  0  0
   11.5359   11.1898   23.0982 C   0  0  0  0  0  0  0  0  0  0  0  0
    5.2439   13.5581   25.5274 C   0  0  0  0  0  0  0  0  0  0  0  0
   11.1686   16.0114   23.2419 C   0  0  0  0  0  0  0  0  0  0  0  0
   12.3579   14.4007   21.2179 C   0  0  0  0  0  0  0  0  0  0  0  0
    6.3560   11.5016   24.7811 C   0  0  0  0  0  0  0  0  0  0  0  0
   11.0164   14.3258   21.5269 C   0  0  0  0  0  0  0  0  0  0  0  0
   13.1224   15.3118   21.9481 C   0  0  0  0  0  0  0  0  0  0  0  0
    9.4602   10.0272   23.5229 C   0  0  0  0  0  0  0  0  0  0  0  0
   10.2104   11.2270   23.5204 C   0  0  0  0  0  0  0  0  0  0  0  0
    7.6526   11.1653   24.3097 C   0  0  0  0  0  0  0  0  0  0  0  0
    6.3663   12.8761   25.0439 C   0  0  0  0  0  0  0  0  0  0  0  0
   10.4183   15.1064   22.5140 C   0  0  0  0  0  0  0  0  0  0  0  0
    8.4101   12.3192   24.2959 C   0  0  0  0  0  0  0  0  0  0  0  0
    9.9645   13.4889   20.9559 C   0  0  0  0  0  0  0  0  0  0  0  0
    8.6789   13.8421   21.6941 C   0  0  0  0  0  0  0  0  0  0  0  0
   14.5820   15.4458   21.6653 C   0  0  0  0  0  0  0  0  0  0  0  0
    8.0584   14.7223   24.8683 C   0  0  0  0  0  0  0  0  0  0  0  0
    8.1363   15.4517   23.5315 C   0  0  0  0  0  0  0  0  0  0  0  0
    8.1793    9.9835   23.9158 N   0  0  0  0  0  0  0  0  0  0  0  0
    9.6913   12.4000   23.9103 N   0  0  0  0  0  0  0  0  0  0  0  0
    7.6271   13.3462   24.7401 N   0  0  0  0  0  0  0  0  0  0  0  0
    9.0412   14.8190   22.6102 N   0  0  0  0  0  0  0  0  0  0  0  0
   10.0414   12.6670   20.0752 O   0  0  0  0  0  0  0  0  0  0  0  0
    7.6178   13.3116   21.4457 O   0  0  0  0  0  0  0  0  0  0  0  0
    3.1250   10.8914   25.6751 H   0  0  0  0  0  0  0  0  0  0  0  0
   11.8551    7.8967   22.3599 H   0  0  0  0  0  0  0  0  0  0  0  0
   13.1715   10.0006   22.3556 H   0  0  0  0  0  0  0  0  0  0  0  0
    3.1912   13.3177   26.1232 H   0  0  0  0  0  0  0  0  0  0  0  0
    5.1262    9.7073   24.8202 H   0  0  0  0  0  0  0  0  0  0  0  0
   13.1447   16.8142   23.5098 H   0  0  0  0  0  0  0  0  0  0  0  0
    9.5091    7.9181   23.0982 H   0  0  0  0  0  0  0  0  0  0  0  0
   12.1279   12.1033   23.0887 H   0  0  0  0  0  0  0  0  0  0  0  0
    5.2677   14.6243   25.7265 H   0  0  0  0  0  0  0  0  0  0  0  0
   10.7303   16.6313   24.0158 H   0  0  0  0  0  0  0  0  0  0  0  0
   12.7975   13.7806   20.4450 H   0  0  0  0  0  0  0  0  0  0  0  0
   15.1561   14.7523   22.2910 H   0  0  0  0  0  0  0  0  0  0  0  0
   14.8038   15.2313   20.6124 H   0  0  0  0  0  0  0  0  0  0  0  0
   14.9326   16.4666   21.8633 H   0  0  0  0  0  0  0  0  0  0  0  0
    9.0450   14.7052   25.3468 H   0  0  0  0  0  0  0  0  0  0  0  0
    7.3729   15.2293   25.5578 H   0  0  0  0  0  0  0  0  0  0  0  0
    7.1523   15.4614   23.0528 H   0  0  0  0  0  0  0  0  0  0  0  0
    8.4673   16.4875   23.6579 H   0  0  0  0  0  0  0  0  0  0  0  0
  1  4  1  0  0  0  0
  1  5  2  0  0  0  0
  2  3  1  0  0  0  0
  2  7  2  0  0  0  0
  3  8  2  0  0  0  0
  4  9  2  0  0  0  0
  5 12  1  0  0  0  0
  6 10  2  0  0  0  0
  6 14  1  0  0  0  0
  7 15  1  0  0  0  0
  8 16  1  0  0  0  0
  9 18  1  0  0  0  0
 10 19  1  0  0  0  0
 11 13  1  0  0  0  0
 11 14  2  0  0  0  0
 12 17  1  0  0  0  0
 12 18  2  0  0  0  0
 13 19  2  0  0  0  0
 13 21  1  0  0  0  0
 14 23  1  0  0  0  0
 15 16  1  0  0  0  0
 15 26  2  0  0  0  0
 16 27  2  0  0  0  0
 17 20  2  0  0  0  0
 17 26  1  0  0  0  0
 18 28  1  0  0  0  0
 19 29  1  0  0  0  0
 20 27  1  0  0  0  0
 20 28  1  0  0  0  0
 21 22  1  0  0  0  0
 21 30  2  0  0  0  0
 22 29  1  0  0  0  0
 22 31  2  0  0  0  0
 24 25  1  0  0  0  0
 24 28  1  0  0  0  0
 25 29  1  0  0  0  0
  1 32  1  0  0  0  0
  2 33  1  0  0  0  0
  3 34  1  0  0  0  0
  4 35  1  0  0  0  0
  5 36  1  0  0  0  0
  6 37  1  0  0  0  0
  7 38  1  0  0  0  0
  8 39  1  0  0  0  0
  9 40  1  0  0  0  0
 10 41  1  0  0  0  0
 11 42  1  0  0  0  0
 23 43  1  0  0  0  0
 23 44  1  0  0  0  0
 23 45  1  0  0  0  0
 24 46  1  0  0  0  0
 24 47  1  0  0  0  0
 25 48  1  0  0  0  0
 25 49  1  0  0  0  0
M  END
> <idnumber>
Z57728576

> <heavy_atoms>
31

> <LogS>
-6.88

> <LogP>
4.377

> <rotating_bonds>
3

> <PSA>
68.09

> <hb_acceptors>
4

> <hb_donors>
0

> <Collection>
Legacy

> <link>
https://www.enaminestore.com/catalog/Z57728576

> <ROCS_ShapeQuery>
x0446_0A_x1080_0A_x0929_0A_x0812_0A_x0719_0A_x1140_0A_x0528_0A_x0310_0A

> <ROCS_TanimotoCombo>
0.471 

> <ROCS_ShapeTanimoto>
0.303 

> <ROCS_ColorTanimoto>
0.167 

> <ROCS_RefTversky>
0.273 

> <ROCS_RefColorTversky>
0.189 

> <ROCS_RefTverskyCombo>
0.462 

> <ROCS_FitTversky>
1.580 

> <ROCS_FitColorTversky>
0.593 

> <ROCS_FitTverskyCombo>
2.174 

> <ROCS_ColorScore>
-6.780

> <ROCS_Overlap>
3228.290

> <ROCS_Rank>
77                  

$$$$
untitled-dbase-886880_8
  -OEChem-02092406493D

 41 44  0     1  0  0  0  0  0999 V2000
    6.8962   15.8836   25.0030 C   0  0  0  0  0  0  0  0  0  0  0  0
    6.7362   16.7043   23.8865 C   0  0  0  0  0  0  0  0  0  0  0  0
   12.8644   14.6704   21.3533 C   0  0  0  0  0  0  0  0  0  0  0  0
    7.8509   14.8667   24.9901 C   0  0  0  0  0  0  0  0  0  0  0  0
    7.5310   16.5081   22.7571 C   0  0  0  0  0  0  0  0  0  0  0  0
   11.4913   14.5201   21.1941 C   0  0  0  0  0  0  0  0  0  0  0  0
   13.3170   15.7498   22.0947 C   0  0  0  0  0  0  0  0  0  0  0  0
   11.1779   16.4857   22.4959 C   0  0  0  0  0  0  0  0  0  0  0  0
    8.6456   14.6705   23.8607 C   0  0  0  0  0  0  0  0  0  0  0  0
   10.6250   15.4408   21.7731 C   0  0  0  0  0  0  0  0  0  0  0  0
    8.4857   15.4912   22.7442 C   0  0  0  0  0  0  0  0  0  0  0  0
    9.6449   13.5938   23.8682 C   0  0  0  0  0  0  0  0  0  0  0  0
    8.3372   10.8758   21.8731 C   0  0  0  0  0  0  0  0  0  0  0  0
    9.7080   10.3504   22.3466 C   0  0  0  0  0  0  0  0  0  0  0  0
    7.2290   11.2633   24.1150 C   0  0  0  0  0  0  0  0  0  0  0  0
    9.3626   10.4450   24.8521 C   0  0  0  0  0  0  0  0  0  0  0  0
    7.9405   11.9241   22.9207 C   0  0  1  0  0  0  0  0  0  0  0  0
    9.9993   11.1332   23.6328 C   0  0  2  0  0  0  0  0  0  0  0  0
   12.5063   16.6646   22.6722 N   0  0  0  0  0  0  0  0  0  0  0  0
    9.2410   12.3516   23.4192 N   0  0  0  0  0  0  0  0  0  0  0  0
   10.7705   13.8720   24.2753 O   0  0  0  0  0  0  0  0  0  0  0  0
    7.9773   10.1410   24.6140 O   0  0  0  0  0  0  0  0  0  0  0  0
    9.2540   15.3164   21.6320 O   0  0  0  0  0  0  0  0  0  0  0  0
    6.2771   16.0367   25.8824 H   0  0  0  0  0  0  0  0  0  0  0  0
    5.9924   17.4954   23.8970 H   0  0  0  0  0  0  0  0  0  0  0  0
   13.5580   13.9650   20.9104 H   0  0  0  0  0  0  0  0  0  0  0  0
    7.9671   14.2335   25.8660 H   0  0  0  0  0  0  0  0  0  0  0  0
    7.4014   17.1510   21.8907 H   0  0  0  0  0  0  0  0  0  0  0  0
   11.1023   13.6851   20.6183 H   0  0  0  0  0  0  0  0  0  0  0  0
   14.3793   15.9108   22.2475 H   0  0  0  0  0  0  0  0  0  0  0  0
   10.5492   17.2335   22.9688 H   0  0  0  0  0  0  0  0  0  0  0  0
    8.4497   11.3443   20.8883 H   0  0  0  0  0  0  0  0  0  0  0  0
    7.6024   10.0696   21.7802 H   0  0  0  0  0  0  0  0  0  0  0  0
    9.6958    9.2667   22.5018 H   0  0  0  0  0  0  0  0  0  0  0  0
   10.4646   10.5730   21.5852 H   0  0  0  0  0  0  0  0  0  0  0  0
    7.0740   11.9769   24.9327 H   0  0  0  0  0  0  0  0  0  0  0  0
    6.2467   10.8881   23.8099 H   0  0  0  0  0  0  0  0  0  0  0  0
    9.8712    9.4986   25.0622 H   0  0  0  0  0  0  0  0  0  0  0  0
    9.4387   11.0708   25.7491 H   0  0  0  0  0  0  0  0  0  0  0  0
    7.3485   12.7436   22.5062 H   0  0  0  0  0  0  0  0  0  0  0  0
   11.0632   11.3291   23.7938 H   0  0  0  0  0  0  0  0  0  0  0  0
  1  2  1  0  0  0  0
  1  4  2  0  0  0  0
  2  5  2  0  0  0  0
  3  6  2  0  0  0  0
  3  7  1  0  0  0  0
  4  9  1  0  0  0  0
  5 11  1  0  0  0  0
  6 10  1  0  0  0  0
  7 19  2  0  0  0  0
  8 10  2  0  0  0  0
  8 19  1  0  0  0  0
  9 11  2  0  0  0  0
  9 12  1  0  0  0  0
 10 23  1  0  0  0  0
 11 23  1  0  0  0  0
 12 20  1  0  0  0  0
 12 21  2  0  0  0  0
 13 14  1  0  0  0  0
 13 17  1  0  0  0  0
 14 18  1  0  0  0  0
 15 17  1  0  0  0  0
 15 22  1  0  0  0  0
 16 18  1  0  0  0  0
 16 22  1  0  0  0  0
 17 20  1  0  0  0  0
 18 20  1  0  0  0  0
  1 24  1  0  0  0  0
  2 25  1  0  0  0  0
  3 26  1  0  0  0  0
  4 27  1  0  0  0  0
  5 28  1  0  0  0  0
  6 29  1  0  0  0  0
  7 30  1  0  0  0  0
  8 31  1  0  0  0  0
 13 32  1  0  0  0  0
 13 33  1  0  0  0  0
 14 34  1  0  0  0  0
 14 35  1  0  0  0  0
 15 36  1  0  0  0  0
 15 37  1  0  0  0  0
 16 38  1  0  0  0  0
 16 39  1  0  0  0  0
 17 40  1  0  0  0  0
 18 41  1  0  0  0  0
M  END
> <idnumber>
Z2305241737

> <heavy_atoms>
23

> <LogS>
-3.627

> <LogP>
1.687

> <rotating_bonds>
3

> <PSA>
51.66

> <hb_acceptors>
3

> <hb_donors>
0

> <Collection>
HTS

> <link>
https://www.enaminestore.com/catalog/Z2305241737

> <ROCS_ShapeQuery>
x0446_0A_x1080_0A_x0929_0A_x0812_0A_x0719_0A_x1140_0A_x0528_0A_x0310_0A

> <ROCS_TanimotoCombo>
0.471 

> <ROCS_ShapeTanimoto>
0.238 

> <ROCS_ColorTanimoto>
0.233 

> <ROCS_RefTversky>
0.219 

> <ROCS_RefColorTversky>
0.258 

> <ROCS_RefTverskyCombo>
0.477 

> <ROCS_FitTversky>
1.579 

> <ROCS_FitColorTversky>
0.704 

> <ROCS_FitTverskyCombo>
2.283 

> <ROCS_ColorScore>
-9.262

> <ROCS_Overlap>
2586.328

> <ROCS_Rank>
78                  

$$$$
untitled-dbase-1045782_93
  -OEChem-02092406493D

 40 44  0     1  0  0  0  0  0999 V2000
    4.1948   10.0887   26.7643 C   0  0  0  0  0  0  0  0  0  0  0  0
    5.0970   10.0504   25.6621 C   0  0  0  0  0  0  0  0  0  0  0  0
    4.5449   11.0504   27.6863 C   0  0  0  0  0  0  0  0  0  0  0  0
   10.7061   14.4495   21.9973 C   0  0  0  0  0  0  0  0  0  0  0  0
    6.1022   10.9845   25.7837 C   0  0  0  0  0  0  0  0  0  0  0  0
    9.3469   14.3869   21.8318 C   0  0  0  0  0  0  0  0  0  0  0  0
   11.7490   13.5513   22.3446 C   0  0  0  0  0  0  0  0  0  0  0  0
   13.0156   14.0055   22.4053 C   0  0  0  0  0  0  0  0  0  0  0  0
   13.3379   15.3953   22.1231 C   0  0  0  0  0  0  0  0  0  0  0  0
    7.3883   10.5674   23.7056 C   0  0  0  0  0  0  0  0  0  0  0  0
   12.3504   16.2444   21.7949 C   0  0  0  0  0  0  0  0  0  0  0  0
    7.2245   11.2601   24.8562 C   0  0  0  0  0  0  0  0  0  0  0  0
    8.4795   13.2129   21.9917 C   0  0  0  0  0  0  0  0  0  0  0  0
    8.2111   12.3707   25.2176 C   0  0  0  0  0  0  0  0  0  0  0  0
    9.8212   10.1870   23.3419 C   0  0  0  0  0  0  0  0  0  0  0  0
   10.3279   11.1905   24.3988 C   0  0  0  0  0  0  0  0  0  0  0  0
    8.5591   10.8401   22.7791 C   0  0  2  0  0  0  0  0  0  0  0  0
    9.4193   12.4259   24.2502 C   0  0  1  0  0  0  0  0  0  0  0  0
    8.8747   15.6177   21.4822 N   0  0  0  0  0  0  0  0  0  0  0  0
    9.9018   16.4577   21.4221 N   0  0  0  0  0  0  0  0  0  0  0  0
   11.0365   15.7784   21.7306 N   0  0  0  0  0  0  0  0  0  0  0  0
    8.8755   12.2543   22.9048 N   0  0  0  0  0  0  0  0  0  0  0  0
    7.4604   13.1674   21.3066 O   0  0  0  0  0  0  0  0  0  0  0  0
    5.9561   11.9021   27.2220 S   0  0  0  0  0  0  0  0  0  0  0  0
    3.3335    9.4429   26.8756 H   0  0  0  0  0  0  0  0  0  0  0  0
    5.0052    9.3681   24.8261 H   0  0  0  0  0  0  0  0  0  0  0  0
    4.0400   11.2931   28.6105 H   0  0  0  0  0  0  0  0  0  0  0  0
   11.5214   12.5126   22.5578 H   0  0  0  0  0  0  0  0  0  0  0  0
   13.8318   13.3415   22.6680 H   0  0  0  0  0  0  0  0  0  0  0  0
   14.3705   15.7171   22.1844 H   0  0  0  0  0  0  0  0  0  0  0  0
    6.7091    9.7679   23.4200 H   0  0  0  0  0  0  0  0  0  0  0  0
   12.5217   17.2903   21.5731 H   0  0  0  0  0  0  0  0  0  0  0  0
    7.6777   13.3293   25.1875 H   0  0  0  0  0  0  0  0  0  0  0  0
    8.5679   12.2263   26.2444 H   0  0  0  0  0  0  0  0  0  0  0  0
   10.5756   10.0782   22.5535 H   0  0  0  0  0  0  0  0  0  0  0  0
    9.6444    9.1975   23.7767 H   0  0  0  0  0  0  0  0  0  0  0  0
   10.2967   10.7638   25.4067 H   0  0  0  0  0  0  0  0  0  0  0  0
   11.3693   11.4517   24.1779 H   0  0  0  0  0  0  0  0  0  0  0  0
    8.3284   10.5591   21.7481 H   0  0  0  0  0  0  0  0  0  0  0  0
    9.9736   13.3604   24.3733 H   0  0  0  0  0  0  0  0  0  0  0  0
  1  2  1  0  0  0  0
  1  3  2  0  0  0  0
  2  5  2  0  0  0  0
  3 24  1  0  0  0  0
  4  6  2  0  0  0  0
  4  7  1  0  0  0  0
  4 21  1  0  0  0  0
  5 12  1  0  0  0  0
  5 24  1  0  0  0  0
  6 13  1  0  0  0  0
  6 19  1  0  0  0  0
  7  8  2  0  0  0  0
  8  9  1  0  0  0  0
  9 11  2  0  0  0  0
 10 12  2  0  0  0  0
 10 17  1  0  0  0  0
 11 21  1  0  0  0  0
 12 14  1  0  0  0  0
 13 22  1  0  0  0  0
 13 23  2  0  0  0  0
 14 18  1  0  0  0  0
 15 16  1  0  0  0  0
 15 17  1  0  0  0  0
 16 18  1  0  0  0  0
 17 22  1  0  0  0  0
 18 22  1  0  0  0  0
 19 20  2  0  0  0  0
 20 21  1  0  0  0  0
  1 25  1  0  0  0  0
  2 26  1  0  0  0  0
  3 27  1  0  0  0  0
  7 28  1  0  0  0  0
  8 29  1  0  0  0  0
  9 30  1  0  0  0  0
 10 31  1  0  0  0  0
 11 32  1  0  0  0  0
 14 33  1  0  0  0  0
 14 34  1  0  0  0  0
 15 35  1  0  0  0  0
 15 36  1  0  0  0  0
 16 37  1  0  0  0  0
 16 38  1  0  0  0  0
 17 39  1  0  0  0  0
 18 40  1  0  0  0  0
M  END
> <idnumber>
Z3615372266

> <heavy_atoms>
24

> <LogS>
-4.185

> <LogP>
2.358

> <rotating_bonds>
2

> <PSA>
50.5

> <hb_acceptors>
3

> <hb_donors>
0

> <Collection>
Advanced

> <link>
https://www.enaminestore.com/catalog/Z3615372266

> <ROCS_ShapeQuery>
x0446_0A_x1080_0A_x0929_0A_x0812_0A_x0719_0A_x1140_0A_x0528_0A_x0310_0A

> <ROCS_TanimotoCombo>
0.470 

> <ROCS_ShapeTanimoto>
0.245 

> <ROCS_ColorTanimoto>
0.225 

> <ROCS_RefTversky>
0.225 

> <ROCS_RefColorTversky>
0.253 

> <ROCS_RefTverskyCombo>
0.477 

> <ROCS_FitTversky>
1.579 

> <ROCS_FitColorTversky>
0.676 

> <ROCS_FitTverskyCombo>
2.255 

> <ROCS_ColorScore>
-9.077

> <ROCS_Overlap>
2658.344

> <ROCS_Rank>
79                  

$$$$
untitled-dbase-1095090_19
  -OEChem-02092406493D

 46 50  0     1  0  0  0  0  0999 V2000
   12.8469   16.5742   20.9760 C   0  0  0  0  0  0  0  0  0  0  0  0
   11.5109   16.5882   20.8800 C   0  0  0  0  0  0  0  0  0  0  0  0
   10.6758   13.5133   22.9612 C   0  0  0  0  0  0  0  0  0  0  0  0
    6.6753   12.3537   23.3312 C   0  0  0  0  0  0  0  0  0  0  0  0
    8.1561   13.0301   25.2520 C   0  0  0  0  0  0  0  0  0  0  0  0
   12.8634   14.3204   22.0284 C   0  0  0  0  0  0  0  0  0  0  0  0
   10.0911   10.7620   24.2779 C   0  0  0  0  0  0  0  0  0  0  0  0
    8.8734   10.2032   22.6873 C   0  0  0  0  0  0  0  0  0  0  0  0
    6.6816   13.8180   22.9093 C   0  0  0  0  0  0  0  0  0  0  0  0
    8.0869   14.4499   24.7046 C   0  0  0  0  0  0  0  0  0  0  0  0
   13.1657   15.8125   22.2288 C   0  0  2  0  0  0  0  0  0  0  0  0
   11.0018   15.8269   22.0691 C   0  0  1  0  0  0  0  0  0  0  0  0
   11.3176   14.3307   21.8897 C   0  0  2  0  0  0  0  0  0  0  0  0
    9.1427   11.5979   23.3499 C   0  0  0  0  0  0  0  0  0  0  0  0
    7.9024   11.9795   24.1674 C   0  0  0  0  0  0  0  0  0  0  0  0
    8.7769    9.8763   24.2362 C   0  0  0  0  0  0  0  0  0  0  0  0
    8.7719    8.4641   24.7360 C   0  0  0  0  0  0  0  0  0  0  0  0
    9.8564   12.5036   22.4886 N   0  0  0  0  0  0  0  0  0  0  0  0
   10.9037   13.7726   24.1371 O   0  0  0  0  0  0  0  0  0  0  0  0
    6.8466   14.6732   24.0380 O   0  0  0  0  0  0  0  0  0  0  0  0
   12.0235   16.1855   23.0444 O   0  0  0  0  0  0  0  0  0  0  0  0
    7.6871   10.6860   24.7875 O   0  0  0  0  0  0  0  0  0  0  0  0
    9.7002    7.6873   23.9841 O   0  0  0  0  0  0  0  0  0  0  0  0
   13.5501   16.9728   20.2634 H   0  0  0  0  0  0  0  0  0  0  0  0
   10.9247   16.9986   20.0742 H   0  0  0  0  0  0  0  0  0  0  0  0
    5.7373   12.1589   23.8743 H   0  0  0  0  0  0  0  0  0  0  0  0
    6.6525   11.7265   22.4239 H   0  0  0  0  0  0  0  0  0  0  0  0
    9.1568   12.8678   25.6839 H   0  0  0  0  0  0  0  0  0  0  0  0
    7.4341   12.9463   26.0774 H   0  0  0  0  0  0  0  0  0  0  0  0
   13.3597   13.9100   21.1427 H   0  0  0  0  0  0  0  0  0  0  0  0
   13.1778   13.7418   22.9048 H   0  0  0  0  0  0  0  0  0  0  0  0
   10.9972   10.3395   23.8274 H   0  0  0  0  0  0  0  0  0  0  0  0
   10.3502   11.1868   25.2503 H   0  0  0  0  0  0  0  0  0  0  0  0
    7.9497   10.0850   22.1163 H   0  0  0  0  0  0  0  0  0  0  0  0
    9.6944    9.7409   22.1264 H   0  0  0  0  0  0  0  0  0  0  0  0
    7.5183   14.0034   22.2267 H   0  0  0  0  0  0  0  0  0  0  0  0
    5.7604   14.0871   22.3772 H   0  0  0  0  0  0  0  0  0  0  0  0
    8.2141   15.1943   25.4992 H   0  0  0  0  0  0  0  0  0  0  0  0
    8.8890   14.6063   23.9764 H   0  0  0  0  0  0  0  0  0  0  0  0
   14.1092   16.0655   22.7141 H   0  0  0  0  0  0  0  0  0  0  0  0
   10.0081   16.1002   22.4276 H   0  0  0  0  0  0  0  0  0  0  0  0
   10.9893   13.9428   20.9178 H   0  0  0  0  0  0  0  0  0  0  0  0
    7.7778    8.0058   24.6293 H   0  0  0  0  0  0  0  0  0  0  0  0
    9.0634    8.4137   25.7952 H   0  0  0  0  0  0  0  0  0  0  0  0
    9.7532   12.3960   21.4825 H   0  0  0  0  0  0  0  0  0  0  0  0
    9.6612    6.7869   24.3423 H   0  0  0  0  0  0  0  0  0  0  0  0
  1  2  2  0  0  0  0
  1 11  1  0  0  0  0
  2 12  1  0  0  0  0
  3 13  1  1  0  0  0
  3 18  1  0  0  0  0
  3 19  2  0  0  0  0
  4  9  1  0  0  0  0
  4 15  1  0  0  0  0
  5 10  1  0  0  0  0
  5 15  1  0  0  0  0
  6 11  1  0  0  0  0
  6 13  1  0  0  0  0
  7 14  1  0  0  0  0
  7 16  1  0  0  0  0
  8 14  1  0  0  0  0
  8 16  1  0  0  0  0
  9 20  1  0  0  0  0
 10 20  1  0  0  0  0
 11 21  1  1  0  0  0
 12 13  1  0  0  0  0
 12 21  1  1  0  0  0
 14 15  1  0  0  0  0
 14 18  1  0  0  0  0
 15 22  1  0  0  0  0
 16 17  1  0  0  0  0
 16 22  1  0  0  0  0
 17 23  1  0  0  0  0
  1 24  1  0  0  0  0
  2 25  1  0  0  0  0
  4 26  1  0  0  0  0
  4 27  1  0  0  0  0
  5 28  1  0  0  0  0
  5 29  1  0  0  0  0
  6 30  1  0  0  0  0
  6 31  1  0  0  0  0
  7 32  1  0  0  0  0
  7 33  1  0  0  0  0
  8 34  1  0  0  0  0
  8 35  1  0  0  0  0
  9 36  1  0  0  0  0
  9 37  1  0  0  0  0
 10 38  1  0  0  0  0
 10 39  1  0  0  0  0
 11 40  1  0  0  0  0
 12 41  1  0  0  0  0
 13 42  1  0  0  0  0
 17 43  1  0  0  0  0
 17 44  1  0  0  0  0
 18 45  1  0  0  0  0
 23 46  1  0  0  0  0
M  END
> <idnumber>
Z4609036262

> <heavy_atoms>
23

> <LogS>
-3.061

> <LogP>
-1.393

> <rotating_bonds>
3

> <PSA>
77.02

> <hb_acceptors>
5

> <hb_donors>
2

> <Collection>
Advanced

> <link>
https://www.enaminestore.com/catalog/Z4609036262

> <ROCS_ShapeQuery>
x0446_0A_x1080_0A_x0929_0A_x0812_0A_x0719_0A_x1140_0A_x0528_0A_x0310_0A

> <ROCS_TanimotoCombo>
0.470 

> <ROCS_ShapeTanimoto>
0.273 

> <ROCS_ColorTanimoto>
0.198 

> <ROCS_RefTversky>
0.244 

> <ROCS_RefColorTversky>
0.264 

> <ROCS_RefTverskyCombo>
0.509 

> <ROCS_FitTversky>
1.758 

> <ROCS_FitColorTversky>
0.439 

> <ROCS_FitTverskyCombo>
2.197 

> <ROCS_ColorScore>
-9.624

> <ROCS_Overlap>
2884.793

> <ROCS_Rank>
80                  

$$$$
untitled-dbase-1091121_104
  -OEChem-02092406493D

 48 52  0     0  0  0  0  0  0999 V2000
   12.2154   15.7648   23.2401 C   0  0  0  0  0  0  0  0  0  0  0  0
   11.0865   15.1636   22.8368 C   0  0  0  0  0  0  0  0  0  0  0  0
   10.3303   15.7739   21.7142 C   0  0  0  0  0  0  0  0  0  0  0  0
   12.0861   17.4421   21.7255 C   0  0  0  0  0  0  0  0  0  0  0  0
   10.6600   13.9334   23.5285 C   0  0  0  0  0  0  0  0  0  0  0  0
   14.5312   18.3820   20.2304 C   0  0  0  0  0  0  0  0  0  0  0  0
   11.1114    9.8116   22.4242 C   0  0  0  0  0  0  0  0  0  0  0  0
   14.0066   19.1186   21.4783 C   0  0  0  0  0  0  0  0  0  0  0  0
   13.1148   18.5075   19.6361 C   0  0  0  0  0  0  0  0  0  0  0  0
   10.9648   10.7005   23.6773 C   0  0  0  0  0  0  0  0  0  0  0  0
    9.8361   10.4786   21.8659 C   0  0  0  0  0  0  0  0  0  0  0  0
    8.4677   12.2489   25.0221 C   0  0  0  0  0  0  0  0  0  0  0  0
    7.3641   12.0433   23.2505 C   0  0  0  0  0  0  0  0  0  0  0  0
   12.5756   18.6801   21.0782 C   0  0  0  0  0  0  0  0  0  0  0  0
    8.8769   12.2229   23.5278 C   0  0  0  0  0  0  0  0  0  0  0  0
    9.4760   10.8350   23.3177 C   0  0  0  0  0  0  0  0  0  0  0  0
    7.6095   11.0273   24.4581 C   0  0  0  0  0  0  0  0  0  0  0  0
    6.4502   10.4871   25.2430 C   0  0  0  0  0  0  0  0  0  0  0  0
   12.7493   16.9113   22.7053 N   0  0  0  0  0  0  0  0  0  0  0  0
   10.9130   16.9247   21.2156 N   0  0  0  0  0  0  0  0  0  0  0  0
    9.4846   13.4136   23.0191 N   0  0  0  0  0  0  0  0  0  0  0  0
    9.2898   15.2831   21.2890 O   0  0  0  0  0  0  0  0  0  0  0  0
   11.3251   13.4719   24.4494 O   0  0  0  0  0  0  0  0  0  0  0  0
    8.5299    9.9665   24.0105 O   0  0  0  0  0  0  0  0  0  0  0  0
    5.4909   11.5197   25.4461 O   0  0  0  0  0  0  0  0  0  0  0  0
   12.7969   15.3488   24.0578 H   0  0  0  0  0  0  0  0  0  0  0  0
   15.2966   18.9413   19.6756 H   0  0  0  0  0  0  0  0  0  0  0  0
   14.8908   17.3606   20.3945 H   0  0  0  0  0  0  0  0  0  0  0  0
   12.0213    9.9637   21.8384 H   0  0  0  0  0  0  0  0  0  0  0  0
   10.9930    8.7414   22.6294 H   0  0  0  0  0  0  0  0  0  0  0  0
   14.3648   18.6955   22.4292 H   0  0  0  0  0  0  0  0  0  0  0  0
   14.1817   20.2021   21.4942 H   0  0  0  0  0  0  0  0  0  0  0  0
   12.9583   19.3640   18.9677 H   0  0  0  0  0  0  0  0  0  0  0  0
   12.7649   17.5988   19.1230 H   0  0  0  0  0  0  0  0  0  0  0  0
   11.1828   10.1977   24.6239 H   0  0  0  0  0  0  0  0  0  0  0  0
   11.5484   11.6263   23.6301 H   0  0  0  0  0  0  0  0  0  0  0  0
   10.0375   11.3299   21.2068 H   0  0  0  0  0  0  0  0  0  0  0  0
    9.1470    9.7978   21.3578 H   0  0  0  0  0  0  0  0  0  0  0  0
    9.2421   11.9887   25.7492 H   0  0  0  0  0  0  0  0  0  0  0  0
    7.9108   13.1224   25.3799 H   0  0  0  0  0  0  0  0  0  0  0  0
    6.7078   12.8978   23.4481 H   0  0  0  0  0  0  0  0  0  0  0  0
    7.0895   11.5864   22.2957 H   0  0  0  0  0  0  0  0  0  0  0  0
   11.8590   19.4847   21.1584 H   0  0  0  0  0  0  0  0  0  0  0  0
    6.7736   10.1203   26.2270 H   0  0  0  0  0  0  0  0  0  0  0  0
    5.9589    9.6621   24.7088 H   0  0  0  0  0  0  0  0  0  0  0  0
   10.4539   17.4004   20.4443 H   0  0  0  0  0  0  0  0  0  0  0  0
    9.0317   13.8996   22.2483 H   0  0  0  0  0  0  0  0  0  0  0  0
    4.7640   11.1269   25.9546 H   0  0  0  0  0  0  0  0  0  0  0  0
  1  2  2  0  0  0  0
  1 19  1  0  0  0  0
  2  3  1  0  0  0  0
  2  5  1  0  0  0  0
  3 20  1  0  0  0  0
  3 22  2  0  0  0  0
  4 14  1  0  0  0  0
  4 19  2  0  0  0  0
  4 20  1  0  0  0  0
  5 21  1  0  0  0  0
  5 23  2  0  0  0  0
  6  8  1  0  0  0  0
  6  9  1  0  0  0  0
  7 10  1  0  0  0  0
  7 11  1  0  0  0  0
  8 14  1  0  0  0  0
  9 14  1  0  0  0  0
 10 16  1  0  0  0  0
 11 16  1  0  0  0  0
 12 15  1  0  0  0  0
 12 17  1  0  0  0  0
 13 15  1  0  0  0  0
 13 17  1  0  0  0  0
 15 16  1  0  0  0  0
 15 21  1  0  0  0  0
 16 24  1  0  0  0  0
 17 18  1  0  0  0  0
 17 24  1  0  0  0  0
 18 25  1  0  0  0  0
  1 26  1  0  0  0  0
  6 27  1  0  0  0  0
  6 28  1  0  0  0  0
  7 29  1  0  0  0  0
  7 30  1  0  0  0  0
  8 31  1  0  0  0  0
  8 32  1  0  0  0  0
  9 33  1  0  0  0  0
  9 34  1  0  0  0  0
 10 35  1  0  0  0  0
 10 36  1  0  0  0  0
 11 37  1  0  0  0  0
 11 38  1  0  0  0  0
 12 39  1  0  0  0  0
 12 40  1  0  0  0  0
 13 41  1  0  0  0  0
 13 42  1  0  0  0  0
 14 43  1  0  0  0  0
 18 44  1  0  0  0  0
 18 45  1  0  0  0  0
 20 46  1  0  0  0  0
 21 47  1  0  0  0  0
 25 48  1  0  0  0  0
M  END
> <idnumber>
Z4497430638

> <heavy_atoms>
25

> <LogS>
-3.663

> <LogP>
0.29

> <rotating_bonds>
4

> <PSA>
100.02

> <hb_acceptors>
5

> <hb_donors>
3

> <Collection>
Advanced

> <link>
https://www.enaminestore.com/catalog/Z4497430638

> <ROCS_ShapeQuery>
x0446_0A_x1080_0A_x0929_0A_x0812_0A_x0719_0A_x1140_0A_x0528_0A_x0310_0A

> <ROCS_TanimotoCombo>
0.470 

> <ROCS_ShapeTanimoto>
0.250 

> <ROCS_ColorTanimoto>
0.221 

> <ROCS_RefTversky>
0.229 

> <ROCS_RefColorTversky>
0.274 

> <ROCS_RefTverskyCombo>
0.503 

> <ROCS_FitTversky>
1.573 

> <ROCS_FitColorTversky>
0.530 

> <ROCS_FitTverskyCombo>
2.103 

> <ROCS_ColorScore>
-9.936

> <ROCS_Overlap>
2706.663

> <ROCS_Rank>
81                  

$$$$
untitled-dbase-323035_47
  -OEChem-02092406493D

 38 41  0     0  0  0  0  0  0999 V2000
   13.2433   14.2052   23.4520 C   0  0  0  0  0  0  0  0  0  0  0  0
   12.4518    8.1489   23.3474 C   0  0  0  0  0  0  0  0  0  0  0  0
   11.9458   13.9742   23.8951 C   0  0  0  0  0  0  0  0  0  0  0  0
   11.6488    9.0872   24.0580 C   0  0  0  0  0  0  0  0  0  0  0  0
   13.4093   14.9076   22.2692 C   0  0  0  0  0  0  0  0  0  0  0  0
   12.0902    8.0580   22.0213 C   0  0  0  0  0  0  0  0  0  0  0  0
    7.9191   12.5456   24.1835 C   0  0  0  0  0  0  0  0  0  0  0  0
    6.7725   13.3081   24.5710 C   0  0  0  0  0  0  0  0  0  0  0  0
   10.8691   14.4460   23.1524 C   0  0  0  0  0  0  0  0  0  0  0  0
   10.7041    9.6779   23.2478 C   0  0  0  0  0  0  0  0  0  0  0  0
    5.7100   12.5123   24.9410 C   0  0  0  0  0  0  0  0  0  0  0  0
   11.1415   15.1378   21.9832 C   0  0  0  0  0  0  0  0  0  0  0  0
    9.1971   12.9040   23.7430 C   0  0  0  0  0  0  0  0  0  0  0  0
    7.6634   11.1840   24.2811 C   0  0  0  0  0  0  0  0  0  0  0  0
    9.7178   10.6674   23.5815 C   0  0  0  0  0  0  0  0  0  0  0  0
    6.7219   14.7923   24.5781 C   0  0  0  0  0  0  0  0  0  0  0  0
    4.3628   12.9160   25.4023 C   0  0  0  0  0  0  0  0  0  0  0  0
   12.3882   15.3815   21.5207 N   0  0  0  0  0  0  0  0  0  0  0  0
   10.1038   11.9505   23.4398 N   0  0  0  0  0  0  0  0  0  0  0  0
    8.5284   10.1922   23.9922 N   0  0  0  0  0  0  0  0  0  0  0  0
   10.0107   15.6092   21.2412 N   0  3  0  0  0  0  0  0  0  0  0  0
   10.2136   16.2379   20.1813 O   0  5  0  0  0  0  0  0  0  0  0  0
    8.8671   15.3730   21.6840 O   0  0  0  0  0  0  0  0  0  0  0  0
    9.5847   14.2138   23.5970 O   0  0  0  0  0  0  0  0  0  0  0  0
   10.7875    9.1012   21.6376 S   0  0  0  0  0  0  0  0  0  0  0  0
    6.0835   10.8472   24.8241 S   0  0  0  0  0  0  0  0  0  0  0  0
   14.0974   13.8461   24.0143 H   0  0  0  0  0  0  0  0  0  0  0  0
   13.2542    7.5703   23.7859 H   0  0  0  0  0  0  0  0  0  0  0  0
   11.7808   13.4266   24.8187 H   0  0  0  0  0  0  0  0  0  0  0  0
   11.7658    9.3128   25.1109 H   0  0  0  0  0  0  0  0  0  0  0  0
   14.4009   15.1136   21.8798 H   0  0  0  0  0  0  0  0  0  0  0  0
   12.5290    7.4294   21.2593 H   0  0  0  0  0  0  0  0  0  0  0  0
    6.3755   15.1736   23.6072 H   0  0  0  0  0  0  0  0  0  0  0  0
    6.0431   15.1705   25.3567 H   0  0  0  0  0  0  0  0  0  0  0  0
    7.7097   15.2299   24.7855 H   0  0  0  0  0  0  0  0  0  0  0  0
    3.6704   13.0179   24.5526 H   0  0  0  0  0  0  0  0  0  0  0  0
    3.9330   12.1826   26.1033 H   0  0  0  0  0  0  0  0  0  0  0  0
    4.3848   13.8785   25.9385 H   0  0  0  0  0  0  0  0  0  0  0  0
  1  3  2  0  0  0  0
  1  5  1  0  0  0  0
  2  4  1  0  0  0  0
  2  6  2  0  0  0  0
  3  9  1  0  0  0  0
  4 10  2  0  0  0  0
  5 18  2  0  0  0  0
  6 25  1  0  0  0  0
  7  8  1  0  0  0  0
  7 13  1  0  0  0  0
  7 14  2  0  0  0  0
  8 11  2  0  0  0  0
  8 16  1  0  0  0  0
  9 12  2  0  0  0  0
  9 24  1  0  0  0  0
 10 15  1  0  0  0  0
 10 25  1  0  0  0  0
 11 17  1  0  0  0  0
 11 26  1  0  0  0  0
 12 18  1  0  0  0  0
 12 21  1  0  0  0  0
 13 19  2  0  0  0  0
 13 24  1  0  0  0  0
 14 20  1  0  0  0  0
 14 26  1  0  0  0  0
 15 19  1  0  0  0  0
 15 20  2  0  0  0  0
 21 22  1  0  0  0  0
 21 23  2  0  0  0  0
  1 27  1  0  0  0  0
  2 28  1  0  0  0  0
  3 29  1  0  0  0  0
  4 30  1  0  0  0  0
  5 31  1  0  0  0  0
  6 32  1  0  0  0  0
 16 33  1  0  0  0  0
 16 34  1  0  0  0  0
 16 35  1  0  0  0  0
 17 36  1  0  0  0  0
 17 37  1  0  0  0  0
 17 38  1  0  0  0  0
M  CHG  2  21   1  22  -1
M  END
> <idnumber>
Z31112506

> <heavy_atoms>
26

> <LogS>
-7.24

> <LogP>
4.072

> <rotating_bonds>
4

> <PSA>
91.04

> <hb_acceptors>
5

> <hb_donors>
0

> <Collection>
Legacy

> <link>
https://www.enaminestore.com/catalog/Z31112506

> <ROCS_ShapeQuery>
x0446_0A_x1080_0A_x0929_0A_x0812_0A_x0719_0A_x1140_0A_x0528_0A_x0310_0A

> <ROCS_TanimotoCombo>
0.470 

> <ROCS_ShapeTanimoto>
0.273 

> <ROCS_ColorTanimoto>
0.197 

> <ROCS_RefTversky>
0.246 

> <ROCS_RefColorTversky>
0.217 

> <ROCS_RefTverskyCombo>
0.463 

> <ROCS_FitTversky>
1.657 

> <ROCS_FitColorTversky>
0.682 

> <ROCS_FitTverskyCombo>
2.339 

> <ROCS_ColorScore>
-7.779

> <ROCS_Overlap>
2913.264

> <ROCS_Rank>
82                  

$$$$
untitled-dbase-410550_0
  -OEChem-02092406493D

 31 34  0     0  0  0  0  0  0999 V2000
    6.4126   13.4624   25.2084 C   0  0  0  0  0  0  0  0  0  0  0  0
    6.0568   12.1933   25.6511 C   0  0  0  0  0  0  0  0  0  0  0  0
   12.9775   15.9801   22.2672 C   0  0  0  0  0  0  0  0  0  0  0  0
   13.0876   14.7498   22.9224 C   0  0  0  0  0  0  0  0  0  0  0  0
    7.4369   13.6024   24.2772 C   0  0  0  0  0  0  0  0  0  0  0  0
    6.7254   11.0672   25.1619 C   0  0  0  0  0  0  0  0  0  0  0  0
   11.7653   16.3901   21.6968 C   0  0  0  0  0  0  0  0  0  0  0  0
   11.9940   13.8838   23.0328 C   0  0  0  0  0  0  0  0  0  0  0  0
    8.1044   12.4652   23.7901 C   0  0  0  0  0  0  0  0  0  0  0  0
    7.7540   11.1781   24.2294 C   0  0  0  0  0  0  0  0  0  0  0  0
   10.6614   15.5312   21.8006 C   0  0  0  0  0  0  0  0  0  0  0  0
   10.8012   14.3161   22.4570 C   0  0  0  0  0  0  0  0  0  0  0  0
    9.1363   12.5358   22.8584 C   0  0  0  0  0  0  0  0  0  0  0  0
    9.3689   10.2845   22.8694 C   0  0  0  0  0  0  0  0  0  0  0  0
   10.0628    9.0660   22.3623 C   0  0  0  0  0  0  0  0  0  0  0  0
    8.3855   10.0836   23.7700 N   0  0  0  0  0  0  0  0  0  0  0  0
    9.3740   15.6593   21.3503 N   0  0  0  0  0  0  0  0  0  0  0  0
    9.7895   11.4611   22.3779 N   0  0  0  0  0  0  0  0  0  0  0  0
    8.7042   14.5672   21.7021 N   0  0  0  0  0  0  0  0  0  0  0  0
    9.5560   13.7653   22.3625 N   0  0  0  0  0  0  0  0  0  0  0  0
    9.5880    7.9024   22.8978 F   0  0  0  0  0  0  0  0  0  0  0  0
    9.9623    8.9022   21.0099 F   0  0  0  0  0  0  0  0  0  0  0  0
   11.4010    9.0731   22.6315 F   0  0  0  0  0  0  0  0  0  0  0  0
    5.8951   14.3385   25.5869 H   0  0  0  0  0  0  0  0  0  0  0  0
    5.2593   12.0750   26.3790 H   0  0  0  0  0  0  0  0  0  0  0  0
   13.8466   16.6295   22.1982 H   0  0  0  0  0  0  0  0  0  0  0  0
   14.0419   14.4595   23.3554 H   0  0  0  0  0  0  0  0  0  0  0  0
    7.6965   14.6050   23.9472 H   0  0  0  0  0  0  0  0  0  0  0  0
    6.4277   10.0852   25.5247 H   0  0  0  0  0  0  0  0  0  0  0  0
   11.6890   17.3468   21.1906 H   0  0  0  0  0  0  0  0  0  0  0  0
   12.0802   12.9302   23.5406 H   0  0  0  0  0  0  0  0  0  0  0  0
  1  2  1  0  0  0  0
  1  5  2  0  0  0  0
  2  6  2  0  0  0  0
  3  4  1  0  0  0  0
  3  7  2  0  0  0  0
  4  8  2  0  0  0  0
  5  9  1  0  0  0  0
  6 10  1  0  0  0  0
  7 11  1  0  0  0  0
  8 12  1  0  0  0  0
  9 10  2  0  0  0  0
  9 13  1  0  0  0  0
 10 16  1  0  0  0  0
 11 12  2  0  0  0  0
 11 17  1  0  0  0  0
 12 20  1  0  0  0  0
 13 18  2  0  0  0  0
 13 20  1  0  0  0  0
 14 15  1  0  0  0  0
 14 16  2  0  0  0  0
 14 18  1  0  0  0  0
 15 21  1  0  0  0  0
 15 22  1  0  0  0  0
 15 23  1  0  0  0  0
 17 19  2  0  0  0  0
 19 20  1  0  0  0  0
  1 24  1  0  0  0  0
  2 25  1  0  0  0  0
  3 26  1  0  0  0  0
  4 27  1  0  0  0  0
  5 28  1  0  0  0  0
  6 29  1  0  0  0  0
  7 30  1  0  0  0  0
  8 31  1  0  0  0  0
M  END
> <idnumber>
Z86232373

> <heavy_atoms>
23

> <LogS>
-4.74

> <LogP>
3.907

> <rotating_bonds>
2

> <PSA>
56.49

> <hb_acceptors>
4

> <hb_donors>
0

> <Collection>
Legacy

> <link>
https://www.enaminestore.com/catalog/Z86232373

> <ROCS_ShapeQuery>
x0446_0A_x1080_0A_x0929_0A_x0812_0A_x0719_0A_x1140_0A_x0528_0A_x0310_0A

> <ROCS_TanimotoCombo>
0.470 

> <ROCS_ShapeTanimoto>
0.277 

> <ROCS_ColorTanimoto>
0.193 

> <ROCS_RefTversky>
0.248 

> <ROCS_RefColorTversky>
0.206 

> <ROCS_RefTverskyCombo>
0.454 

> <ROCS_FitTversky>
1.745 

> <ROCS_FitColorTversky>
0.750 

> <ROCS_FitTverskyCombo>
2.495 

> <ROCS_ColorScore>
-7.363

> <ROCS_Overlap>
2931.720

> <ROCS_Rank>
83                  

$$$$
untitled-dbase-704808_19
  -OEChem-02092406493D

 46 51  0     0  0  0  0  0  0999 V2000
    4.0424   11.4474   25.4968 C   0  0  0  0  0  0  0  0  0  0  0  0
   13.1230   15.3107   21.9476 C   0  0  0  0  0  0  0  0  0  0  0  0
   11.3997    8.8275   22.6818 C   0  0  0  0  0  0  0  0  0  0  0  0
   12.1352   10.0022   22.6794 C   0  0  0  0  0  0  0  0  0  0  0  0
    4.0811   12.8170   25.7498 C   0  0  0  0  0  0  0  0  0  0  0  0
   12.5351   16.1081   22.9496 C   0  0  0  0  0  0  0  0  0  0  0  0
    5.1710   10.7761   25.0130 C   0  0  0  0  0  0  0  0  0  0  0  0
   12.3581   14.3999   21.2174 C   0  0  0  0  0  0  0  0  0  0  0  0
   10.0713    8.8495   23.1025 C   0  0  0  0  0  0  0  0  0  0  0  0
   11.5359   11.1890   23.0976 C   0  0  0  0  0  0  0  0  0  0  0  0
    5.2451   13.5586   25.5285 C   0  0  0  0  0  0  0  0  0  0  0  0
   11.1697   16.0107   23.2419 C   0  0  0  0  0  0  0  0  0  0  0  0
    6.3565   11.5018   24.7818 C   0  0  0  0  0  0  0  0  0  0  0  0
   11.0167   14.3252   21.5268 C   0  0  0  0  0  0  0  0  0  0  0  0
    9.4601   10.0268   23.5227 C   0  0  0  0  0  0  0  0  0  0  0  0
   10.2106   11.2264   23.5202 C   0  0  0  0  0  0  0  0  0  0  0  0
    7.6529   11.1653   24.3101 C   0  0  0  0  0  0  0  0  0  0  0  0
    6.3672   12.8763   25.0447 C   0  0  0  0  0  0  0  0  0  0  0  0
   10.4190   15.1060   22.5140 C   0  0  0  0  0  0  0  0  0  0  0  0
    8.4108   12.3190   24.2961 C   0  0  0  0  0  0  0  0  0  0  0  0
    9.9645   13.4887   20.9559 C   0  0  0  0  0  0  0  0  0  0  0  0
    8.6792   13.8421   21.6945 C   0  0  0  0  0  0  0  0  0  0  0  0
    8.0597   14.7221   24.8688 C   0  0  0  0  0  0  0  0  0  0  0  0
    8.1375   15.4516   23.5320 C   0  0  0  0  0  0  0  0  0  0  0  0
    8.1793    9.9834   23.9159 N   0  0  0  0  0  0  0  0  0  0  0  0
    9.6919   12.3995   23.9103 N   0  0  0  0  0  0  0  0  0  0  0  0
    7.6280   13.3462   24.7406 N   0  0  0  0  0  0  0  0  0  0  0  0
    9.0420   14.8188   22.6105 N   0  0  0  0  0  0  0  0  0  0  0  0
   10.0410   12.6672   20.0748 O   0  0  0  0  0  0  0  0  0  0  0  0
    7.6176   13.3127   21.4455 O   0  0  0  0  0  0  0  0  0  0  0  0
    3.1256   10.8924   25.6765 H   0  0  0  0  0  0  0  0  0  0  0  0
   14.1859   15.4084   21.7428 H   0  0  0  0  0  0  0  0  0  0  0  0
   11.8542    7.8958   22.3590 H   0  0  0  0  0  0  0  0  0  0  0  0
   13.1711    9.9994   22.3546 H   0  0  0  0  0  0  0  0  0  0  0  0
    3.1924   13.3186   26.1247 H   0  0  0  0  0  0  0  0  0  0  0  0
   13.1537   16.8096   23.5038 H   0  0  0  0  0  0  0  0  0  0  0  0
    5.1264    9.7078   24.8211 H   0  0  0  0  0  0  0  0  0  0  0  0
   12.8052   13.7844   20.4461 H   0  0  0  0  0  0  0  0  0  0  0  0
    9.5084    7.9177   23.0979 H   0  0  0  0  0  0  0  0  0  0  0  0
   12.1282   12.1024   23.0880 H   0  0  0  0  0  0  0  0  0  0  0  0
    5.2692   14.6247   25.7277 H   0  0  0  0  0  0  0  0  0  0  0  0
   10.7318   16.6315   24.0154 H   0  0  0  0  0  0  0  0  0  0  0  0
    9.0464   14.7048   25.3471 H   0  0  0  0  0  0  0  0  0  0  0  0
    7.3745   15.2293   25.5585 H   0  0  0  0  0  0  0  0  0  0  0  0
    7.1534   15.4616   23.0535 H   0  0  0  0  0  0  0  0  0  0  0  0
    8.4687   16.4873   23.6584 H   0  0  0  0  0  0  0  0  0  0  0  0
  1  5  1  0  0  0  0
  1  7  2  0  0  0  0
  2  6  1  0  0  0  0
  2  8  2  0  0  0  0
  3  4  1  0  0  0  0
  3  9  2  0  0  0  0
  4 10  2  0  0  0  0
  5 11  2  0  0  0  0
  6 12  2  0  0  0  0
  7 13  1  0  0  0  0
  8 14  1  0  0  0  0
  9 15  1  0  0  0  0
 10 16  1  0  0  0  0
 11 18  1  0  0  0  0
 12 19  1  0  0  0  0
 13 17  1  0  0  0  0
 13 18  2  0  0  0  0
 14 19  2  0  0  0  0
 14 21  1  0  0  0  0
 15 16  1  0  0  0  0
 15 25  2  0  0  0  0
 16 26  2  0  0  0  0
 17 20  2  0  0  0  0
 17 25  1  0  0  0  0
 18 27  1  0  0  0  0
 19 28  1  0  0  0  0
 20 26  1  0  0  0  0
 20 27  1  0  0  0  0
 21 22  1  0  0  0  0
 21 29  2  0  0  0  0
 22 28  1  0  0  0  0
 22 30  2  0  0  0  0
 23 24  1  0  0  0  0
 23 27  1  0  0  0  0
 24 28  1  0  0  0  0
  1 31  1  0  0  0  0
  2 32  1  0  0  0  0
  3 33  1  0  0  0  0
  4 34  1  0  0  0  0
  5 35  1  0  0  0  0
  6 36  1  0  0  0  0
  7 37  1  0  0  0  0
  8 38  1  0  0  0  0
  9 39  1  0  0  0  0
 10 40  1  0  0  0  0
 11 41  1  0  0  0  0
 12 42  1  0  0  0  0
 23 43  1  0  0  0  0
 23 44  1  0  0  0  0
 24 45  1  0  0  0  0
 24 46  1  0  0  0  0
M  END
> <idnumber>
Z324552648

> <heavy_atoms>
30

> <LogS>
-6.39

> <LogP>
3.878

> <rotating_bonds>
3

> <PSA>
68.09

> <hb_acceptors>
4

> <hb_donors>
0

> <Collection>
HTS

> <link>
https://www.enaminestore.com/catalog/Z324552648

> <ROCS_ShapeQuery>
x0446_0A_x1080_0A_x0929_0A_x0812_0A_x0719_0A_x1140_0A_x0528_0A_x0310_0A

> <ROCS_TanimotoCombo>
0.470 

> <ROCS_ShapeTanimoto>
0.303 

> <ROCS_ColorTanimoto>
0.167 

> <ROCS_RefTversky>
0.272 

> <ROCS_RefColorTversky>
0.189 

> <ROCS_RefTverskyCombo>
0.461 

> <ROCS_FitTversky>
1.605 

> <ROCS_FitColorTversky>
0.593 

> <ROCS_FitTverskyCombo>
2.199 

> <ROCS_ColorScore>
-6.781

> <ROCS_Overlap>
3215.043

> <ROCS_Rank>
84                  

$$$$
untitled-dbase-611356_84
  -OEChem-02092406493D

 47 51  0     0  0  0  0  0  0999 V2000
    3.9870   12.8321   18.5045 C   0  0  0  0  0  0  0  0  0  0  0  0
    3.7513   11.5483   18.0126 C   0  0  0  0  0  0  0  0  0  0  0  0
    3.1789   10.8010   20.2377 C   0  0  0  0  0  0  0  0  0  0  0  0
    3.8187   13.1003   19.8629 C   0  0  0  0  0  0  0  0  0  0  0  0
    3.3473   10.5328   18.8792 C   0  0  0  0  0  0  0  0  0  0  0  0
    3.4146   12.0848   20.7295 C   0  0  0  0  0  0  0  0  0  0  0  0
    8.3885   14.0162   22.2526 C   0  0  0  0  0  0  0  0  0  0  0  0
    7.2471   15.5490   21.3788 C   0  0  0  0  0  0  0  0  0  0  0  0
    4.0717   14.4765   20.3863 C   0  0  0  0  0  0  0  0  0  0  0  0
   10.2731   11.0161   24.7673 C   0  0  0  0  0  0  0  0  0  0  0  0
    9.0834    9.7826   22.9376 C   0  0  0  0  0  0  0  0  0  0  0  0
    7.7983   10.6451   24.9092 C   0  0  0  0  0  0  0  0  0  0  0  0
    9.9723   12.0886   22.5225 C   0  0  0  0  0  0  0  0  0  0  0  0
    8.6991   12.9507   24.5024 C   0  0  0  0  0  0  0  0  0  0  0  0
    7.4984   11.7058   22.6557 C   0  0  0  0  0  0  0  0  0  0  0  0
   10.2249   10.7590   23.2546 C   0  0  0  0  0  0  0  0  0  0  0  0
    8.9416   11.6198   25.2356 C   0  0  0  0  0  0  0  0  0  0  0  0
    7.7453   10.3794   23.3957 C   0  0  0  0  0  0  0  0  0  0  0  0
    8.6244   12.7371   22.9616 C   0  0  0  0  0  0  0  0  0  0  0  0
    5.1068   15.3324   19.6802 C   0  0  0  0  0  0  0  0  0  0  0  0
    9.2528   14.8908   21.7934 N   0  0  0  0  0  0  0  0  0  0  0  0
    8.5019   15.8992   21.2187 N   0  0  0  0  0  0  0  0  0  0  0  0
    3.4306   14.8632   21.3607 O   0  0  0  0  0  0  0  0  0  0  0  0
    7.0916   14.3628   22.0281 O   0  0  0  0  0  0  0  0  0  0  0  0
    3.1210    9.2999   18.4070 F   0  0  0  0  0  0  0  0  0  0  0  0
    3.2499   12.3312   22.0367 F   0  0  0  0  0  0  0  0  0  0  0  0
    5.9020   16.4981   20.8200 S   0  0  0  0  0  0  0  0  0  0  0  0
    4.3014   13.6154   17.8196 H   0  0  0  0  0  0  0  0  0  0  0  0
    3.8823   11.3391   16.9550 H   0  0  0  0  0  0  0  0  0  0  0  0
    2.8644   10.0101   20.9121 H   0  0  0  0  0  0  0  0  0  0  0  0
   10.4687   10.0781   25.3015 H   0  0  0  0  0  0  0  0  0  0  0  0
   11.0992   11.6969   25.0067 H   0  0  0  0  0  0  0  0  0  0  0  0
    9.0537    9.5760   21.8607 H   0  0  0  0  0  0  0  0  0  0  0  0
    9.2589    8.8238   23.4408 H   0  0  0  0  0  0  0  0  0  0  0  0
    7.9462    9.7016   25.4490 H   0  0  0  0  0  0  0  0  0  0  0  0
    6.8421   11.0602   25.2510 H   0  0  0  0  0  0  0  0  0  0  0  0
   10.8031   12.7800   22.7187 H   0  0  0  0  0  0  0  0  0  0  0  0
    9.9701   11.9163   21.4375 H   0  0  0  0  0  0  0  0  0  0  0  0
    7.7655   13.4037   24.8629 H   0  0  0  0  0  0  0  0  0  0  0  0
    9.5003   13.6607   24.7482 H   0  0  0  0  0  0  0  0  0  0  0  0
    7.4369   11.5213   21.5747 H   0  0  0  0  0  0  0  0  0  0  0  0
    6.5240   12.1165   22.9534 H   0  0  0  0  0  0  0  0  0  0  0  0
   11.1780   10.3320   22.9228 H   0  0  0  0  0  0  0  0  0  0  0  0
    8.9770   11.7970   26.3164 H   0  0  0  0  0  0  0  0  0  0  0  0
    6.9334    9.6781   23.1733 H   0  0  0  0  0  0  0  0  0  0  0  0
    4.6235   15.9099   18.8874 H   0  0  0  0  0  0  0  0  0  0  0  0
    5.8888   14.6929   19.2619 H   0  0  0  0  0  0  0  0  0  0  0  0
  1  2  2  0  0  0  0
  1  4  1  0  0  0  0
  2  5  1  0  0  0  0
  3  5  2  0  0  0  0
  3  6  1  0  0  0  0
  4  6  2  0  0  0  0
  4  9  1  0  0  0  0
  5 25  1  0  0  0  0
  6 26  1  0  0  0  0
  7 19  1  0  0  0  0
  7 21  2  0  0  0  0
  7 24  1  0  0  0  0
  8 22  2  0  0  0  0
  8 24  1  0  0  0  0
  8 27  1  0  0  0  0
  9 20  1  0  0  0  0
  9 23  2  0  0  0  0
 10 16  1  0  0  0  0
 10 17  1  0  0  0  0
 11 16  1  0  0  0  0
 11 18  1  0  0  0  0
 12 17  1  0  0  0  0
 12 18  1  0  0  0  0
 13 16  1  0  0  0  0
 13 19  1  0  0  0  0
 14 17  1  0  0  0  0
 14 19  1  0  0  0  0
 15 18  1  0  0  0  0
 15 19  1  0  0  0  0
 20 27  1  0  0  0  0
 21 22  1  0  0  0  0
  1 28  1  0  0  0  0
  2 29  1  0  0  0  0
  3 30  1  0  0  0  0
 10 31  1  0  0  0  0
 10 32  1  0  0  0  0
 11 33  1  0  0  0  0
 11 34  1  0  0  0  0
 12 35  1  0  0  0  0
 12 36  1  0  0  0  0
 13 37  1  0  0  0  0
 13 38  1  0  0  0  0
 14 39  1  0  0  0  0
 14 40  1  0  0  0  0
 15 41  1  0  0  0  0
 15 42  1  0  0  0  0
 16 43  1  0  0  0  0
 17 44  1  0  0  0  0
 18 45  1  0  0  0  0
 20 46  1  0  0  0  0
 20 47  1  0  0  0  0
M  END
> <idnumber>
Z152358862

> <heavy_atoms>
27

> <LogS>
-7.3

> <LogP>
4.377

> <rotating_bonds>
5

> <PSA>
55.99

> <hb_acceptors>
3

> <hb_donors>
0

> <Collection>
Legacy

> <link>
https://www.enaminestore.com/catalog/Z152358862

> <ROCS_ShapeQuery>
x0446_0A_x1080_0A_x0929_0A_x0812_0A_x0719_0A_x1140_0A_x0528_0A_x0310_0A

> <ROCS_TanimotoCombo>
0.470 

> <ROCS_ShapeTanimoto>
0.233 

> <ROCS_ColorTanimoto>
0.237 

> <ROCS_RefTversky>
0.218 

> <ROCS_RefColorTversky>
0.261 

> <ROCS_RefTverskyCombo>
0.479 

> <ROCS_FitTversky>
1.436 

> <ROCS_FitColorTversky>
0.719 

> <ROCS_FitTverskyCombo>
2.154 

> <ROCS_ColorScore>
-9.365

> <ROCS_Overlap>
2577.883

> <ROCS_Rank>
85                  

$$$$
untitled-dbase-666304_197
  -OEChem-02092406493D

 72 78  0     1  0  0  0  0  0999 V2000
   12.0036   14.0211   23.5235 C   0  0  0  0  0  0  0  0  0  0  0  0
   12.8124   15.1182   23.2273 C   0  0  0  0  0  0  0  0  0  0  0  0
   10.4071   14.7496   21.8629 C   0  0  0  0  0  0  0  0  0  0  0  0
    3.3105   11.7066   19.0268 C   0  0  0  0  0  0  0  0  0  0  0  0
    0.6388   14.5915   19.8168 C   0  0  0  0  0  0  0  0  0  0  0  0
    2.5487   12.7651   19.5557 C   0  0  0  0  0  0  0  0  0  0  0  0
   10.8010   13.8367   22.8412 C   0  0  0  0  0  0  0  0  0  0  0  0
   12.4185   16.0311   22.2490 C   0  0  0  0  0  0  0  0  0  0  0  0
   11.2159   15.8468   21.5667 C   0  0  0  0  0  0  0  0  0  0  0  0
    1.5199   12.9320   18.6453 C   0  0  0  0  0  0  0  0  0  0  0  0
    2.5604   13.6120   20.6589 C   0  0  0  0  0  0  0  0  0  0  0  0
    6.2772   12.4165   24.5323 C   0  0  0  0  0  0  0  0  0  0  0  0
    9.4452    9.6865   23.4540 C   0  0  0  0  0  0  0  0  0  0  0  0
    9.6618   11.6809   21.9534 C   0  0  0  0  0  0  0  0  0  0  0  0
   10.5626   11.7707   24.2924 C   0  0  0  0  0  0  0  0  0  0  0  0
    7.4111   11.0133   22.8296 C   0  0  0  0  0  0  0  0  0  0  0  0
    8.3075   11.1124   25.1720 C   0  0  0  0  0  0  0  0  0  0  0  0
    8.5141   13.1111   23.6634 C   0  0  0  0  0  0  0  0  0  0  0  0
    3.1500   13.2146   23.0111 C   0  0  0  0  0  0  0  0  0  0  0  0
    4.9036   13.0500   21.2447 C   0  0  0  0  0  0  0  0  0  0  0  0
    4.2181   13.6816   23.9975 C   0  0  0  0  0  0  0  0  0  0  0  0
    5.9432   13.5162   22.2638 C   0  0  0  0  0  0  0  0  0  0  0  0
    8.7669   10.4896   22.3355 C   0  0  2  0  0  0  0  0  0  0  0  0
    9.6643   10.5831   24.6803 C   0  0  1  0  0  0  0  0  0  0  0  0
    9.9097   12.6280   23.1682 C   0  0  0  0  0  0  0  0  0  0  0  0
    7.6179   11.9186   24.0551 C   0  0  0  0  0  0  0  0  0  0  0  0
   13.3005   17.1988   21.9500 C   0  0  0  0  0  0  0  0  0  0  0  0
   10.7736   16.8113   20.5156 C   0  0  0  0  0  0  0  0  0  0  0  0
    0.9114   11.7798   16.4988 C   0  0  0  0  0  0  0  0  0  0  0  0
    2.8133   11.2364   17.8776 N   0  0  0  0  0  0  0  0  0  0  0  0
    0.5227   13.8285   18.7085 N   0  0  0  0  0  0  0  0  0  0  0  0
    1.5833   14.5416   20.7862 N   0  0  0  0  0  0  0  0  0  0  0  0
    1.7248   12.0008   17.6711 N   0  0  0  0  0  0  0  0  0  0  0  0
    3.5632   13.5130   21.6303 N   0  0  0  0  0  0  0  0  0  0  0  0
    5.5302   13.1608   23.6226 N   0  0  0  0  0  0  0  0  0  0  0  0
    5.9061   12.1491   25.6780 O   0  0  0  0  0  0  0  0  0  0  0  0
   12.3181   13.3152   24.2877 H   0  0  0  0  0  0  0  0  0  0  0  0
   13.7472   15.2534   23.7651 H   0  0  0  0  0  0  0  0  0  0  0  0
    9.4697   14.6048   21.3309 H   0  0  0  0  0  0  0  0  0  0  0  0
    4.2072   11.2545   19.4265 H   0  0  0  0  0  0  0  0  0  0  0  0
   -0.1281   15.3471   19.9497 H   0  0  0  0  0  0  0  0  0  0  0  0
    8.8248    8.8237   23.7257 H   0  0  0  0  0  0  0  0  0  0  0  0
   10.4056    9.2900   23.1023 H   0  0  0  0  0  0  0  0  0  0  0  0
   10.6207   11.3109   21.5657 H   0  0  0  0  0  0  0  0  0  0  0  0
    9.1968   12.2411   21.1307 H   0  0  0  0  0  0  0  0  0  0  0  0
   10.7498   12.3942   25.1770 H   0  0  0  0  0  0  0  0  0  0  0  0
   11.5434   11.4009   23.9643 H   0  0  0  0  0  0  0  0  0  0  0  0
    6.9068   11.5655   22.0256 H   0  0  0  0  0  0  0  0  0  0  0  0
    6.7533   10.1709   23.0815 H   0  0  0  0  0  0  0  0  0  0  0  0
    7.6735   10.2726   25.4859 H   0  0  0  0  0  0  0  0  0  0  0  0
    8.4493   11.7380   26.0630 H   0  0  0  0  0  0  0  0  0  0  0  0
    8.6354   13.7868   24.5222 H   0  0  0  0  0  0  0  0  0  0  0  0
    8.0263   13.7120   22.8825 H   0  0  0  0  0  0  0  0  0  0  0  0
    2.9826   12.1382   23.1218 H   0  0  0  0  0  0  0  0  0  0  0  0
    2.2081   13.7256   23.2329 H   0  0  0  0  0  0  0  0  0  0  0  0
    5.1435   13.4417   20.2507 H   0  0  0  0  0  0  0  0  0  0  0  0
    4.9351   11.9568   21.1806 H   0  0  0  0  0  0  0  0  0  0  0  0
    4.2857   14.7682   23.9994 H   0  0  0  0  0  0  0  0  0  0  0  0
    3.9573   13.3496   24.9979 H   0  0  0  0  0  0  0  0  0  0  0  0
    6.9073   13.0401   22.0792 H   0  0  0  0  0  0  0  0  0  0  0  0
    6.0815   14.5940   22.1873 H   0  0  0  0  0  0  0  0  0  0  0  0
    8.6164    9.8473   21.4604 H   0  0  0  0  0  0  0  0  0  0  0  0
   10.1447   10.0051   25.4778 H   0  0  0  0  0  0  0  0  0  0  0  0
   14.0155   16.9421   21.1598 H   0  0  0  0  0  0  0  0  0  0  0  0
   12.7132   18.0653   21.6221 H   0  0  0  0  0  0  0  0  0  0  0  0
   13.8602   17.5109   22.8404 H   0  0  0  0  0  0  0  0  0  0  0  0
   10.1712   17.6105   20.9627 H   0  0  0  0  0  0  0  0  0  0  0  0
   11.6332   17.2643   20.0065 H   0  0  0  0  0  0  0  0  0  0  0  0
   10.1740   16.3105   19.7454 H   0  0  0  0  0  0  0  0  0  0  0  0
    1.3003   12.4102   15.6948 H   0  0  0  0  0  0  0  0  0  0  0  0
    0.9605   10.7248   16.2152 H   0  0  0  0  0  0  0  0  0  0  0  0
   -0.1260   12.0422   16.7241 H   0  0  0  0  0  0  0  0  0  0  0  0
  1  2  2  0  0  0  0
  1  7  1  0  0  0  0
  2  8  1  0  0  0  0
  3  7  2  0  0  0  0
  3  9  1  0  0  0  0
  4  6  1  0  0  0  0
  4 30  2  0  0  0  0
  5 31  1  0  0  0  0
  5 32  2  0  0  0  0
  6 10  1  0  0  0  0
  6 11  2  0  0  0  0
  7 25  1  0  0  0  0
  8  9  2  0  0  0  0
  8 27  1  0  0  0  0
  9 28  1  0  0  0  0
 10 31  2  0  0  0  0
 10 33  1  0  0  0  0
 11 32  1  0  0  0  0
 11 34  1  0  0  0  0
 12 26  1  0  0  0  0
 12 35  1  0  0  0  0
 12 36  2  0  0  0  0
 13 23  1  0  0  0  0
 13 24  1  0  0  0  0
 14 23  1  0  0  0  0
 14 25  1  0  0  0  0
 15 24  1  0  0  0  0
 15 25  1  0  0  0  0
 16 23  1  0  0  0  0
 16 26  1  0  0  0  0
 17 24  1  0  0  0  0
 17 26  1  0  0  0  0
 18 25  1  0  0  0  0
 18 26  1  0  0  0  0
 19 21  1  0  0  0  0
 19 34  1  0  0  0  0
 20 22  1  0  0  0  0
 20 34  1  0  0  0  0
 21 35  1  0  0  0  0
 22 35  1  0  0  0  0
 29 33  1  0  0  0  0
 30 33  1  0  0  0  0
  1 37  1  0  0  0  0
  2 38  1  0  0  0  0
  3 39  1  0  0  0  0
  4 40  1  0  0  0  0
  5 41  1  0  0  0  0
 13 42  1  0  0  0  0
 13 43  1  0  0  0  0
 14 44  1  0  0  0  0
 14 45  1  0  0  0  0
 15 46  1  0  0  0  0
 15 47  1  0  0  0  0
 16 48  1  0  0  0  0
 16 49  1  0  0  0  0
 17 50  1  0  0  0  0
 17 51  1  0  0  0  0
 18 52  1  0  0  0  0
 18 53  1  0  0  0  0
 19 54  1  0  0  0  0
 19 55  1  0  0  0  0
 20 56  1  0  0  0  0
 20 57  1  0  0  0  0
 21 58  1  0  0  0  0
 21 59  1  0  0  0  0
 22 60  1  0  0  0  0
 22 61  1  0  0  0  0
 23 62  1  0  0  0  0
 24 63  1  0  0  0  0
 27 64  1  0  0  0  0
 27 65  1  0  0  0  0
 27 66  1  0  0  0  0
 28 67  1  0  0  0  0
 28 68  1  0  0  0  0
 28 69  1  0  0  0  0
 29 70  1  0  0  0  0
 29 71  1  0  0  0  0
 29 72  1  0  0  0  0
M  END
> <idnumber>
Z238097864

> <heavy_atoms>
36

> <LogS>
-7.424

> <LogP>
4.316

> <rotating_bonds>
3

> <PSA>
67.15

> <hb_acceptors>
5

> <hb_donors>
0

> <Collection>
Advanced

> <link>
https://www.enaminestore.com/catalog/Z238097864

> <ROCS_ShapeQuery>
x0446_0A_x1080_0A_x0929_0A_x0812_0A_x0719_0A_x1140_0A_x0528_0A_x0310_0A

> <ROCS_TanimotoCombo>
0.470 

> <ROCS_ShapeTanimoto>
0.299 

> <ROCS_ColorTanimoto>
0.171 

> <ROCS_RefTversky>
0.274 

> <ROCS_RefColorTversky>
0.209 

> <ROCS_RefTverskyCombo>
0.483 

> <ROCS_FitTversky>
1.454 

> <ROCS_FitColorTversky>
0.482 

> <ROCS_FitTverskyCombo>
1.937 

> <ROCS_ColorScore>
-7.536

> <ROCS_Overlap>
3242.176

> <ROCS_Rank>
86                  

$$$$
untitled-dbase-427689_115
  -OEChem-02092406493D

 52 55  0     1  0  0  0  0  0999 V2000
    2.3023   10.9704   18.6209 C   0  0  0  0  0  0  0  0  0  0  0  0
    3.5414   11.2722   18.0697 C   0  0  0  0  0  0  0  0  0  0  0  0
    1.9039   11.5952   19.7992 C   0  0  0  0  0  0  0  0  0  0  0  0
    4.3788   12.1976   18.6975 C   0  0  0  0  0  0  0  0  0  0  0  0
    3.2249   14.0840   22.2161 C   0  0  0  0  0  0  0  0  0  0  0  0
    2.7464   12.5260   20.4304 C   0  0  0  0  0  0  0  0  0  0  0  0
    2.3704   13.1696   21.6172 C   0  0  0  0  0  0  0  0  0  0  0  0
    4.0057   12.8374   19.8764 C   0  0  0  0  0  0  0  0  0  0  0  0
    4.4364   14.3236   21.6000 C   0  0  0  0  0  0  0  0  0  0  0  0
    9.7283   12.8428   24.0345 C   0  0  0  0  0  0  0  0  0  0  0  0
   10.3485   11.6473   24.7303 C   0  0  0  0  0  0  0  0  0  0  0  0
    9.1411   10.2676   23.0392 C   0  0  0  0  0  0  0  0  0  0  0  0
    8.5646   11.5367   22.3724 C   0  0  0  0  0  0  0  0  0  0  0  0
    9.1834   10.6446   24.5421 C   0  0  2  0  0  0  0  0  0  0  0  0
    8.3135   12.4741   23.5761 C   0  0  1  0  0  0  0  0  0  0  0  0
    7.9035   11.5080   24.7217 C   0  0  0  0  0  0  0  0  0  0  0  0
    1.0561   12.9083   22.2835 C   0  0  0  0  0  0  0  0  0  0  0  0
    6.5928   10.7339   24.4815 C   0  0  0  0  0  0  0  0  0  0  0  0
    7.7739   12.1717   26.1079 C   0  0  0  0  0  0  0  0  0  0  0  0
    7.4156   13.6538   23.2918 C   0  0  0  0  0  0  0  0  0  0  0  0
    4.8371   13.7243   20.4554 N   0  0  0  0  0  0  0  0  0  0  0  0
    5.2950   15.2467   22.2084 N   0  0  0  0  0  0  0  0  0  0  0  0
    6.5944   15.6247   21.7130 N   0  0  0  0  0  0  0  0  0  0  0  0
   10.2862   13.9142   23.8556 O   0  0  0  0  0  0  0  0  0  0  0  0
    9.0824   14.9346   21.7395 O   0  0  0  0  0  0  0  0  0  0  0  0
    7.3851   13.3785   20.6980 O   0  0  0  0  0  0  0  0  0  0  0  0
    7.7495   14.3573   21.7085 S   0  0  0  0  0  0  0  0  0  0  0  0
    1.6478   10.2523   18.1362 H   0  0  0  0  0  0  0  0  0  0  0  0
    3.8614   10.7898   17.1507 H   0  0  0  0  0  0  0  0  0  0  0  0
    0.9293   11.3412   20.2090 H   0  0  0  0  0  0  0  0  0  0  0  0
    5.3449   12.4166   18.2462 H   0  0  0  0  0  0  0  0  0  0  0  0
    2.9466   14.5904   23.1353 H   0  0  0  0  0  0  0  0  0  0  0  0
   11.2658   11.3307   24.2288 H   0  0  0  0  0  0  0  0  0  0  0  0
   10.5370   11.8729   25.7821 H   0  0  0  0  0  0  0  0  0  0  0  0
    8.4892    9.4058   22.8612 H   0  0  0  0  0  0  0  0  0  0  0  0
   10.1308   10.0161   22.6435 H   0  0  0  0  0  0  0  0  0  0  0  0
    9.2794   11.9601   21.6572 H   0  0  0  0  0  0  0  0  0  0  0  0
    7.6439   11.3048   21.8265 H   0  0  0  0  0  0  0  0  0  0  0  0
    9.2592    9.7748   25.1993 H   0  0  0  0  0  0  0  0  0  0  0  0
    0.2972   13.6008   21.9043 H   0  0  0  0  0  0  0  0  0  0  0  0
    0.7193   11.8818   22.1000 H   0  0  0  0  0  0  0  0  0  0  0  0
    1.1344   13.0320   23.3697 H   0  0  0  0  0  0  0  0  0  0  0  0
    5.7528   11.4041   24.6258 H   0  0  0  0  0  0  0  0  0  0  0  0
    6.5317    9.9116   25.1854 H   0  0  0  0  0  0  0  0  0  0  0  0
    6.5871   10.3508   23.4673 H   0  0  0  0  0  0  0  0  0  0  0  0
    6.8574   12.7492   26.1396 H   0  0  0  0  0  0  0  0  0  0  0  0
    8.6252   12.8226   26.2697 H   0  0  0  0  0  0  0  0  0  0  0  0
    7.7499   11.4003   26.8688 H   0  0  0  0  0  0  0  0  0  0  0  0
    7.5607   14.4469   24.0320 H   0  0  0  0  0  0  0  0  0  0  0  0
    6.3622   13.3573   23.2953 H   0  0  0  0  0  0  0  0  0  0  0  0
    5.0000   15.6983   23.0660 H   0  0  0  0  0  0  0  0  0  0  0  0
    6.9151   16.5231   22.0973 H   0  0  0  0  0  0  0  0  0  0  0  0
  1  2  1  0  0  0  0
  1  3  2  0  0  0  0
  2  4  2  0  0  0  0
  3  6  1  0  0  0  0
  4  8  1  0  0  0  0
  5  7  1  0  0  0  0
  5  9  2  0  0  0  0
  6  7  2  0  0  0  0
  6  8  1  0  0  0  0
  7 17  1  0  0  0  0
  8 21  2  0  0  0  0
  9 21  1  0  0  0  0
  9 22  1  0  0  0  0
 10 11  1  0  0  0  0
 10 15  1  0  0  0  0
 10 24  2  0  0  0  0
 11 14  1  0  0  0  0
 12 13  1  0  0  0  0
 12 14  1  0  0  0  0
 13 15  1  0  0  0  0
 14 16  1  0  0  0  0
 15 16  1  0  0  0  0
 15 20  1  0  0  0  0
 16 18  1  0  0  0  0
 16 19  1  0  0  0  0
 20 27  1  0  0  0  0
 22 23  1  0  0  0  0
 23 27  1  0  0  0  0
 25 27  2  0  0  0  0
 26 27  2  0  0  0  0
  1 28  1  0  0  0  0
  2 29  1  0  0  0  0
  3 30  1  0  0  0  0
  4 31  1  0  0  0  0
  5 32  1  0  0  0  0
 11 33  1  0  0  0  0
 11 34  1  0  0  0  0
 12 35  1  0  0  0  0
 12 36  1  0  0  0  0
 13 37  1  0  0  0  0
 13 38  1  0  0  0  0
 14 39  1  0  0  0  0
 17 40  1  0  0  0  0
 17 41  1  0  0  0  0
 17 42  1  0  0  0  0
 18 43  1  0  0  0  0
 18 44  1  0  0  0  0
 18 45  1  0  0  0  0
 19 46  1  0  0  0  0
 19 47  1  0  0  0  0
 19 48  1  0  0  0  0
 20 49  1  0  0  0  0
 20 50  1  0  0  0  0
 22 51  1  0  0  0  0
 23 52  1  0  0  0  0
M  END
> <idnumber>
Z55491204

> <heavy_atoms>
27

> <LogS>
-5.05

> <LogP>
2.755

> <rotating_bonds>
4

> <PSA>
88.16

> <hb_acceptors>
5

> <hb_donors>
2

> <Collection>
Legacy

> <link>
https://www.enaminestore.com/catalog/Z55491204

> <ROCS_ShapeQuery>
x0446_0A_x1080_0A_x0929_0A_x0812_0A_x0719_0A_x1140_0A_x0528_0A_x0310_0A

> <ROCS_TanimotoCombo>
0.470 

> <ROCS_ShapeTanimoto>
0.237 

> <ROCS_ColorTanimoto>
0.233 

> <ROCS_RefTversky>
0.220 

> <ROCS_RefColorTversky>
0.276 

> <ROCS_RefTverskyCombo>
0.497 

> <ROCS_FitTversky>
1.466 

> <ROCS_FitColorTversky>
0.598 

> <ROCS_FitTverskyCombo>
2.064 

> <ROCS_ColorScore>
-9.979

> <ROCS_Overlap>
2603.863

> <ROCS_Rank>
87                  

$$$$
untitled-dbase-1169177_14
  -OEChem-02092406493D

 55 60  0     1  0  0  0  0  0999 V2000
    4.3287   11.8115   20.8327 C   0  0  0  0  0  0  0  0  0  0  0  0
    5.0877   11.3438   21.9129 C   0  0  0  0  0  0  0  0  0  0  0  0
    4.7778   13.4356   23.1198 C   0  0  0  0  0  0  0  0  0  0  0  0
    3.0009   13.9304   20.0704 C   0  0  0  0  0  0  0  0  0  0  0  0
   12.5197   15.0857   22.9052 C   0  0  0  0  0  0  0  0  0  0  0  0
    3.7904   13.1073   20.9020 C   0  0  0  0  0  0  0  0  0  0  0  0
    5.3072   12.1437   23.0361 C   0  0  0  0  0  0  0  0  0  0  0  0
   11.4525   14.2698   22.5119 C   0  0  0  0  0  0  0  0  0  0  0  0
    4.0244   13.8827   22.0321 C   0  0  0  0  0  0  0  0  0  0  0  0
   10.5301   15.1331   21.9661 C   0  0  0  0  0  0  0  0  0  0  0  0
    9.1738   17.3695   21.0367 C   0  0  0  0  0  0  0  0  0  0  0  0
   10.3880   17.5360   21.5837 C   0  0  0  0  0  0  0  0  0  0  0  0
    8.6659   15.9661   20.9836 C   0  0  0  0  0  0  0  0  0  0  0  0
    6.1087   11.6205   24.1523 C   0  0  0  0  0  0  0  0  0  0  0  0
   11.3061   12.8120   22.6348 C   0  0  0  0  0  0  0  0  0  0  0  0
    8.9907   12.0858   25.5765 C   0  0  0  0  0  0  0  0  0  0  0  0
    9.4423   10.1198   24.1406 C   0  0  0  0  0  0  0  0  0  0  0  0
    9.6386   13.0219   24.5428 C   0  0  0  0  0  0  0  0  0  0  0  0
    8.1051   11.3134   22.5851 C   0  0  0  0  0  0  0  0  0  0  0  0
    8.3556   10.8470   24.9275 C   0  0  2  0  0  0  0  0  0  0  0  0
    9.5766   11.0659   22.9479 C   0  0  1  0  0  0  0  0  0  0  0  0
   11.0308   18.8844   21.7071 C   0  0  0  0  0  0  0  0  0  0  0  0
    7.3033   15.7545   20.3720 C   0  0  0  0  0  0  0  0  0  0  0  0
    2.7490   15.1244   20.6116 N   0  0  0  0  0  0  0  0  0  0  0  0
   12.3124   16.3737   22.6384 N   0  0  0  0  0  0  0  0  0  0  0  0
    9.3023   14.9186   21.4187 N   0  0  0  0  0  0  0  0  0  0  0  0
    3.3798   15.0670   21.7964 N   0  0  0  0  0  0  0  0  0  0  0  0
   11.0814   16.4125   22.0564 N   0  0  0  0  0  0  0  0  0  0  0  0
    7.4163   11.2565   23.8785 N   0  0  0  0  0  0  0  0  0  0  0  0
   10.2330   12.3169   23.3861 N   0  0  0  0  0  0  0  0  0  0  0  0
    5.5693   11.5565   25.2549 O   0  0  0  0  0  0  0  0  0  0  0  0
   12.1480   12.1292   22.0532 O   0  0  0  0  0  0  0  0  0  0  0  0
    4.1649   11.1801   19.9649 H   0  0  0  0  0  0  0  0  0  0  0  0
    5.5060   10.3409   21.8634 H   0  0  0  0  0  0  0  0  0  0  0  0
    4.9426   14.0667   23.9870 H   0  0  0  0  0  0  0  0  0  0  0  0
    2.5996   13.7081   19.0915 H   0  0  0  0  0  0  0  0  0  0  0  0
   13.4483   14.7990   23.3783 H   0  0  0  0  0  0  0  0  0  0  0  0
    8.5733   18.1812   20.6483 H   0  0  0  0  0  0  0  0  0  0  0  0
    9.7581   11.7586   26.2895 H   0  0  0  0  0  0  0  0  0  0  0  0
    8.2416   12.6417   26.1523 H   0  0  0  0  0  0  0  0  0  0  0  0
   10.3786    9.9909   24.6934 H   0  0  0  0  0  0  0  0  0  0  0  0
    9.0950    9.1310   23.8170 H   0  0  0  0  0  0  0  0  0  0  0  0
    8.8803   13.7004   24.1325 H   0  0  0  0  0  0  0  0  0  0  0  0
   10.3865   13.6476   25.0399 H   0  0  0  0  0  0  0  0  0  0  0  0
    7.9275   12.2693   22.0824 H   0  0  0  0  0  0  0  0  0  0  0  0
    7.7080   10.5058   21.9598 H   0  0  0  0  0  0  0  0  0  0  0  0
    7.8640   10.2164   25.6744 H   0  0  0  0  0  0  0  0  0  0  0  0
   10.1241   10.6051   22.1210 H   0  0  0  0  0  0  0  0  0  0  0  0
   10.7549   19.3334   22.6590 H   0  0  0  0  0  0  0  0  0  0  0  0
   10.6960   19.5238   20.8926 H   0  0  0  0  0  0  0  0  0  0  0  0
   12.1126   18.7782   21.6547 H   0  0  0  0  0  0  0  0  0  0  0  0
    7.4157   15.5832   19.3067 H   0  0  0  0  0  0  0  0  0  0  0  0
    6.6961   16.6373   20.5440 H   0  0  0  0  0  0  0  0  0  0  0  0
    6.8347   14.8945   20.8391 H   0  0  0  0  0  0  0  0  0  0  0  0
    3.3319   15.8755   22.4036 H   0  0  0  0  0  0  0  0  0  0  0  0
  1  2  2  0  0  0  0
  1  6  1  0  0  0  0
  2  7  1  0  0  0  0
  3  7  2  0  0  0  0
  3  9  1  0  0  0  0
  4  6  1  0  0  0  0
  4 24  2  0  0  0  0
  5  8  1  0  0  0  0
  5 25  2  0  0  0  0
  6  9  2  0  0  0  0
  7 14  1  0  0  0  0
  8 10  2  0  0  0  0
  8 15  1  0  0  0  0
  9 27  1  0  0  0  0
 10 26  1  0  0  0  0
 10 28  1  0  0  0  0
 11 12  2  0  0  0  0
 11 13  1  0  0  0  0
 12 22  1  0  0  0  0
 12 28  1  0  0  0  0
 13 23  1  0  0  0  0
 13 26  2  0  0  0  0
 14 29  1  0  0  0  0
 14 31  2  0  0  0  0
 15 30  1  0  0  0  0
 15 32  2  0  0  0  0
 16 18  1  0  0  0  0
 16 20  1  0  0  0  0
 17 20  1  0  0  0  0
 17 21  1  0  0  0  0
 18 30  1  0  0  0  0
 19 21  1  0  0  0  0
 19 29  1  0  0  0  0
 20 29  1  0  0  0  0
 21 30  1  0  0  0  0
 24 27  1  0  0  0  0
 25 28  1  0  0  0  0
  1 33  1  0  0  0  0
  2 34  1  0  0  0  0
  3 35  1  0  0  0  0
  4 36  1  0  0  0  0
  5 37  1  0  0  0  0
 11 38  1  0  0  0  0
 16 39  1  0  0  0  0
 16 40  1  0  0  0  0
 17 41  1  0  0  0  0
 17 42  1  0  0  0  0
 18 43  1  0  0  0  0
 18 44  1  0  0  0  0
 19 45  1  0  0  0  0
 19 46  1  0  0  0  0
 20 47  1  0  0  0  0
 21 48  1  0  0  0  0
 22 49  1  0  0  0  0
 22 50  1  0  0  0  0
 22 51  1  0  0  0  0
 23 52  1  0  0  0  0
 23 53  1  0  0  0  0
 23 54  1  0  0  0  0
 27 55  1  0  0  0  0
M  END
> <idnumber>
Z8416291035

> <heavy_atoms>
32

> <LogS>
-4.781

> <LogP>
0.9

> <rotating_bonds>
2

> <PSA>
99.49

> <hb_acceptors>
5

> <hb_donors>
1

> <Collection>
Advanced

> <link>
https://www.enaminestore.com/catalog/Z8416291035

> <ROCS_ShapeQuery>
x0446_0A_x1080_0A_x0929_0A_x0812_0A_x0719_0A_x1140_0A_x0528_0A_x0310_0A

> <ROCS_TanimotoCombo>
0.470 

> <ROCS_ShapeTanimoto>
0.254 

> <ROCS_ColorTanimoto>
0.216 

> <ROCS_RefTversky>
0.238 

> <ROCS_RefColorTversky>
0.261 

> <ROCS_RefTverskyCombo>
0.499 

> <ROCS_FitTversky>
1.359 

> <ROCS_FitColorTversky>
0.556 

> <ROCS_FitTverskyCombo>
1.915 

> <ROCS_ColorScore>
-9.446

> <ROCS_Overlap>
2813.203

> <ROCS_Rank>
88                  

$$$$
untitled-dbase-219962_9
  -OEChem-02092406493D

 36 39  0     0  0  0  0  0  0999 V2000
   13.4929   14.7936   22.1619 C   0  0  0  0  0  0  0  0  0  0  0  0
   13.2854   14.0821   23.3435 C   0  0  0  0  0  0  0  0  0  0  0  0
   12.4038   15.2983   21.4513 C   0  0  0  0  0  0  0  0  0  0  0  0
   11.9889   13.8751   23.8146 C   0  0  0  0  0  0  0  0  0  0  0  0
    7.9598   12.5158   24.2159 C   0  0  0  0  0  0  0  0  0  0  0  0
    6.8398   13.2612   24.6507 C   0  0  0  0  0  0  0  0  0  0  0  0
   11.1073   15.0914   21.9224 C   0  0  0  0  0  0  0  0  0  0  0  0
   10.8998   14.3797   23.1040 C   0  0  0  0  0  0  0  0  0  0  0  0
    5.7994   12.4650   25.0451 C   0  0  0  0  0  0  0  0  0  0  0  0
    9.2259   12.8550   23.7329 C   0  0  0  0  0  0  0  0  0  0  0  0
    7.6797   11.1502   24.3142 C   0  0  0  0  0  0  0  0  0  0  0  0
    9.6984   10.6080   23.5359 C   0  0  0  0  0  0  0  0  0  0  0  0
    6.4977   14.6981   24.7950 C   0  0  0  0  0  0  0  0  0  0  0  0
    4.6084   13.2128   25.5093 C   0  0  0  0  0  0  0  0  0  0  0  0
    4.9518   14.6504   25.0099 C   0  0  0  0  0  0  0  0  0  0  0  0
   10.6944    9.5665   23.1462 C   0  0  0  0  0  0  0  0  0  0  0  0
   10.1022   11.8863   23.3901 N   0  0  0  0  0  0  0  0  0  0  0  0
    8.5170   10.1470   23.9860 N   0  0  0  0  0  0  0  0  0  0  0  0
   10.0087   15.6130   21.1853 N   0  3  0  0  0  0  0  0  0  0  0  0
   10.2350   16.2477   20.1280 O   0  5  0  0  0  0  0  0  0  0  0  0
    8.8461   15.4233   21.6148 O   0  0  0  0  0  0  0  0  0  0  0  0
    9.6276   14.1603   23.5891 O   0  0  0  0  0  0  0  0  0  0  0  0
    6.1015   10.8260   24.9194 S   0  0  0  0  0  0  0  0  0  0  0  0
   14.5024   14.9546   21.7950 H   0  0  0  0  0  0  0  0  0  0  0  0
   14.1334   13.6892   23.8970 H   0  0  0  0  0  0  0  0  0  0  0  0
   12.5806   15.8513   20.5319 H   0  0  0  0  0  0  0  0  0  0  0  0
   11.8345   13.3198   24.7362 H   0  0  0  0  0  0  0  0  0  0  0  0
    6.9934   15.1230   25.6740 H   0  0  0  0  0  0  0  0  0  0  0  0
    6.7553   15.2878   23.9110 H   0  0  0  0  0  0  0  0  0  0  0  0
    3.6726   12.8545   25.0719 H   0  0  0  0  0  0  0  0  0  0  0  0
    4.5370   13.1928   26.6014 H   0  0  0  0  0  0  0  0  0  0  0  0
    4.6038   15.4245   25.7007 H   0  0  0  0  0  0  0  0  0  0  0  0
    4.4534   14.8210   24.0462 H   0  0  0  0  0  0  0  0  0  0  0  0
   11.3166    9.2942   24.0068 H   0  0  0  0  0  0  0  0  0  0  0  0
   10.1977    8.6617   22.7742 H   0  0  0  0  0  0  0  0  0  0  0  0
   11.3489    9.9246   22.3415 H   0  0  0  0  0  0  0  0  0  0  0  0
  1  2  1  0  0  0  0
  1  3  2  0  0  0  0
  2  4  2  0  0  0  0
  3  7  1  0  0  0  0
  4  8  1  0  0  0  0
  5  6  1  0  0  0  0
  5 10  1  0  0  0  0
  5 11  2  0  0  0  0
  6  9  2  0  0  0  0
  6 13  1  0  0  0  0
  7  8  2  0  0  0  0
  7 19  1  0  0  0  0
  8 22  1  0  0  0  0
  9 14  1  0  0  0  0
  9 23  1  0  0  0  0
 10 17  2  0  0  0  0
 10 22  1  0  0  0  0
 11 18  1  0  0  0  0
 11 23  1  0  0  0  0
 12 16  1  0  0  0  0
 12 17  1  0  0  0  0
 12 18  2  0  0  0  0
 13 15  1  0  0  0  0
 14 15  1  0  0  0  0
 19 20  1  0  0  0  0
 19 21  2  0  0  0  0
  1 24  1  0  0  0  0
  2 25  1  0  0  0  0
  3 26  1  0  0  0  0
  4 27  1  0  0  0  0
 13 28  1  0  0  0  0
 13 29  1  0  0  0  0
 14 30  1  0  0  0  0
 14 31  1  0  0  0  0
 15 32  1  0  0  0  0
 15 33  1  0  0  0  0
 16 34  1  0  0  0  0
 16 35  1  0  0  0  0
 16 36  1  0  0  0  0
M  CHG  2  19   1  20  -1
M  END
> <idnumber>
Z31209572

> <heavy_atoms>
23

> <LogS>
-5.938

> <LogP>
3.959

> <rotating_bonds>
3

> <PSA>
78.15

> <hb_acceptors>
4

> <hb_donors>
0

> <Collection>
HTS

> <link>
https://www.enaminestore.com/catalog/Z31209572

> <ROCS_ShapeQuery>
x0446_0A_x1080_0A_x0929_0A_x0812_0A_x0719_0A_x1140_0A_x0528_0A_x0310_0A

> <ROCS_TanimotoCombo>
0.470 

> <ROCS_ShapeTanimoto>
0.268 

> <ROCS_ColorTanimoto>
0.202 

> <ROCS_RefTversky>
0.240 

> <ROCS_RefColorTversky>
0.217 

> <ROCS_RefTverskyCombo>
0.458 

> <ROCS_FitTversky>
1.736 

> <ROCS_FitColorTversky>
0.742 

> <ROCS_FitTverskyCombo>
2.478 

> <ROCS_ColorScore>
-7.783

> <ROCS_Overlap>
2840.236

> <ROCS_Rank>
89                  

$$$$
untitled-dbase-1075466_82
  -OEChem-02092406493D

 49 53  0     1  0  0  0  0  0999 V2000
   13.4132   15.6080   22.2030 C   0  0  0  0  0  0  0  0  0  0  0  0
   12.6679   16.7589   21.9726 C   0  0  0  0  0  0  0  0  0  0  0  0
    5.5141   11.9774   25.1406 C   0  0  0  0  0  0  0  0  0  0  0  0
    6.1721   13.2044   25.2320 C   0  0  0  0  0  0  0  0  0  0  0  0
    5.4247   12.9314   20.3082 C   0  0  0  0  0  0  0  0  0  0  0  0
   12.7842   14.3671   22.1813 C   0  0  0  0  0  0  0  0  0  0  0  0
    6.7936   12.9666   20.5492 C   0  0  0  0  0  0  0  0  0  0  0  0
   11.2959   16.6668   21.7208 C   0  0  0  0  0  0  0  0  0  0  0  0
    6.1987   10.8479   24.6915 C   0  0  0  0  0  0  0  0  0  0  0  0
    7.5196   13.3032   24.8847 C   0  0  0  0  0  0  0  0  0  0  0  0
    4.6670   14.0192   20.7113 C   0  0  0  0  0  0  0  0  0  0  0  0
    6.5111   15.1096   21.5412 C   0  0  0  0  0  0  0  0  0  0  0  0
   11.4042   14.2829   21.9273 C   0  0  0  0  0  0  0  0  0  0  0  0
    7.3551   14.0728   21.1771 C   0  0  0  0  0  0  0  0  0  0  0  0
   10.6407   15.4381   21.6930 C   0  0  0  0  0  0  0  0  0  0  0  0
    7.5429   10.9487   24.3316 C   0  0  0  0  0  0  0  0  0  0  0  0
    8.2084   12.1709   24.4489 C   0  0  0  0  0  0  0  0  0  0  0  0
   10.7148   13.0740   21.8914 C   0  0  0  0  0  0  0  0  0  0  0  0
    8.7689   14.1385   21.4408 C   0  0  0  0  0  0  0  0  0  0  0  0
    9.3965   10.0929   23.2253 C   0  0  0  0  0  0  0  0  0  0  0  0
   10.2190   11.0690   24.0559 C   0  0  1  0  0  0  0  0  0  0  0  0
   12.0069   11.1673   20.9665 C   0  0  0  0  0  0  0  0  0  0  0  0
   11.5797   11.3242   23.4245 C   0  0  0  0  0  0  0  0  0  0  0  0
    5.1768   15.1113   21.3238 N   0  0  0  0  0  0  0  0  0  0  0  0
    9.3203   15.3691   21.4488 N   0  0  0  0  0  0  0  0  0  0  0  0
    9.3944   12.9690   21.6503 N   0  0  0  0  0  0  0  0  0  0  0  0
   11.4161   11.8704   22.1174 N   0  0  3  0  0  0  0  0  0  0  0  0
    8.1553    9.8098   23.8795 O   0  0  0  0  0  0  0  0  0  0  0  0
    9.5348   12.3263   24.1426 O   0  0  0  0  0  0  0  0  0  0  0  0
   14.4784   15.6784   22.4002 H   0  0  0  0  0  0  0  0  0  0  0  0
   13.1510   17.7317   21.9882 H   0  0  0  0  0  0  0  0  0  0  0  0
    4.4659   11.9027   25.4155 H   0  0  0  0  0  0  0  0  0  0  0  0
    5.6353   14.0829   25.5780 H   0  0  0  0  0  0  0  0  0  0  0  0
    4.9646   12.0803   19.8196 H   0  0  0  0  0  0  0  0  0  0  0  0
   13.3880   13.4822   22.3646 H   0  0  0  0  0  0  0  0  0  0  0  0
    7.4100   12.1252   20.2426 H   0  0  0  0  0  0  0  0  0  0  0  0
   10.7351   17.5829   21.5444 H   0  0  0  0  0  0  0  0  0  0  0  0
    5.6763    9.8982   24.6151 H   0  0  0  0  0  0  0  0  0  0  0  0
    8.0268   14.2606   24.9668 H   0  0  0  0  0  0  0  0  0  0  0  0
    3.5945   14.0404   20.5466 H   0  0  0  0  0  0  0  0  0  0  0  0
    6.8871   16.0018   22.0338 H   0  0  0  0  0  0  0  0  0  0  0  0
    9.1785   10.4888   22.2250 H   0  0  0  0  0  0  0  0  0  0  0  0
    9.9275    9.1428   23.1051 H   0  0  0  0  0  0  0  0  0  0  0  0
   10.3593   10.6876   25.0762 H   0  0  0  0  0  0  0  0  0  0  0  0
   12.5135   10.2550   21.3142 H   0  0  0  0  0  0  0  0  0  0  0  0
   11.2127   10.8971   20.2550 H   0  0  0  0  0  0  0  0  0  0  0  0
   12.7357   11.8248   20.4701 H   0  0  0  0  0  0  0  0  0  0  0  0
   12.1127   12.0266   24.0659 H   0  0  0  0  0  0  0  0  0  0  0  0
   12.1027   10.3688   23.3744 H   0  0  0  0  0  0  0  0  0  0  0  0
  1  2  1  0  0  0  0
  1  6  2  0  0  0  0
  2  8  2  0  0  0  0
  3  4  1  0  0  0  0
  3  9  2  0  0  0  0
  4 10  2  0  0  0  0
  5  7  2  0  0  0  0
  5 11  1  0  0  0  0
  6 13  1  0  0  0  0
  7 14  1  0  0  0  0
  8 15  1  0  0  0  0
  9 16  1  0  0  0  0
 10 17  1  0  0  0  0
 11 24  2  0  0  0  0
 12 14  2  0  0  0  0
 12 24  1  0  0  0  0
 13 15  1  0  0  0  0
 13 18  2  0  0  0  0
 14 19  1  0  0  0  0
 15 25  2  0  0  0  0
 16 17  2  0  0  0  0
 16 28  1  0  0  0  0
 17 29  1  0  0  0  0
 18 26  1  0  0  0  0
 18 27  1  0  0  0  0
 19 25  1  0  0  0  0
 19 26  2  0  0  0  0
 20 21  1  0  0  0  0
 20 28  1  0  0  0  0
 21 23  1  6  0  0  0
 21 29  1  0  0  0  0
 22 27  1  0  0  0  0
 23 27  1  0  0  0  0
  1 30  1  0  0  0  0
  2 31  1  0  0  0  0
  3 32  1  0  0  0  0
  4 33  1  0  0  0  0
  5 34  1  0  0  0  0
  6 35  1  0  0  0  0
  7 36  1  0  0  0  0
  8 37  1  0  0  0  0
  9 38  1  0  0  0  0
 10 39  1  0  0  0  0
 11 40  1  0  0  0  0
 12 41  1  0  0  0  0
 20 42  1  0  0  0  0
 20 43  1  0  0  0  0
 21 44  1  0  0  0  0
 22 45  1  0  0  0  0
 22 46  1  0  0  0  0
 22 47  1  0  0  0  0
 23 48  1  0  0  0  0
 23 49  1  0  0  0  0
M  END
> <idnumber>
Z4176479719

> <heavy_atoms>
29

> <LogS>
-6.002

> <LogP>
4.465

> <rotating_bonds>
4

> <PSA>
60.37

> <hb_acceptors>
6

> <hb_donors>
0

> <Collection>
HTS

> <link>
https://www.enaminestore.com/catalog/Z4176479719

> <ROCS_ShapeQuery>
x0446_0A_x1080_0A_x0929_0A_x0812_0A_x0719_0A_x1140_0A_x0528_0A_x0310_0A

> <ROCS_TanimotoCombo>
0.470 

> <ROCS_ShapeTanimoto>
0.288 

> <ROCS_ColorTanimoto>
0.182 

> <ROCS_RefTversky>
0.260 

> <ROCS_RefColorTversky>
0.202 

> <ROCS_RefTverskyCombo>
0.463 

> <ROCS_FitTversky>
1.600 

> <ROCS_FitColorTversky>
0.638 

> <ROCS_FitTverskyCombo>
2.238 

> <ROCS_ColorScore>
-7.256

> <ROCS_Overlap>
3077.512

> <ROCS_Rank>
90                  

$$$$
untitled-dbase-325053_9
  -OEChem-02092406493D

 39 42  0     0  0  0  0  0  0999 V2000
   13.4986   14.7647   22.1774 C   0  0  0  0  0  0  0  0  0  0  0  0
   13.2802   14.0591   23.3606 C   0  0  0  0  0  0  0  0  0  0  0  0
   12.4167   15.2746   21.4595 C   0  0  0  0  0  0  0  0  0  0  0  0
   11.9799   13.8633   23.8259 C   0  0  0  0  0  0  0  0  0  0  0  0
    7.9403   12.5264   24.2179 C   0  0  0  0  0  0  0  0  0  0  0  0
    6.8164   13.3083   24.6491 C   0  0  0  0  0  0  0  0  0  0  0  0
   11.1164   15.0787   21.9248 C   0  0  0  0  0  0  0  0  0  0  0  0
   10.8980   14.3731   23.1081 C   0  0  0  0  0  0  0  0  0  0  0  0
    5.7660   12.5091   25.0621 C   0  0  0  0  0  0  0  0  0  0  0  0
    9.2102   12.8626   23.7342 C   0  0  0  0  0  0  0  0  0  0  0  0
    7.6682   11.1672   24.3212 C   0  0  0  0  0  0  0  0  0  0  0  0
    9.6875   10.6189   23.5472 C   0  0  0  0  0  0  0  0  0  0  0  0
    6.7375   14.8058   24.7000 C   0  0  0  0  0  0  0  0  0  0  0  0
    4.4422   13.0090   25.5504 C   0  0  0  0  0  0  0  0  0  0  0  0
    5.2907   15.2999   24.8520 C   0  0  0  0  0  0  0  0  0  0  0  0
    4.5282   14.4985   25.9159 C   0  0  0  0  0  0  0  0  0  0  0  0
   10.6835    9.5754   23.1636 C   0  0  0  0  0  0  0  0  0  0  0  0
   10.0894   11.8955   23.3964 N   0  0  0  0  0  0  0  0  0  0  0  0
    8.5062   10.1628   23.9986 N   0  0  0  0  0  0  0  0  0  0  0  0
   10.0254   15.6056   21.1804 N   0  3  0  0  0  0  0  0  0  0  0  0
   10.2615   16.2346   20.1218 O   0  5  0  0  0  0  0  0  0  0  0  0
    8.8593   15.4258   21.6048 O   0  0  0  0  0  0  0  0  0  0  0  0
    9.6219   14.1647   23.5877 O   0  0  0  0  0  0  0  0  0  0  0  0
    6.1066   10.8488   24.9231 S   0  0  0  0  0  0  0  0  0  0  0  0
   14.5111   14.9170   21.8149 H   0  0  0  0  0  0  0  0  0  0  0  0
   14.1225   13.6622   23.9197 H   0  0  0  0  0  0  0  0  0  0  0  0
   12.6021   15.8228   20.5389 H   0  0  0  0  0  0  0  0  0  0  0  0
   11.8168   13.3126   24.7488 H   0  0  0  0  0  0  0  0  0  0  0  0
    7.3331   15.1577   25.5513 H   0  0  0  0  0  0  0  0  0  0  0  0
    7.1667   15.2449   23.7928 H   0  0  0  0  0  0  0  0  0  0  0  0
    3.6973   12.8733   24.7564 H   0  0  0  0  0  0  0  0  0  0  0  0
    4.1027   12.4392   26.4228 H   0  0  0  0  0  0  0  0  0  0  0  0
    5.2939   16.3637   25.1144 H   0  0  0  0  0  0  0  0  0  0  0  0
    4.7680   15.2082   23.8911 H   0  0  0  0  0  0  0  0  0  0  0  0
    3.5175   14.9037   26.0385 H   0  0  0  0  0  0  0  0  0  0  0  0
    5.0376   14.6111   26.8818 H   0  0  0  0  0  0  0  0  0  0  0  0
   11.3050    9.3070   24.0261 H   0  0  0  0  0  0  0  0  0  0  0  0
   10.1870    8.6687   22.7956 H   0  0  0  0  0  0  0  0  0  0  0  0
   11.3390    9.9291   22.3577 H   0  0  0  0  0  0  0  0  0  0  0  0
  1  2  1  0  0  0  0
  1  3  2  0  0  0  0
  2  4  2  0  0  0  0
  3  7  1  0  0  0  0
  4  8  1  0  0  0  0
  5  6  1  0  0  0  0
  5 10  1  0  0  0  0
  5 11  2  0  0  0  0
  6  9  2  0  0  0  0
  6 13  1  0  0  0  0
  7  8  2  0  0  0  0
  7 20  1  0  0  0  0
  8 23  1  0  0  0  0
  9 14  1  0  0  0  0
  9 24  1  0  0  0  0
 10 18  2  0  0  0  0
 10 23  1  0  0  0  0
 11 19  1  0  0  0  0
 11 24  1  0  0  0  0
 12 17  1  0  0  0  0
 12 18  1  0  0  0  0
 12 19  2  0  0  0  0
 13 15  1  0  0  0  0
 14 16  1  0  0  0  0
 15 16  1  0  0  0  0
 20 21  1  0  0  0  0
 20 22  2  0  0  0  0
  1 25  1  0  0  0  0
  2 26  1  0  0  0  0
  3 27  1  0  0  0  0
  4 28  1  0  0  0  0
 13 29  1  0  0  0  0
 13 30  1  0  0  0  0
 14 31  1  0  0  0  0
 14 32  1  0  0  0  0
 15 33  1  0  0  0  0
 15 34  1  0  0  0  0
 16 35  1  0  0  0  0
 16 36  1  0  0  0  0
 17 37  1  0  0  0  0
 17 38  1  0  0  0  0
 17 39  1  0  0  0  0
M  CHG  2  20   1  21  -1
M  END
> <idnumber>
Z31209595

> <heavy_atoms>
24

> <LogS>
-6.441

> <LogP>
4.518

> <rotating_bonds>
3

> <PSA>
78.15

> <hb_acceptors>
4

> <hb_donors>
0

> <Collection>
Legacy

> <link>
https://www.enaminestore.com/catalog/Z31209595

> <ROCS_ShapeQuery>
x0446_0A_x1080_0A_x0929_0A_x0812_0A_x0719_0A_x1140_0A_x0528_0A_x0310_0A

> <ROCS_TanimotoCombo>
0.470 

> <ROCS_ShapeTanimoto>
0.269 

> <ROCS_ColorTanimoto>
0.201 

> <ROCS_RefTversky>
0.242 

> <ROCS_RefColorTversky>
0.216 

> <ROCS_RefTverskyCombo>
0.458 

> <ROCS_FitTversky>
1.710 

> <ROCS_FitColorTversky>
0.739 

> <ROCS_FitTverskyCombo>
2.449 

> <ROCS_ColorScore>
-7.733

> <ROCS_Overlap>
2858.921

> <ROCS_Rank>
91                  

$$$$
untitled-dbase-960274_198
  -OEChem-02092406493D

 46 50  0     1  0  0  0  0  0999 V2000
    3.0736   14.3710   19.2136 C   0  0  0  0  0  0  0  0  0  0  0  0
    3.4910   13.2596   19.9842 C   0  0  0  0  0  0  0  0  0  0  0  0
    3.0851   15.4517   20.0644 C   0  0  0  0  0  0  0  0  0  0  0  0
    8.6614   16.0173   21.5206 C   0  0  0  0  0  0  0  0  0  0  0  0
   12.7687   14.8548   22.2417 C   0  0  0  0  0  0  0  0  0  0  0  0
   10.6010   14.4741   22.3720 C   0  0  0  0  0  0  0  0  0  0  0  0
    3.7280   13.7405   21.2509 C   0  0  0  0  0  0  0  0  0  0  0  0
   10.8727   15.6884   21.7562 C   0  0  0  0  0  0  0  0  0  0  0  0
    9.2998   14.0478   22.5518 C   0  0  0  0  0  0  0  0  0  0  0  0
    6.5728   12.8096   23.1635 C   0  0  0  0  0  0  0  0  0  0  0  0
    7.9981   11.0459   25.1706 C   0  0  0  0  0  0  0  0  0  0  0  0
    9.2386   11.9187   25.4077 C   0  0  0  0  0  0  0  0  0  0  0  0
   10.3658   10.8176   23.4457 C   0  0  0  0  0  0  0  0  0  0  0  0
    7.8168   12.0383   22.8413 C   0  0  2  0  0  0  0  0  0  0  0  0
    7.8605   10.7285   23.6667 C   0  0  1  0  0  0  0  0  0  0  0  0
    9.9715   12.1716   24.0791 C   0  0  1  0  0  0  0  0  0  0  0  0
    9.1170    9.9613   23.2349 C   0  0  0  0  0  0  0  0  0  0  0  0
    4.1864   13.0933   22.5258 C   0  0  0  0  0  0  0  0  0  0  0  0
    9.8984   16.5135   21.3029 N   0  0  0  0  0  0  0  0  0  0  0  0
    8.3060   14.8506   22.1093 N   0  0  0  0  0  0  0  0  0  0  0  0
   12.2236   15.9133   21.6813 N   0  0  0  0  0  0  0  0  0  0  0  0
   11.8285   13.9573   22.6745 N   0  0  0  0  0  0  0  0  0  0  0  0
    9.0156   12.8347   23.1666 N   0  0  3  0  0  0  0  0  0  0  0  0
    5.4842   12.4737   22.3816 N   0  0  0  0  0  0  0  0  0  0  0  0
    6.5961   13.6479   24.0571 O   0  0  0  0  0  0  0  0  0  0  0  0
    3.4830   15.0759   21.3082 O   0  0  0  0  0  0  0  0  0  0  0  0
    9.0197    9.6069   21.9296 F   0  0  0  0  0  0  0  0  0  0  0  0
    9.2228    8.8068   23.9372 F   0  0  0  0  0  0  0  0  0  0  0  0
    2.7984   14.3828   18.1689 H   0  0  0  0  0  0  0  0  0  0  0  0
    3.6035   12.2366   19.6544 H   0  0  0  0  0  0  0  0  0  0  0  0
    2.8500   16.4992   19.9453 H   0  0  0  0  0  0  0  0  0  0  0  0
    7.8398   16.6369   21.1774 H   0  0  0  0  0  0  0  0  0  0  0  0
   13.8274   14.6761   22.3654 H   0  0  0  0  0  0  0  0  0  0  0  0
    8.0820   10.1175   25.7484 H   0  0  0  0  0  0  0  0  0  0  0  0
    7.1041   11.5578   25.5444 H   0  0  0  0  0  0  0  0  0  0  0  0
    8.9444   12.8710   25.8655 H   0  0  0  0  0  0  0  0  0  0  0  0
    9.9089   11.4226   26.1198 H   0  0  0  0  0  0  0  0  0  0  0  0
   10.8820   10.9836   22.4930 H   0  0  0  0  0  0  0  0  0  0  0  0
   11.0679   10.2969   24.1074 H   0  0  0  0  0  0  0  0  0  0  0  0
    7.7825   11.7867   21.7750 H   0  0  0  0  0  0  0  0  0  0  0  0
    6.9617   10.1267   23.4929 H   0  0  0  0  0  0  0  0  0  0  0  0
   10.8560   12.7952   24.2546 H   0  0  0  0  0  0  0  0  0  0  0  0
    4.2531   13.8323   23.3317 H   0  0  0  0  0  0  0  0  0  0  0  0
    3.4809   12.3211   22.8502 H   0  0  0  0  0  0  0  0  0  0  0  0
   12.0129   13.0751   23.1334 H   0  0  0  0  0  0  0  0  0  0  0  0
    5.6016   11.7571   21.6716 H   0  0  0  0  0  0  0  0  0  0  0  0
  1  2  1  0  0  0  0
  1  3  2  0  0  0  0
  2  7  2  0  0  0  0
  3 26  1  0  0  0  0
  4 19  1  0  0  0  0
  4 20  2  0  0  0  0
  5 21  2  0  0  0  0
  5 22  1  0  0  0  0
  6  8  1  0  0  0  0
  6  9  2  0  0  0  0
  6 22  1  0  0  0  0
  7 18  1  0  0  0  0
  7 26  1  0  0  0  0
  8 19  2  0  0  0  0
  8 21  1  0  0  0  0
  9 20  1  0  0  0  0
  9 23  1  0  0  0  0
 10 14  1  1  0  0  0
 10 24  1  0  0  0  0
 10 25  2  0  0  0  0
 11 12  1  0  0  0  0
 11 15  1  1  0  0  0
 12 16  1  0  0  0  0
 13 16  1  0  0  0  0
 13 17  1  0  0  0  0
 14 15  1  0  0  0  0
 14 23  1  0  0  0  0
 15 17  1  0  0  0  0
 16 23  1  6  0  0  0
 17 27  1  0  0  0  0
 17 28  1  0  0  0  0
 18 24  1  0  0  0  0
  1 29  1  0  0  0  0
  2 30  1  0  0  0  0
  3 31  1  0  0  0  0
  4 32  1  0  0  0  0
  5 33  1  0  0  0  0
 11 34  1  0  0  0  0
 11 35  1  0  0  0  0
 12 36  1  0  0  0  0
 12 37  1  0  0  0  0
 13 38  1  0  0  0  0
 13 39  1  0  0  0  0
 14 40  1  0  0  0  0
 15 41  1  0  0  0  0
 16 42  1  0  0  0  0
 18 43  1  0  0  0  0
 18 44  1  0  0  0  0
 22 45  1  0  0  0  0
 24 46  1  0  0  0  0
M  END
> <idnumber>
Z2803805431

> <heavy_atoms>
28

> <LogS>
-5.643

> <LogP>
1.159

> <rotating_bonds>
4

> <PSA>
99.94

> <hb_acceptors>
5

> <hb_donors>
2

> <Collection>
Advanced

> <link>
https://www.enaminestore.com/catalog/Z2803805431

> <ROCS_ShapeQuery>
x0446_0A_x1080_0A_x0929_0A_x0812_0A_x0719_0A_x1140_0A_x0528_0A_x0310_0A

> <ROCS_TanimotoCombo>
0.470 

> <ROCS_ShapeTanimoto>
0.280 

> <ROCS_ColorTanimoto>
0.190 

> <ROCS_RefTversky>
0.253 

> <ROCS_RefColorTversky>
0.239 

> <ROCS_RefTverskyCombo>
0.493 

> <ROCS_FitTversky>
1.585 

> <ROCS_FitColorTversky>
0.479 

> <ROCS_FitTverskyCombo>
2.065 

> <ROCS_ColorScore>
-8.662

> <ROCS_Overlap>
2998.097

> <ROCS_Rank>
92                  

$$$$
untitled-dbase-326127_186
  -OEChem-02092406493D

 49 52  0     0  0  0  0  0  0999 V2000
   13.1571   14.6124   22.3483 C   0  0  0  0  0  0  0  0  0  0  0  0
   12.7595   15.1576   21.1275 C   0  0  0  0  0  0  0  0  0  0  0  0
   12.2003   14.2705   23.3040 C   0  0  0  0  0  0  0  0  0  0  0  0
   11.4053   15.3610   20.8625 C   0  0  0  0  0  0  0  0  0  0  0  0
    8.0418   12.5829   24.0839 C   0  0  0  0  0  0  0  0  0  0  0  0
    6.8960   13.4171   24.2769 C   0  0  0  0  0  0  0  0  0  0  0  0
   10.8461   14.4739   23.0390 C   0  0  0  0  0  0  0  0  0  0  0  0
   10.4485   15.0191   21.8182 C   0  0  0  0  0  0  0  0  0  0  0  0
    5.7247   12.6952   24.3537 C   0  0  0  0  0  0  0  0  0  0  0  0
    9.4071   12.8552   23.9511 C   0  0  0  0  0  0  0  0  0  0  0  0
    7.6746   11.2448   24.0228 C   0  0  0  0  0  0  0  0  0  0  0  0
    9.7895   10.5953   23.7356 C   0  0  0  0  0  0  0  0  0  0  0  0
   14.4418    9.4313   23.7820 C   0  0  0  0  0  0  0  0  0  0  0  0
   14.2084   10.5876   22.8145 C   0  0  0  0  0  0  0  0  0  0  0  0
   13.0630    8.8393   24.0350 C   0  0  0  0  0  0  0  0  0  0  0  0
   12.7086   10.5955   22.5586 C   0  0  0  0  0  0  0  0  0  0  0  0
    6.9508   14.8974   24.3841 C   0  0  0  0  0  0  0  0  0  0  0  0
    4.3415   13.1860   24.5475 C   0  0  0  0  0  0  0  0  0  0  0  0
    8.5808   16.4883   21.9149 C   0  0  0  0  0  0  0  0  0  0  0  0
   10.7959    9.4988   23.5383 C   0  0  0  0  0  0  0  0  0  0  0  0
   10.2875   11.8467   23.7752 N   0  0  0  0  0  0  0  0  0  0  0  0
    8.5086   10.2009   23.8492 N   0  0  0  0  0  0  0  0  0  0  0  0
   12.1685    9.9659   23.7645 N   0  0  0  0  0  0  0  0  0  0  0  0
    9.9101   14.1328   23.9926 O   0  0  0  0  0  0  0  0  0  0  0  0
    9.1291   15.2237   21.5480 O   0  0  0  0  0  0  0  0  0  0  0  0
    5.9948   11.0138   24.1936 S   0  0  0  0  0  0  0  0  0  0  0  0
   14.2118   14.4538   22.5546 H   0  0  0  0  0  0  0  0  0  0  0  0
   13.5043   15.4238   20.3835 H   0  0  0  0  0  0  0  0  0  0  0  0
   12.5166   13.8459   24.2530 H   0  0  0  0  0  0  0  0  0  0  0  0
   11.1025   15.7877   19.9102 H   0  0  0  0  0  0  0  0  0  0  0  0
   15.1278    8.6863   23.3660 H   0  0  0  0  0  0  0  0  0  0  0  0
   14.8807    9.8093   24.7130 H   0  0  0  0  0  0  0  0  0  0  0  0
   14.5298   11.5283   23.2765 H   0  0  0  0  0  0  0  0  0  0  0  0
   14.7731   10.4594   21.8853 H   0  0  0  0  0  0  0  0  0  0  0  0
   12.8858    8.0049   23.3442 H   0  0  0  0  0  0  0  0  0  0  0  0
   12.9640    8.4707   25.0609 H   0  0  0  0  0  0  0  0  0  0  0  0
   12.3284   11.6123   22.4180 H   0  0  0  0  0  0  0  0  0  0  0  0
   12.4828   10.0097   21.6580 H   0  0  0  0  0  0  0  0  0  0  0  0
    6.8503   15.3623   23.3933 H   0  0  0  0  0  0  0  0  0  0  0  0
    6.1486   15.2865   25.0283 H   0  0  0  0  0  0  0  0  0  0  0  0
    7.8991   15.2361   24.8271 H   0  0  0  0  0  0  0  0  0  0  0  0
    3.8594   13.3945   23.5801 H   0  0  0  0  0  0  0  0  0  0  0  0
    3.7187   12.4535   25.0855 H   0  0  0  0  0  0  0  0  0  0  0  0
    4.3154   14.1112   25.1455 H   0  0  0  0  0  0  0  0  0  0  0  0
    7.5226   16.5197   21.6443 H   0  0  0  0  0  0  0  0  0  0  0  0
    9.1235   17.2849   21.3998 H   0  0  0  0  0  0  0  0  0  0  0  0
    8.6825   16.6200   22.9947 H   0  0  0  0  0  0  0  0  0  0  0  0
   10.6037    8.6698   24.2282 H   0  0  0  0  0  0  0  0  0  0  0  0
   10.7429    9.0950   22.5218 H   0  0  0  0  0  0  0  0  0  0  0  0
  1  2  1  0  0  0  0
  1  3  2  0  0  0  0
  2  4  2  0  0  0  0
  3  7  1  0  0  0  0
  4  8  1  0  0  0  0
  5  6  1  0  0  0  0
  5 10  2  0  0  0  0
  5 11  1  0  0  0  0
  6  9  2  0  0  0  0
  6 17  1  0  0  0  0
  7  8  2  0  0  0  0
  7 24  1  0  0  0  0
  8 25  1  0  0  0  0
  9 18  1  0  0  0  0
  9 26  1  0  0  0  0
 10 21  1  0  0  0  0
 10 24  1  0  0  0  0
 11 22  2  0  0  0  0
 11 26  1  0  0  0  0
 12 20  1  0  0  0  0
 12 21  2  0  0  0  0
 12 22  1  0  0  0  0
 13 14  1  0  0  0  0
 13 15  1  0  0  0  0
 14 16  1  0  0  0  0
 15 23  1  0  0  0  0
 16 23  1  0  0  0  0
 19 25  1  0  0  0  0
 20 23  1  0  0  0  0
  1 27  1  0  0  0  0
  2 28  1  0  0  0  0
  3 29  1  0  0  0  0
  4 30  1  0  0  0  0
 13 31  1  0  0  0  0
 13 32  1  0  0  0  0
 14 33  1  0  0  0  0
 14 34  1  0  0  0  0
 15 35  1  0  0  0  0
 15 36  1  0  0  0  0
 16 37  1  0  0  0  0
 16 38  1  0  0  0  0
 17 39  1  0  0  0  0
 17 40  1  0  0  0  0
 17 41  1  0  0  0  0
 18 42  1  0  0  0  0
 18 43  1  0  0  0  0
 18 44  1  0  0  0  0
 19 45  1  0  0  0  0
 19 46  1  0  0  0  0
 19 47  1  0  0  0  0
 20 48  1  0  0  0  0
 20 49  1  0  0  0  0
M  END
> <idnumber>
Z31211731

> <heavy_atoms>
26

> <LogS>
-4.938

> <LogP>
3.969

> <rotating_bonds>
5

> <PSA>
47.48

> <hb_acceptors>
4

> <hb_donors>
0

> <Collection>
Legacy

> <link>
https://www.enaminestore.com/catalog/Z31211731

> <ROCS_ShapeQuery>
x0446_0A_x1080_0A_x0929_0A_x0812_0A_x0719_0A_x1140_0A_x0528_0A_x0310_0A

> <ROCS_TanimotoCombo>
0.470 

> <ROCS_ShapeTanimoto>
0.266 

> <ROCS_ColorTanimoto>
0.204 

> <ROCS_RefTversky>
0.241 

> <ROCS_RefColorTversky>
0.218 

> <ROCS_RefTverskyCombo>
0.460 

> <ROCS_FitTversky>
1.635 

> <ROCS_FitColorTversky>
0.749 

> <ROCS_FitTverskyCombo>
2.384 

> <ROCS_ColorScore>
-7.819

> <ROCS_Overlap>
2850.122

> <ROCS_Rank>
93                  

$$$$
untitled-dbase-192029_9
  -OEChem-02092406493D

 45 49  0     1  0  0  0  0  0999 V2000
    3.8685   15.0494   24.5439 C   0  0  0  0  0  0  0  0  0  0  0  0
    3.8523   13.6834   24.8252 C   0  0  0  0  0  0  0  0  0  0  0  0
    5.0309   15.6477   24.0574 C   0  0  0  0  0  0  0  0  0  0  0  0
    4.9986   12.9155   24.6203 C   0  0  0  0  0  0  0  0  0  0  0  0
    6.1772   14.8798   23.8525 C   0  0  0  0  0  0  0  0  0  0  0  0
   12.4173   13.6630   22.7821 C   0  0  0  0  0  0  0  0  0  0  0  0
   12.9546   14.9322   22.9831 C   0  0  0  0  0  0  0  0  0  0  0  0
    6.1611   13.5137   24.1339 C   0  0  0  0  0  0  0  0  0  0  0  0
   11.1283   13.5472   22.2591 C   0  0  0  0  0  0  0  0  0  0  0  0
   10.4540   14.7373   21.9685 C   0  0  0  0  0  0  0  0  0  0  0  0
   11.1062   15.9327   22.2177 C   0  0  0  0  0  0  0  0  0  0  0  0
    7.3945   11.6494   23.0618 C   0  0  0  0  0  0  0  0  0  0  0  0
    7.3791   12.6985   23.9161 C   0  0  0  0  0  0  0  0  0  0  0  0
   10.5105   12.2357   22.0254 C   0  0  0  0  0  0  0  0  0  0  0  0
    8.6512   13.0735   24.6766 C   0  0  0  0  0  0  0  0  0  0  0  0
    8.7914    9.8391   24.0454 C   0  0  0  0  0  0  0  0  0  0  0  0
    9.4479   10.6896   25.1530 C   0  0  0  0  0  0  0  0  0  0  0  0
    8.6409   10.8047   22.8703 C   0  0  2  0  0  0  0  0  0  0  0  0
    9.7839   12.0353   24.4821 C   0  0  1  0  0  0  0  0  0  0  0  0
   10.3543   18.3142   21.8785 C   0  0  0  0  0  0  0  0  0  0  0  0
   12.3392   16.1111   22.7166 N   0  0  0  0  0  0  0  0  0  0  0  0
    9.2120   15.0011   21.4592 N   0  0  0  0  0  0  0  0  0  0  0  0
    9.0710   16.3227   21.3833 N   0  0  0  0  0  0  0  0  0  0  0  0
   10.2070   16.8814   21.8387 N   0  0  0  0  0  0  0  0  0  0  0  0
    9.7814   11.6868   23.0631 N   0  0  0  0  0  0  0  0  0  0  0  0
   10.6805   11.7207   20.9228 O   0  0  0  0  0  0  0  0  0  0  0  0
    2.9756   15.6471   24.7022 H   0  0  0  0  0  0  0  0  0  0  0  0
    2.9469   13.2171   25.2029 H   0  0  0  0  0  0  0  0  0  0  0  0
    5.0433   16.7111   23.8372 H   0  0  0  0  0  0  0  0  0  0  0  0
    4.9706   11.8517   24.8443 H   0  0  0  0  0  0  0  0  0  0  0  0
    7.0756   15.3607   23.4728 H   0  0  0  0  0  0  0  0  0  0  0  0
   13.0004   12.7816   23.0314 H   0  0  0  0  0  0  0  0  0  0  0  0
   13.9576   15.0337   23.3896 H   0  0  0  0  0  0  0  0  0  0  0  0
    6.5017   11.3613   22.5138 H   0  0  0  0  0  0  0  0  0  0  0  0
    8.9932   14.0528   24.3182 H   0  0  0  0  0  0  0  0  0  0  0  0
    8.4282   13.1748   25.7457 H   0  0  0  0  0  0  0  0  0  0  0  0
    9.4616    9.0145   23.7750 H   0  0  0  0  0  0  0  0  0  0  0  0
    7.8428    9.4050   24.3791 H   0  0  0  0  0  0  0  0  0  0  0  0
    8.7864   10.8034   26.0182 H   0  0  0  0  0  0  0  0  0  0  0  0
   10.3632   10.1923   25.4944 H   0  0  0  0  0  0  0  0  0  0  0  0
    8.6535   10.3252   21.8879 H   0  0  0  0  0  0  0  0  0  0  0  0
   10.7423   12.4369   24.8227 H   0  0  0  0  0  0  0  0  0  0  0  0
   10.7804   18.6361   20.9246 H   0  0  0  0  0  0  0  0  0  0  0  0
    9.3758   18.7766   22.0355 H   0  0  0  0  0  0  0  0  0  0  0  0
   11.0160   18.5867   22.7054 H   0  0  0  0  0  0  0  0  0  0  0  0
  1  2  1  0  0  0  0
  1  3  2  0  0  0  0
  2  4  2  0  0  0  0
  3  5  1  0  0  0  0
  4  8  1  0  0  0  0
  5  8  2  0  0  0  0
  6  7  1  0  0  0  0
  6  9  2  0  0  0  0
  7 21  2  0  0  0  0
  8 13  1  0  0  0  0
  9 10  1  0  0  0  0
  9 14  1  0  0  0  0
 10 11  2  0  0  0  0
 10 22  1  0  0  0  0
 11 21  1  0  0  0  0
 11 24  1  0  0  0  0
 12 13  2  0  0  0  0
 12 18  1  0  0  0  0
 13 15  1  0  0  0  0
 14 25  1  0  0  0  0
 14 26  2  0  0  0  0
 15 19  1  0  0  0  0
 16 17  1  0  0  0  0
 16 18  1  0  0  0  0
 17 19  1  0  0  0  0
 18 25  1  0  0  0  0
 19 25  1  0  0  0  0
 20 24  1  0  0  0  0
 22 23  2  0  0  0  0
 23 24  1  0  0  0  0
  1 27  1  0  0  0  0
  2 28  1  0  0  0  0
  3 29  1  0  0  0  0
  4 30  1  0  0  0  0
  5 31  1  0  0  0  0
  6 32  1  0  0  0  0
  7 33  1  0  0  0  0
 12 34  1  0  0  0  0
 15 35  1  0  0  0  0
 15 36  1  0  0  0  0
 16 37  1  0  0  0  0
 16 38  1  0  0  0  0
 17 39  1  0  0  0  0
 17 40  1  0  0  0  0
 18 41  1  0  0  0  0
 19 42  1  0  0  0  0
 20 43  1  0  0  0  0
 20 44  1  0  0  0  0
 20 45  1  0  0  0  0
M  END
> <idnumber>
Z2011669257

> <heavy_atoms>
26

> <LogS>
-3.84

> <LogP>
1.715

> <rotating_bonds>
2

> <PSA>
63.91

> <hb_acceptors>
4

> <hb_donors>
0

> <Collection>
Advanced

> <link>
https://www.enaminestore.com/catalog/Z2011669257

> <ROCS_ShapeQuery>
x0446_0A_x1080_0A_x0929_0A_x0812_0A_x0719_0A_x1140_0A_x0528_0A_x0310_0A

> <ROCS_TanimotoCombo>
0.469 

> <ROCS_ShapeTanimoto>
0.252 

> <ROCS_ColorTanimoto>
0.218 

> <ROCS_RefTversky>
0.232 

> <ROCS_RefColorTversky>
0.250 

> <ROCS_RefTverskyCombo>
0.482 

> <ROCS_FitTversky>
1.530 

> <ROCS_FitColorTversky>
0.626 

> <ROCS_FitTverskyCombo>
2.156 

> <ROCS_ColorScore>
-8.999

> <ROCS_Overlap>
2737.882

> <ROCS_Rank>
94                  

$$$$
untitled-dbase-328226_98
  -OEChem-02092406493D

 57 61  0     0  0  0  0  0  0999 V2000
   13.0493   14.5172   22.0351 C   0  0  0  0  0  0  0  0  0  0  0  0
   12.5606   15.1455   20.8868 C   0  0  0  0  0  0  0  0  0  0  0  0
   12.1800   14.1568   23.0774 C   0  0  0  0  0  0  0  0  0  0  0  0
    8.0293   12.6072   24.1968 C   0  0  0  0  0  0  0  0  0  0  0  0
   11.2046   15.4089   20.8114 C   0  0  0  0  0  0  0  0  0  0  0  0
    6.9577   13.4886   24.5445 C   0  0  0  0  0  0  0  0  0  0  0  0
   10.3537   15.0518   21.8433 C   0  0  0  0  0  0  0  0  0  0  0  0
   10.8127   14.4220   22.9844 C   0  0  0  0  0  0  0  0  0  0  0  0
    5.7606   12.8255   24.7066 C   0  0  0  0  0  0  0  0  0  0  0  0
    9.3879   12.8149   23.9381 C   0  0  0  0  0  0  0  0  0  0  0  0
    7.5823   11.2950   24.1111 C   0  0  0  0  0  0  0  0  0  0  0  0
    9.6177   10.5525   23.5795 C   0  0  0  0  0  0  0  0  0  0  0  0
   10.4275   16.0142   19.7064 C   0  0  0  0  0  0  0  0  0  0  0  0
   12.7817    8.8761   22.5599 C   0  0  0  0  0  0  0  0  0  0  0  0
   12.3723    9.8147   24.7394 C   0  0  0  0  0  0  0  0  0  0  0  0
   14.2478    9.2781   22.6935 C   0  0  0  0  0  0  0  0  0  0  0  0
   13.8478   10.1955   24.8211 C   0  0  0  0  0  0  0  0  0  0  0  0
    9.0560   16.1817   20.4014 C   0  0  0  0  0  0  0  0  0  0  0  0
    7.1071   14.9564   24.7144 C   0  0  0  0  0  0  0  0  0  0  0  0
    4.4338   13.3766   25.0633 C   0  0  0  0  0  0  0  0  0  0  0  0
    8.8049   17.6383   20.8118 C   0  0  0  0  0  0  0  0  0  0  0  0
    7.9185   15.6898   19.5050 C   0  0  0  0  0  0  0  0  0  0  0  0
   10.5301    9.4235   23.2316 C   0  0  0  0  0  0  0  0  0  0  0  0
   10.1876   11.7725   23.6264 N   0  0  0  0  0  0  0  0  0  0  0  0
    8.3342   10.2197   23.8048 N   0  0  0  0  0  0  0  0  0  0  0  0
   11.9392    9.7972   23.3353 N   0  0  0  0  0  0  0  0  0  0  0  0
    9.0420   15.3727   21.6132 O   0  0  0  0  0  0  0  0  0  0  0  0
   14.6405    9.2782   24.0666 O   0  0  0  0  0  0  0  0  0  0  0  0
    9.9701   14.0728   23.9882 O   0  0  0  0  0  0  0  0  0  0  0  0
    5.9174   11.1429   24.4415 S   0  0  0  0  0  0  0  0  0  0  0  0
   14.1108   14.3008   22.1216 H   0  0  0  0  0  0  0  0  0  0  0  0
   13.2309   15.4139   20.0774 H   0  0  0  0  0  0  0  0  0  0  0  0
   12.5818   13.6660   23.9602 H   0  0  0  0  0  0  0  0  0  0  0  0
   10.8482   16.9655   19.3669 H   0  0  0  0  0  0  0  0  0  0  0  0
   10.3815   15.3169   18.8629 H   0  0  0  0  0  0  0  0  0  0  0  0
   12.5005    8.9064   21.5034 H   0  0  0  0  0  0  0  0  0  0  0  0
   12.6522    7.8507   22.9230 H   0  0  0  0  0  0  0  0  0  0  0  0
   12.2262    8.8277   25.1918 H   0  0  0  0  0  0  0  0  0  0  0  0
   11.7871   10.5445   25.3060 H   0  0  0  0  0  0  0  0  0  0  0  0
   14.8806    8.5571   22.1659 H   0  0  0  0  0  0  0  0  0  0  0  0
   14.4369   10.2668   22.2584 H   0  0  0  0  0  0  0  0  0  0  0  0
   14.0240   11.2157   24.4585 H   0  0  0  0  0  0  0  0  0  0  0  0
   14.1874   10.1511   25.8608 H   0  0  0  0  0  0  0  0  0  0  0  0
    6.9352   15.4769   23.7618 H   0  0  0  0  0  0  0  0  0  0  0  0
    6.3963   15.3525   25.4546 H   0  0  0  0  0  0  0  0  0  0  0  0
    8.1124   15.2219   25.0737 H   0  0  0  0  0  0  0  0  0  0  0  0
    3.8705   13.6600   24.1610 H   0  0  0  0  0  0  0  0  0  0  0  0
    3.8268   12.6504   25.6273 H   0  0  0  0  0  0  0  0  0  0  0  0
    4.5199   14.2694   25.7033 H   0  0  0  0  0  0  0  0  0  0  0  0
    7.8350   17.7166   21.2953 H   0  0  0  0  0  0  0  0  0  0  0  0
    8.8214   18.2715   19.9291 H   0  0  0  0  0  0  0  0  0  0  0  0
    9.5804   17.9591   21.5020 H   0  0  0  0  0  0  0  0  0  0  0  0
    6.9665   15.8184   20.0161 H   0  0  0  0  0  0  0  0  0  0  0  0
    8.0620   14.6361   19.2749 H   0  0  0  0  0  0  0  0  0  0  0  0
    7.9079   16.2607   18.5788 H   0  0  0  0  0  0  0  0  0  0  0  0
   10.3660    8.5641   23.8960 H   0  0  0  0  0  0  0  0  0  0  0  0
   10.3589    9.0700   22.2060 H   0  0  0  0  0  0  0  0  0  0  0  0
  1  2  1  0  0  0  0
  1  3  2  0  0  0  0
  2  5  2  0  0  0  0
  3  8  1  0  0  0  0
  4  6  1  0  0  0  0
  4 10  1  0  0  0  0
  4 11  2  0  0  0  0
  5  7  1  0  0  0  0
  5 13  1  0  0  0  0
  6  9  2  0  0  0  0
  6 19  1  0  0  0  0
  7  8  2  0  0  0  0
  7 27  1  0  0  0  0
  8 29  1  0  0  0  0
  9 20  1  0  0  0  0
  9 30  1  0  0  0  0
 10 24  2  0  0  0  0
 10 29  1  0  0  0  0
 11 25  1  0  0  0  0
 11 30  1  0  0  0  0
 12 23  1  0  0  0  0
 12 24  1  0  0  0  0
 12 25  2  0  0  0  0
 13 18  1  0  0  0  0
 14 16  1  0  0  0  0
 14 26  1  0  0  0  0
 15 17  1  0  0  0  0
 15 26  1  0  0  0  0
 16 28  1  0  0  0  0
 17 28  1  0  0  0  0
 18 21  1  0  0  0  0
 18 22  1  0  0  0  0
 18 27  1  0  0  0  0
 23 26  1  0  0  0  0
  1 31  1  0  0  0  0
  2 32  1  0  0  0  0
  3 33  1  0  0  0  0
 13 34  1  0  0  0  0
 13 35  1  0  0  0  0
 14 36  1  0  0  0  0
 14 37  1  0  0  0  0
 15 38  1  0  0  0  0
 15 39  1  0  0  0  0
 16 40  1  0  0  0  0
 16 41  1  0  0  0  0
 17 42  1  0  0  0  0
 17 43  1  0  0  0  0
 19 44  1  0  0  0  0
 19 45  1  0  0  0  0
 19 46  1  0  0  0  0
 20 47  1  0  0  0  0
 20 48  1  0  0  0  0
 20 49  1  0  0  0  0
 21 50  1  0  0  0  0
 21 51  1  0  0  0  0
 21 52  1  0  0  0  0
 22 53  1  0  0  0  0
 22 54  1  0  0  0  0
 22 55  1  0  0  0  0
 23 56  1  0  0  0  0
 23 57  1  0  0  0  0
M  END
> <idnumber>
Z31264416

> <heavy_atoms>
30

> <LogS>
-5.46

> <LogP>
4.771

> <rotating_bonds>
4

> <PSA>
56.71

> <hb_acceptors>
5

> <hb_donors>
0

> <Collection>
Legacy

> <link>
https://www.enaminestore.com/catalog/Z31264416

> <ROCS_ShapeQuery>
x0446_0A_x1080_0A_x0929_0A_x0812_0A_x0719_0A_x1140_0A_x0528_0A_x0310_0A

> <ROCS_TanimotoCombo>
0.469 

> <ROCS_ShapeTanimoto>
0.269 

> <ROCS_ColorTanimoto>
0.201 

> <ROCS_RefTversky>
0.246 

> <ROCS_RefColorTversky>
0.229 

> <ROCS_RefTverskyCombo>
0.475 

> <ROCS_FitTversky>
1.510 

> <ROCS_FitColorTversky>
0.618 

> <ROCS_FitTverskyCombo>
2.128 

> <ROCS_ColorScore>
-8.228

> <ROCS_Overlap>
2914.282

> <ROCS_Rank>
95                  

$$$$
untitled-dbase-1088322_44
  -OEChem-02092406493D

 42 45  0     1  0  0  0  0  0999 V2000
   11.0630   17.0717   22.4477 C   0  0  0  0  0  0  0  0  0  0  0  0
    9.9337   16.6229   21.7990 C   0  0  0  0  0  0  0  0  0  0  0  0
   11.9392   14.9604   22.3834 C   0  0  0  0  0  0  0  0  0  0  0  0
   10.8096   14.5113   21.7354 C   0  0  0  0  0  0  0  0  0  0  0  0
    9.1563   12.0055   22.4285 C   0  0  0  0  0  0  0  0  0  0  0  0
    6.6378   12.8515   24.9176 C   0  0  0  0  0  0  0  0  0  0  0  0
    7.8421   11.2729   22.5552 C   0  0  0  0  0  0  0  0  0  0  0  0
   14.2265   14.5543   23.5136 C   0  0  0  0  0  0  0  0  0  0  0  0
   14.4025   14.2497   22.0588 C   0  0  0  0  0  0  0  0  0  0  0  0
   10.2611   10.5965   24.0893 C   0  0  0  0  0  0  0  0  0  0  0  0
    8.9337    9.8422   24.2907 C   0  0  0  0  0  0  0  0  0  0  0  0
    9.1430   12.7597   24.7475 C   0  0  0  0  0  0  0  0  0  0  0  0
   13.0634   14.0343   22.7119 C   0  0  0  0  0  0  0  0  0  0  0  0
   10.0006   12.0551   23.6849 C   0  0  2  0  0  0  0  0  0  0  0  0
    7.8464   11.9652   25.0015 C   0  0  2  0  0  0  0  0  0  0  0  0
    7.7394   10.7791   24.0139 C   0  0  1  0  0  0  0  0  0  0  0  0
   12.0860   16.2486   22.7515 N   0  0  0  0  0  0  0  0  0  0  0  0
    9.7868   15.3346   21.4312 N   0  0  0  0  0  0  0  0  0  0  0  0
    9.5154   12.5462   21.3126 N   0  0  0  0  0  0  0  0  0  0  0  0
   10.7135   13.1575   21.3772 N   0  0  0  0  0  0  0  0  0  0  0  0
    6.6588   14.0432   24.6475 O   0  0  0  0  0  0  0  0  0  0  0  0
    5.5098   12.1496   25.1862 O   0  0  0  0  0  0  0  0  0  0  0  0
   11.1799   18.1066   22.7444 H   0  0  0  0  0  0  0  0  0  0  0  0
    9.1122   17.2849   21.5548 H   0  0  0  0  0  0  0  0  0  0  0  0
    7.0238   11.9528   22.2988 H   0  0  0  0  0  0  0  0  0  0  0  0
    7.8308   10.4337   21.8517 H   0  0  0  0  0  0  0  0  0  0  0  0
   14.6794   13.8779   24.2289 H   0  0  0  0  0  0  0  0  0  0  0  0
   14.2400   15.5948   23.8150 H   0  0  0  0  0  0  0  0  0  0  0  0
   14.5323   15.0859   21.3819 H   0  0  0  0  0  0  0  0  0  0  0  0
   14.9749   13.3690   21.7927 H   0  0  0  0  0  0  0  0  0  0  0  0
   10.8511   10.5601   25.0127 H   0  0  0  0  0  0  0  0  0  0  0  0
   10.8506   10.0899   23.3153 H   0  0  0  0  0  0  0  0  0  0  0  0
    8.8962    8.9732   23.6226 H   0  0  0  0  0  0  0  0  0  0  0  0
    8.8812    9.4515   25.3140 H   0  0  0  0  0  0  0  0  0  0  0  0
    9.7101   12.8364   25.6834 H   0  0  0  0  0  0  0  0  0  0  0  0
    8.9264   13.7862   24.4261 H   0  0  0  0  0  0  0  0  0  0  0  0
   12.7735   13.0078   22.8910 H   0  0  0  0  0  0  0  0  0  0  0  0
   10.9376   12.5924   23.5124 H   0  0  0  0  0  0  0  0  0  0  0  0
    7.8585   11.5809   26.0297 H   0  0  0  0  0  0  0  0  0  0  0  0
    6.7972   10.2376   24.1547 H   0  0  0  0  0  0  0  0  0  0  0  0
   11.5690   12.6551   21.1674 H   0  0  0  0  0  0  0  0  0  0  0  0
    4.7078   12.7125   25.1383 H   0  0  0  0  0  0  0  0  0  0  0  0
  1  2  1  0  0  0  0
  1 17  2  0  0  0  0
  2 18  2  0  0  0  0
  3  4  2  0  0  0  0
  3 13  1  0  0  0  0
  3 17  1  0  0  0  0
  4 18  1  0  0  0  0
  4 20  1  0  0  0  0
  5  7  1  0  0  0  0
  5 14  1  0  0  0  0
  5 19  2  0  0  0  0
  6 15  1  6  0  0  0
  6 21  2  0  0  0  0
  6 22  1  0  0  0  0
  7 16  1  0  0  0  0
  8  9  1  0  0  0  0
  8 13  1  0  0  0  0
  9 13  1  0  0  0  0
 10 11  1  0  0  0  0
 10 14  1  0  0  0  0
 11 16  1  1  0  0  0
 12 14  1  6  0  0  0
 12 15  1  0  0  0  0
 15 16  1  0  0  0  0
 19 20  1  4  0  0  0
  1 23  1  0  0  0  0
  2 24  1  0  0  0  0
  7 25  1  0  0  0  0
  7 26  1  0  0  0  0
  8 27  1  0  0  0  0
  8 28  1  0  0  0  0
  9 29  1  0  0  0  0
  9 30  1  0  0  0  0
 10 31  1  0  0  0  0
 10 32  1  0  0  0  0
 11 33  1  0  0  0  0
 11 34  1  0  0  0  0
 12 35  1  0  0  0  0
 12 36  1  0  0  0  0
 13 37  1  0  0  0  0
 14 38  1  0  0  0  0
 15 39  1  0  0  0  0
 16 40  1  0  0  0  0
 20 41  1  0  0  0  0
 22 42  1  0  0  0  0
M  END
> <idnumber>
Z5084608295

> <heavy_atoms>
29

> <LogS>
-2.833

> <LogP>
1.911

> <rotating_bonds>
5

> <PSA>
87.47

> <hb_acceptors>
6

> <hb_donors>
2

> <SaltType>
OC(=O)C(F)(F)F

> <Collection>
Advanced

> <link>
https://www.enaminestore.com/catalog/Z5084608295

> <ROCS_ShapeQuery>
x0446_0A_x1080_0A_x0929_0A_x0812_0A_x0719_0A_x1140_0A_x0528_0A_x0310_0A

> <ROCS_TanimotoCombo>
0.469 

> <ROCS_ShapeTanimoto>
0.244 

> <ROCS_ColorTanimoto>
0.225 

> <ROCS_RefTversky>
0.223 

> <ROCS_RefColorTversky>
0.261 

> <ROCS_RefTverskyCombo>
0.483 

> <ROCS_FitTversky>
1.672 

> <ROCS_FitColorTversky>
0.618 

> <ROCS_FitTverskyCombo>
2.290 

> <ROCS_ColorScore>
-9.391

> <ROCS_Overlap>
2629.673

> <ROCS_Rank>
96                  

$$$$
untitled-dbase-217204_114
  -OEChem-02092406493D

 46 49  0     1  0  0  0  0  0999 V2000
   12.4983   16.0519   22.1904 C   0  0  0  0  0  0  0  0  0  0  0  0
   11.3941   15.7228   21.4044 C   0  0  0  0  0  0  0  0  0  0  0  0
   12.8188   15.2744   23.3034 C   0  0  0  0  0  0  0  0  0  0  0  0
   10.6102   14.6163   21.7313 C   0  0  0  0  0  0  0  0  0  0  0  0
   12.0350   14.1680   23.6303 C   0  0  0  0  0  0  0  0  0  0  0  0
   10.9306   13.8389   22.8443 C   0  0  0  0  0  0  0  0  0  0  0  0
    6.3200   12.3315   24.1742 C   0  0  0  0  0  0  0  0  0  0  0  0
    4.2655   14.5444   22.2200 C   0  0  0  0  0  0  0  0  0  0  0  0
    9.7161    9.7025   23.7685 C   0  0  0  0  0  0  0  0  0  0  0  0
   10.0088   11.5350   22.0854 C   0  0  0  0  0  0  0  0  0  0  0  0
   10.6256   11.9287   24.4844 C   0  0  0  0  0  0  0  0  0  0  0  0
    7.7065   10.8283   22.7776 C   0  0  0  0  0  0  0  0  0  0  0  0
    8.3181   11.2313   25.1783 C   0  0  0  0  0  0  0  0  0  0  0  0
    8.6016   13.0666   23.4857 C   0  0  0  0  0  0  0  0  0  0  0  0
    9.1345   10.3387   22.4984 C   0  0  2  0  0  0  0  0  0  0  0  0
    9.7471   10.7366   24.9023 C   0  0  1  0  0  0  0  0  0  0  0  0
   10.0672   12.6196   23.2053 C   0  0  0  0  0  0  0  0  0  0  0  0
    7.7250   11.8701   23.9082 C   0  0  0  0  0  0  0  0  0  0  0  0
    4.4604   13.3756   23.1567 C   0  0  0  0  0  0  0  0  0  0  0  0
    5.4268   15.2598   22.0249 N   0  0  0  0  0  0  0  0  0  0  0  0
    5.7515   12.2107   25.2509 O   0  0  0  0  0  0  0  0  0  0  0  0
    3.1916   14.8230   21.6945 O   0  0  0  0  0  0  0  0  0  0  0  0
    5.8022   12.8909   23.0438 O   0  0  0  0  0  0  0  0  0  0  0  0
   13.1094   16.9127   21.9349 H   0  0  0  0  0  0  0  0  0  0  0  0
   11.1450   16.3273   20.5372 H   0  0  0  0  0  0  0  0  0  0  0  0
   13.6791   15.5297   23.9149 H   0  0  0  0  0  0  0  0  0  0  0  0
    9.7515   14.3675   21.1133 H   0  0  0  0  0  0  0  0  0  0  0  0
   12.2922   13.5681   24.4993 H   0  0  0  0  0  0  0  0  0  0  0  0
    9.1110    8.8374   24.0658 H   0  0  0  0  0  0  0  0  0  0  0  0
   10.7291    9.3303   23.5721 H   0  0  0  0  0  0  0  0  0  0  0  0
   11.0232   11.1850   21.8502 H   0  0  0  0  0  0  0  0  0  0  0  0
    9.6161   11.9747   21.1585 H   0  0  0  0  0  0  0  0  0  0  0  0
   10.6780   12.6534   25.3081 H   0  0  0  0  0  0  0  0  0  0  0  0
   11.6548   11.5867   24.3104 H   0  0  0  0  0  0  0  0  0  0  0  0
    7.2730   11.2596   21.8656 H   0  0  0  0  0  0  0  0  0  0  0  0
    7.0656    9.9789   23.0489 H   0  0  0  0  0  0  0  0  0  0  0  0
    7.6935   10.3926   25.5132 H   0  0  0  0  0  0  0  0  0  0  0  0
    8.3246   11.9560   26.0031 H   0  0  0  0  0  0  0  0  0  0  0  0
    8.5891   13.8362   24.2708 H   0  0  0  0  0  0  0  0  0  0  0  0
    8.1794   13.5497   22.5929 H   0  0  0  0  0  0  0  0  0  0  0  0
    9.1183    9.5987   21.6903 H   0  0  0  0  0  0  0  0  0  0  0  0
   10.1589   10.2775   25.8082 H   0  0  0  0  0  0  0  0  0  0  0  0
    3.7643   12.5742   22.8908 H   0  0  0  0  0  0  0  0  0  0  0  0
    4.2797   13.6991   24.1863 H   0  0  0  0  0  0  0  0  0  0  0  0
    6.2903   14.9884   22.4833 H   0  0  0  0  0  0  0  0  0  0  0  0
    5.4668   16.0757   21.4222 H   0  0  0  0  0  0  0  0  0  0  0  0
  1  2  1  0  0  0  0
  1  3  2  0  0  0  0
  2  4  2  0  0  0  0
  3  5  1  0  0  0  0
  4  6  1  0  0  0  0
  5  6  2  0  0  0  0
  6 17  1  0  0  0  0
  7 18  1  0  0  0  0
  7 21  2  0  0  0  0
  7 23  1  0  0  0  0
  8 19  1  0  0  0  0
  8 20  1  0  0  0  0
  8 22  2  0  0  0  0
  9 15  1  0  0  0  0
  9 16  1  0  0  0  0
 10 15  1  0  0  0  0
 10 17  1  0  0  0  0
 11 16  1  0  0  0  0
 11 17  1  0  0  0  0
 12 15  1  0  0  0  0
 12 18  1  0  0  0  0
 13 16  1  0  0  0  0
 13 18  1  0  0  0  0
 14 17  1  0  0  0  0
 14 18  1  0  0  0  0
 19 23  1  0  0  0  0
  1 24  1  0  0  0  0
  2 25  1  0  0  0  0
  3 26  1  0  0  0  0
  4 27  1  0  0  0  0
  5 28  1  0  0  0  0
  9 29  1  0  0  0  0
  9 30  1  0  0  0  0
 10 31  1  0  0  0  0
 10 32  1  0  0  0  0
 11 33  1  0  0  0  0
 11 34  1  0  0  0  0
 12 35  1  0  0  0  0
 12 36  1  0  0  0  0
 13 37  1  0  0  0  0
 13 38  1  0  0  0  0
 14 39  1  0  0  0  0
 14 40  1  0  0  0  0
 15 41  1  0  0  0  0
 16 42  1  0  0  0  0
 19 43  1  0  0  0  0
 19 44  1  0  0  0  0
 20 45  1  0  0  0  0
 20 46  1  0  0  0  0
M  END
> <idnumber>
Z19595013

> <heavy_atoms>
23

> <LogS>
-4.37

> <LogP>
3.013

> <rotating_bonds>
5

> <PSA>
69.39

> <hb_acceptors>
2

> <hb_donors>
1

> <Collection>
HTS

> <link>
https://www.enaminestore.com/catalog/Z19595013

> <ROCS_ShapeQuery>
x0446_0A_x1080_0A_x0929_0A_x0812_0A_x0719_0A_x1140_0A_x0528_0A_x0310_0A

> <ROCS_TanimotoCombo>
0.469 

> <ROCS_ShapeTanimoto>
0.261 

> <ROCS_ColorTanimoto>
0.208 

> <ROCS_RefTversky>
0.235 

> <ROCS_RefColorTversky>
0.229 

> <ROCS_RefTverskyCombo>
0.464 

> <ROCS_FitTversky>
1.722 

> <ROCS_FitColorTversky>
0.695 

> <ROCS_FitTverskyCombo>
2.417 

> <ROCS_ColorScore>
-8.198

> <ROCS_Overlap>
2780.147

> <ROCS_Rank>
97                  

$$$$
untitled-dbase-1098267_33
  -OEChem-02092406493D

 42 46  0     1  0  0  0  0  0999 V2000
    4.1293   12.8999   23.7574 C   0  0  0  0  0  0  0  0  0  0  0  0
    3.8438   14.0487   23.0608 C   0  0  0  0  0  0  0  0  0  0  0  0
   12.6642   15.0579   23.9171 C   0  0  0  0  0  0  0  0  0  0  0  0
   10.4513   15.0085   22.4541 C   0  0  0  0  0  0  0  0  0  0  0  0
    5.4869   13.0285   24.1070 C   0  0  0  0  0  0  0  0  0  0  0  0
   11.4259   15.9820   22.3401 C   0  0  0  0  0  0  0  0  0  0  0  0
   10.6635   14.0084   23.3946 C   0  0  0  0  0  0  0  0  0  0  0  0
    6.3082   12.0757   24.8650 C   0  0  0  0  0  0  0  0  0  0  0  0
    9.1585   10.0117   24.0749 C   0  0  0  0  0  0  0  0  0  0  0  0
    8.5939   10.2820   22.6724 C   0  0  0  0  0  0  0  0  0  0  0  0
    9.5881   12.3601   24.9167 C   0  0  0  0  0  0  0  0  0  0  0  0
    8.6428   12.8107   22.5752 C   0  0  0  0  0  0  0  0  0  0  0  0
    8.6245   11.1623   24.9344 C   0  0  1  0  0  0  0  0  0  0  0  0
    7.7723   11.5676   22.8263 C   0  0  2  0  0  0  0  0  0  0  0  0
   11.5656   17.9961   20.8312 C   0  0  0  0  0  0  0  0  0  0  0  0
   12.5664   16.0793   23.0368 N   0  0  0  0  0  0  0  0  0  0  0  0
   11.7962   14.0395   24.1388 N   0  0  0  0  0  0  0  0  0  0  0  0
    9.4465   15.2692   21.5656 N   0  0  0  0  0  0  0  0  0  0  0  0
    6.0265   14.1689   23.6685 N   0  0  0  0  0  0  0  0  0  0  0  0
    9.7660   16.3775   20.8996 N   0  0  0  0  0  0  0  0  0  0  0  0
    5.0027   14.7674   23.0362 N   0  0  0  0  0  0  0  0  0  0  0  0
   10.9546   16.8053   21.3647 N   0  0  0  0  0  0  0  0  0  0  0  0
    9.7226   12.9784   23.5765 N   0  0  0  0  0  0  0  0  0  0  0  0
    7.4242   11.5598   24.2347 N   0  0  0  0  0  0  0  0  0  0  0  0
    5.9487   11.8073   26.0091 O   0  0  0  0  0  0  0  0  0  0  0  0
    3.4489   12.0900   23.9774 H   0  0  0  0  0  0  0  0  0  0  0  0
    2.9408   14.4109   22.5910 H   0  0  0  0  0  0  0  0  0  0  0  0
   13.5589   15.0506   24.5305 H   0  0  0  0  0  0  0  0  0  0  0  0
    8.7747    9.0525   24.4419 H   0  0  0  0  0  0  0  0  0  0  0  0
   10.2517    9.9538   24.0679 H   0  0  0  0  0  0  0  0  0  0  0  0
    9.3887   10.3697   21.9247 H   0  0  0  0  0  0  0  0  0  0  0  0
    7.9456    9.4491   22.3758 H   0  0  0  0  0  0  0  0  0  0  0  0
    9.2151   13.1203   25.6160 H   0  0  0  0  0  0  0  0  0  0  0  0
   10.5772   12.0475   25.2736 H   0  0  0  0  0  0  0  0  0  0  0  0
    9.0829   12.7594   21.5716 H   0  0  0  0  0  0  0  0  0  0  0  0
    8.0003   13.7008   22.6032 H   0  0  0  0  0  0  0  0  0  0  0  0
    8.4169   10.8515   25.9631 H   0  0  0  0  0  0  0  0  0  0  0  0
    6.8963   11.5726   22.1715 H   0  0  0  0  0  0  0  0  0  0  0  0
   12.1962   17.7027   19.9877 H   0  0  0  0  0  0  0  0  0  0  0  0
   10.7863   18.6894   20.5029 H   0  0  0  0  0  0  0  0  0  0  0  0
   12.1656   18.4746   21.6102 H   0  0  0  0  0  0  0  0  0  0  0  0
    5.1652   15.6700   22.6076 H   0  0  0  0  0  0  0  0  0  0  0  0
  1  2  2  0  0  0  0
  1  5  1  0  0  0  0
  2 21  1  0  0  0  0
  3 16  2  0  0  0  0
  3 17  1  0  0  0  0
  4  6  2  0  0  0  0
  4  7  1  0  0  0  0
  4 18  1  0  0  0  0
  5  8  1  0  0  0  0
  5 19  2  0  0  0  0
  6 16  1  0  0  0  0
  6 22  1  0  0  0  0
  7 17  2  0  0  0  0
  7 23  1  0  0  0  0
  8 24  1  0  0  0  0
  8 25  2  0  0  0  0
  9 10  1  0  0  0  0
  9 13  1  0  0  0  0
 10 14  1  0  0  0  0
 11 13  1  0  0  0  0
 11 23  1  0  0  0  0
 12 14  1  0  0  0  0
 12 23  1  0  0  0  0
 13 24  1  0  0  0  0
 14 24  1  0  0  0  0
 15 22  1  0  0  0  0
 18 20  2  0  0  0  0
 19 21  1  0  0  0  0
 20 22  1  0  0  0  0
  1 26  1  0  0  0  0
  2 27  1  0  0  0  0
  3 28  1  0  0  0  0
  9 29  1  0  0  0  0
  9 30  1  0  0  0  0
 10 31  1  0  0  0  0
 10 32  1  0  0  0  0
 11 33  1  0  0  0  0
 11 34  1  0  0  0  0
 12 35  1  0  0  0  0
 12 36  1  0  0  0  0
 13 37  1  0  0  0  0
 14 38  1  0  0  0  0
 15 39  1  0  0  0  0
 15 40  1  0  0  0  0
 15 41  1  0  0  0  0
 21 42  1  0  0  0  0
M  END
> <idnumber>
Z4670325694

> <heavy_atoms>
25

> <LogS>
-2.887

> <LogP>
-0.334

> <rotating_bonds>
2

> <PSA>
108.72

> <hb_acceptors>
7

> <hb_donors>
1

> <Collection>
Advanced

> <link>
https://www.enaminestore.com/catalog/Z4670325694

> <ROCS_ShapeQuery>
x0446_0A_x1080_0A_x0929_0A_x0812_0A_x0719_0A_x1140_0A_x0528_0A_x0310_0A

> <ROCS_TanimotoCombo>
0.469 

> <ROCS_ShapeTanimoto>
0.241 

> <ROCS_ColorTanimoto>
0.227 

> <ROCS_RefTversky>
0.224 

> <ROCS_RefColorTversky>
0.274 

> <ROCS_RefTverskyCombo>
0.497 

> <ROCS_FitTversky>
1.497 

> <ROCS_FitColorTversky>
0.573 

> <ROCS_FitTverskyCombo>
2.071 

> <ROCS_ColorScore>
-9.891

> <ROCS_Overlap>
2643.290

> <ROCS_Rank>
98                  

$$$$
untitled-dbase-1164958_116
  -OEChem-02092406493D

 40 43  0     0  0  0  0  0  0999 V2000
   12.8826   14.2656   22.8936 C   0  0  0  0  0  0  0  0  0  0  0  0
   13.0723   15.6418   22.9939 C   0  0  0  0  0  0  0  0  0  0  0  0
   10.6957   14.7321   22.0749 C   0  0  0  0  0  0  0  0  0  0  0  0
   11.6616   13.7819   22.4209 C   0  0  0  0  0  0  0  0  0  0  0  0
   11.0162   16.0705   22.2244 C   0  0  0  0  0  0  0  0  0  0  0  0
    8.0704   10.5697   22.8185 C   0  0  0  0  0  0  0  0  0  0  0  0
    8.0949   12.5999   23.2819 C   0  0  0  0  0  0  0  0  0  0  0  0
    7.6577   11.3409   24.1412 C   0  0  0  0  0  0  0  0  0  0  0  0
    9.2652   11.5899   22.9653 C   0  0  0  0  0  0  0  0  0  0  0  0
    8.8377   11.1011   25.1301 C   0  0  0  0  0  0  0  0  0  0  0  0
    8.8747    9.6854   25.6974 C   0  0  0  0  0  0  0  0  0  0  0  0
    8.9038   12.1293   26.2551 C   0  0  0  0  0  0  0  0  0  0  0  0
    6.2503   11.2396   24.6573 C   0  0  0  0  0  0  0  0  0  0  0  0
   10.2148   11.8361   21.8323 C   0  0  0  0  0  0  0  0  0  0  0  0
   12.1666   16.5982   22.6708 N   0  0  0  0  0  0  0  0  0  0  0  0
    9.4210   14.6272   21.5896 N   0  0  0  0  0  0  0  0  0  0  0  0
    8.9384   15.8579   21.4319 N   0  0  0  0  0  0  0  0  0  0  0  0
    9.8952   16.7236   21.8132 N   0  0  0  0  0  0  0  0  0  0  0  0
   11.4383   12.4134   22.3079 N   0  0  0  0  0  0  0  0  0  0  0  0
    9.9417   11.2946   24.2237 O   0  0  0  0  0  0  0  0  0  0  0  0
    5.9911   12.3237   25.5425 O   0  0  0  0  0  0  0  0  0  0  0  0
   13.6798   13.5867   23.1813 H   0  0  0  0  0  0  0  0  0  0  0  0
   14.0194   16.0293   23.3610 H   0  0  0  0  0  0  0  0  0  0  0  0
    8.3268    9.5120   22.9085 H   0  0  0  0  0  0  0  0  0  0  0  0
    7.4154   10.6933   21.9477 H   0  0  0  0  0  0  0  0  0  0  0  0
    7.4403   12.8812   22.4482 H   0  0  0  0  0  0  0  0  0  0  0  0
    8.3754   13.5077   23.8201 H   0  0  0  0  0  0  0  0  0  0  0  0
    9.7182    9.5809   26.3788 H   0  0  0  0  0  0  0  0  0  0  0  0
    8.9806    8.9642   24.8879 H   0  0  0  0  0  0  0  0  0  0  0  0
    7.9525    9.4788   26.2392 H   0  0  0  0  0  0  0  0  0  0  0  0
    9.7459   11.9087   26.9100 H   0  0  0  0  0  0  0  0  0  0  0  0
    7.9838   12.1011   26.8377 H   0  0  0  0  0  0  0  0  0  0  0  0
    9.0300   13.1277   25.8380 H   0  0  0  0  0  0  0  0  0  0  0  0
    6.0977   10.3015   25.2073 H   0  0  0  0  0  0  0  0  0  0  0  0
    5.5235   11.2844   23.8353 H   0  0  0  0  0  0  0  0  0  0  0  0
   10.4304   10.8790   21.3405 H   0  0  0  0  0  0  0  0  0  0  0  0
    9.7406   12.5228   21.1196 H   0  0  0  0  0  0  0  0  0  0  0  0
    9.7134   17.7188   21.7624 H   0  0  0  0  0  0  0  0  0  0  0  0
   12.1959   11.7909   22.5834 H   0  0  0  0  0  0  0  0  0  0  0  0
    5.0768   12.2190   25.8499 H   0  0  0  0  0  0  0  0  0  0  0  0
  1  2  2  0  0  0  0
  1  4  1  0  0  0  0
  2 15  1  0  0  0  0
  3  4  2  0  0  0  0
  3  5  1  0  0  0  0
  3 16  1  0  0  0  0
  4 19  1  0  0  0  0
  5 15  2  0  0  0  0
  5 18  1  0  0  0  0
  6  8  1  0  0  0  0
  6  9  1  0  0  0  0
  7  8  1  0  0  0  0
  7  9  1  0  0  0  0
  8 10  1  0  0  0  0
  8 13  1  0  0  0  0
  9 14  1  0  0  0  0
  9 20  1  0  0  0  0
 10 11  1  0  0  0  0
 10 12  1  0  0  0  0
 10 20  1  0  0  0  0
 13 21  1  0  0  0  0
 14 19  1  0  0  0  0
 16 17  2  0  0  0  0
 17 18  1  0  0  0  0
  1 22  1  0  0  0  0
  2 23  1  0  0  0  0
  6 24  1  0  0  0  0
  6 25  1  0  0  0  0
  7 26  1  0  0  0  0
  7 27  1  0  0  0  0
 11 28  1  0  0  0  0
 11 29  1  0  0  0  0
 11 30  1  0  0  0  0
 12 31  1  0  0  0  0
 12 32  1  0  0  0  0
 12 33  1  0  0  0  0
 13 34  1  0  0  0  0
 13 35  1  0  0  0  0
 14 36  1  0  0  0  0
 14 37  1  0  0  0  0
 18 38  1  0  0  0  0
 19 39  1  0  0  0  0
 21 40  1  0  0  0  0
M  END
> <idnumber>
Z8244008393

> <heavy_atoms>
21

> <LogS>
-1.685

> <LogP>
0.974

> <rotating_bonds>
4

> <PSA>
95.95

> <hb_acceptors>
6

> <hb_donors>
3

> <Collection>
Advanced

> <link>
https://www.enaminestore.com/catalog/Z8244008393

> <ROCS_ShapeQuery>
x0446_0A_x1080_0A_x0929_0A_x0812_0A_x0719_0A_x1140_0A_x0528_0A_x0310_0A

> <ROCS_TanimotoCombo>
0.469 

> <ROCS_ShapeTanimoto>
0.233 

> <ROCS_ColorTanimoto>
0.235 

> <ROCS_RefTversky>
0.214 

> <ROCS_RefColorTversky>
0.291 

> <ROCS_RefTverskyCombo>
0.505 

> <ROCS_FitTversky>
1.632 

> <ROCS_FitColorTversky>
0.553 

> <ROCS_FitTverskyCombo>
2.185 

> <ROCS_ColorScore>
-10.541

> <ROCS_Overlap>
2526.845

> <ROCS_Rank>
99                  

$$$$
untitled-dbase-294309_15
  -OEChem-02092406493D

 57 63  0     0  0  0  0  0  0999 V2000
   13.0168   15.7095   21.3979 C   0  0  0  0  0  0  0  0  0  0  0  0
   13.1386   14.4619   22.0141 C   0  0  0  0  0  0  0  0  0  0  0  0
   11.7602   16.2931   21.1925 C   0  0  0  0  0  0  0  0  0  0  0  0
   12.0130   13.7531   22.4469 C   0  0  0  0  0  0  0  0  0  0  0  0
    3.1052   10.7426   19.4992 C   0  0  0  0  0  0  0  0  0  0  0  0
   10.6186   15.5948   21.6209 C   0  0  0  0  0  0  0  0  0  0  0  0
   10.7720   14.3535   22.2319 C   0  0  0  0  0  0  0  0  0  0  0  0
    4.0827   12.5849   19.2415 C   0  0  0  0  0  0  0  0  0  0  0  0
    8.6423   14.9350   22.0880 C   0  0  0  0  0  0  0  0  0  0  0  0
    5.0823   14.8550   18.5680 C   0  0  0  0  0  0  0  0  0  0  0  0
    5.8734   15.9022   18.8264 C   0  0  0  0  0  0  0  0  0  0  0  0
    5.6391   13.8095   20.6527 C   0  0  0  0  0  0  0  0  0  0  0  0
    4.9424   13.7558   19.5034 C   0  0  0  0  0  0  0  0  0  0  0  0
    6.6422   15.9620   20.1022 C   0  0  0  0  0  0  0  0  0  0  0  0
    9.1792   10.8667   25.4911 C   0  0  0  0  0  0  0  0  0  0  0  0
    9.0610    9.7279   23.2614 C   0  0  0  0  0  0  0  0  0  0  0  0
    7.0262   10.8444   24.2083 C   0  0  0  0  0  0  0  0  0  0  0  0
   10.3637   11.8565   23.5137 C   0  0  0  0  0  0  0  0  0  0  0  0
    8.3053   12.9857   24.4706 C   0  0  0  0  0  0  0  0  0  0  0  0
    8.2054   11.8490   22.2391 C   0  0  0  0  0  0  0  0  0  0  0  0
    9.9561   10.5432   24.2043 C   0  0  0  0  0  0  0  0  0  0  0  0
    7.9094   11.6664   25.1567 C   0  0  0  0  0  0  0  0  0  0  0  0
    7.7984   10.5306   22.9196 C   0  0  0  0  0  0  0  0  0  0  0  0
    9.1149   12.7216   23.1652 C   0  0  0  0  0  0  0  0  0  0  0  0
    7.1766   14.8275   22.2395 C   0  0  0  0  0  0  0  0  0  0  0  0
    2.7192   11.1938   18.3286 N   0  0  0  0  0  0  0  0  0  0  0  0
    9.2889   15.9395   21.5404 N   0  0  0  0  0  0  0  0  0  0  0  0
    3.3624   12.4057   18.1591 N   0  0  0  0  0  0  0  0  0  0  0  0
    9.4919   13.9549   22.5201 N   0  0  0  0  0  0  0  0  0  0  0  0
    6.4703   14.8740   20.9643 N   0  0  0  0  0  0  0  0  0  0  0  0
    7.3621   16.9363   20.3150 O   0  0  0  0  0  0  0  0  0  0  0  0
    3.9732   11.5705   20.1425 O   0  0  0  0  0  0  0  0  0  0  0  0
   13.9102   16.2368   21.0736 H   0  0  0  0  0  0  0  0  0  0  0  0
   14.1269   14.0326   22.1603 H   0  0  0  0  0  0  0  0  0  0  0  0
   11.6766   17.2631   20.7134 H   0  0  0  0  0  0  0  0  0  0  0  0
   12.1085   12.7851   22.9259 H   0  0  0  0  0  0  0  0  0  0  0  0
    2.8302    9.8279   20.0002 H   0  0  0  0  0  0  0  0  0  0  0  0
    4.5242   14.8131   17.6378 H   0  0  0  0  0  0  0  0  0  0  0  0
    5.9772   16.7231   18.1267 H   0  0  0  0  0  0  0  0  0  0  0  0
    5.5865   13.0247   21.3989 H   0  0  0  0  0  0  0  0  0  0  0  0
    8.9093    9.9370   26.0072 H   0  0  0  0  0  0  0  0  0  0  0  0
    9.8135   11.4393   26.1789 H   0  0  0  0  0  0  0  0  0  0  0  0
    9.6087    9.4801   22.3439 H   0  0  0  0  0  0  0  0  0  0  0  0
    8.7849    8.7775   23.7345 H   0  0  0  0  0  0  0  0  0  0  0  0
    6.7165    9.9123   24.6970 H   0  0  0  0  0  0  0  0  0  0  0  0
    6.1100   11.3994   23.9720 H   0  0  0  0  0  0  0  0  0  0  0  0
   11.0368   12.4246   24.1695 H   0  0  0  0  0  0  0  0  0  0  0  0
   10.9360   11.6370   22.6026 H   0  0  0  0  0  0  0  0  0  0  0  0
    7.4064   13.5746   24.2448 H   0  0  0  0  0  0  0  0  0  0  0  0
    8.9049   13.5941   25.1609 H   0  0  0  0  0  0  0  0  0  0  0  0
    8.7303   11.6339   21.2984 H   0  0  0  0  0  0  0  0  0  0  0  0
    7.3060   12.4154   21.9621 H   0  0  0  0  0  0  0  0  0  0  0  0
   10.8537    9.9651   24.4514 H   0  0  0  0  0  0  0  0  0  0  0  0
    7.3576   11.8837   26.0781 H   0  0  0  0  0  0  0  0  0  0  0  0
    7.1636    9.9477   22.2429 H   0  0  0  0  0  0  0  0  0  0  0  0
    6.8834   13.8842   22.7328 H   0  0  0  0  0  0  0  0  0  0  0  0
    6.7611   15.6393   22.8616 H   0  0  0  0  0  0  0  0  0  0  0  0
  1  2  1  0  0  0  0
  1  3  2  0  0  0  0
  2  4  2  0  0  0  0
  3  6  1  0  0  0  0
  4  7  1  0  0  0  0
  5 26  2  0  0  0  0
  5 32  1  0  0  0  0
  6  7  2  0  0  0  0
  6 27  1  0  0  0  0
  7 29  1  0  0  0  0
  8 13  1  0  0  0  0
  8 28  2  0  0  0  0
  8 32  1  0  0  0  0
  9 25  1  0  0  0  0
  9 27  2  0  0  0  0
  9 29  1  0  0  0  0
 10 11  2  0  0  0  0
 10 13  1  0  0  0  0
 11 14  1  0  0  0  0
 12 13  2  0  0  0  0
 12 30  1  0  0  0  0
 14 30  1  0  0  0  0
 14 31  2  0  0  0  0
 15 21  1  0  0  0  0
 15 22  1  0  0  0  0
 16 21  1  0  0  0  0
 16 23  1  0  0  0  0
 17 22  1  0  0  0  0
 17 23  1  0  0  0  0
 18 21  1  0  0  0  0
 18 24  1  0  0  0  0
 19 22  1  0  0  0  0
 19 24  1  0  0  0  0
 20 23  1  0  0  0  0
 20 24  1  0  0  0  0
 24 29  1  0  0  0  0
 25 30  1  0  0  0  0
 26 28  1  0  0  0  0
  1 33  1  0  0  0  0
  2 34  1  0  0  0  0
  3 35  1  0  0  0  0
  4 36  1  0  0  0  0
  5 37  1  0  0  0  0
 10 38  1  0  0  0  0
 11 39  1  0  0  0  0
 12 40  1  0  0  0  0
 15 41  1  0  0  0  0
 15 42  1  0  0  0  0
 16 43  1  0  0  0  0
 16 44  1  0  0  0  0
 17 45  1  0  0  0  0
 17 46  1  0  0  0  0
 18 47  1  0  0  0  0
 18 48  1  0  0  0  0
 19 49  1  0  0  0  0
 19 50  1  0  0  0  0
 20 51  1  0  0  0  0
 20 52  1  0  0  0  0
 21 53  1  0  0  0  0
 22 54  1  0  0  0  0
 23 55  1  0  0  0  0
 25 56  1  0  0  0  0
 25 57  1  0  0  0  0
M  END
> <idnumber>
Z666170800

> <heavy_atoms>
32

> <LogS>
-5.31

> <LogP>
2.504

> <rotating_bonds>
4

> <PSA>
77.05

> <hb_acceptors>
4

> <hb_donors>
0

> <Collection>
Advanced

> <link>
https://www.enaminestore.com/catalog/Z666170800

> <ROCS_ShapeQuery>
x0446_0A_x1080_0A_x0929_0A_x0812_0A_x0719_0A_x1140_0A_x0528_0A_x0310_0A

> <ROCS_TanimotoCombo>
0.469 

> <ROCS_ShapeTanimoto>
0.280 

> <ROCS_ColorTanimoto>
0.189 

> <ROCS_RefTversky>
0.257 

> <ROCS_RefColorTversky>
0.233 

> <ROCS_RefTverskyCombo>
0.490 

> <ROCS_FitTversky>
1.464 

> <ROCS_FitColorTversky>
0.499 

> <ROCS_FitTverskyCombo>
1.964 

> <ROCS_ColorScore>
-8.412

> <ROCS_Overlap>
3043.792

> <ROCS_Rank>
100                 

$$$$
untitled-dbase-1170993_37
  -OEChem-02092406493D

 55 60  0     1  0  0  0  0  0999 V2000
    3.3607   13.1039   20.0068 C   0  0  0  0  0  0  0  0  0  0  0  0
    2.9797   12.4806   18.8130 C   0  0  0  0  0  0  0  0  0  0  0  0
    4.6765   12.6894   22.2207 C   0  0  0  0  0  0  0  0  0  0  0  0
    4.1123   10.4303   19.4596 C   0  0  0  0  0  0  0  0  0  0  0  0
    4.1287   12.3838   20.9434 C   0  0  0  0  0  0  0  0  0  0  0  0
    3.3507   11.1643   18.5457 C   0  0  0  0  0  0  0  0  0  0  0  0
    4.4860   11.0663   20.6488 C   0  0  0  0  0  0  0  0  0  0  0  0
    5.3431   11.5722   22.6686 C   0  0  0  0  0  0  0  0  0  0  0  0
   10.5084   15.1103   22.2045 C   0  0  0  0  0  0  0  0  0  0  0  0
   13.2764   14.7896   21.8546 C   0  0  0  0  0  0  0  0  0  0  0  0
   12.5852   14.2129   22.9985 C   0  0  0  0  0  0  0  0  0  0  0  0
   12.5761   15.4894   20.9476 C   0  0  0  0  0  0  0  0  0  0  0  0
   11.2568   14.3709   23.1603 C   0  0  0  0  0  0  0  0  0  0  0  0
    6.0716   11.3905   23.9308 C   0  0  0  0  0  0  0  0  0  0  0  0
   10.6099   13.7626   24.3410 C   0  0  0  0  0  0  0  0  0  0  0  0
    9.2733    9.8415   24.5063 C   0  0  0  0  0  0  0  0  0  0  0  0
    9.3024   10.0286   22.9787 C   0  0  0  0  0  0  0  0  0  0  0  0
    8.9509   12.2212   25.2979 C   0  0  0  0  0  0  0  0  0  0  0  0
    9.0163   12.5339   22.7813 C   0  0  0  0  0  0  0  0  0  0  0  0
    8.2628   10.8799   25.0054 C   0  0  1  0  0  0  0  0  0  0  0  0
    8.3115   11.1676   22.7058 C   0  0  2  0  0  0  0  0  0  0  0  0
    1.5824    9.8189   17.3839 C   0  0  0  0  0  0  0  0  0  0  0  0
    2.9294   10.5256   17.2635 C   0  0  0  0  0  0  0  0  0  0  0  0
    9.2370   15.4265   22.0924 N   0  0  0  0  0  0  0  0  0  0  0  0
    9.1290   16.1625   20.9413 N   0  0  0  0  0  0  0  0  0  0  0  0
   10.3047   16.3048   20.3456 N   0  0  0  0  0  0  0  0  0  0  0  0
    5.2228   10.5986   21.7135 N   0  0  0  0  0  0  0  0  0  0  0  0
   11.2028   15.6502   21.1182 N   0  0  0  0  0  0  0  0  0  0  0  0
    7.4160   11.0822   23.8477 N   0  0  0  0  0  0  0  0  0  0  0  0
    9.6048   12.8193   24.1137 N   0  0  0  0  0  0  0  0  0  0  0  0
    5.4359   11.5296   24.9733 O   0  0  0  0  0  0  0  0  0  0  0  0
   10.9869   14.1283   25.4555 O   0  0  0  0  0  0  0  0  0  0  0  0
    3.0646   14.1305   20.2025 H   0  0  0  0  0  0  0  0  0  0  0  0
    2.3870   13.0395   18.0926 H   0  0  0  0  0  0  0  0  0  0  0  0
    4.5894   13.6280   22.7517 H   0  0  0  0  0  0  0  0  0  0  0  0
    4.4049    9.4047   19.2579 H   0  0  0  0  0  0  0  0  0  0  0  0
   14.3453   14.6413   21.7598 H   0  0  0  0  0  0  0  0  0  0  0  0
   13.1907   13.6554   23.7062 H   0  0  0  0  0  0  0  0  0  0  0  0
   13.0288   15.9427   20.0746 H   0  0  0  0  0  0  0  0  0  0  0  0
    8.9267    8.8281   24.7407 H   0  0  0  0  0  0  0  0  0  0  0  0
   10.2670    9.9660   24.9486 H   0  0  0  0  0  0  0  0  0  0  0  0
   10.3128   10.2443   22.6164 H   0  0  0  0  0  0  0  0  0  0  0  0
    8.9621    9.1056   22.4944 H   0  0  0  0  0  0  0  0  0  0  0  0
    8.2130   12.9536   25.6485 H   0  0  0  0  0  0  0  0  0  0  0  0
    9.6897   12.1028   26.0989 H   0  0  0  0  0  0  0  0  0  0  0  0
    9.8010   12.5732   22.0196 H   0  0  0  0  0  0  0  0  0  0  0  0
    8.3037   13.3408   22.5722 H   0  0  0  0  0  0  0  0  0  0  0  0
    7.6971   10.5347   25.8761 H   0  0  0  0  0  0  0  0  0  0  0  0
    7.7962   11.0479   21.7489 H   0  0  0  0  0  0  0  0  0  0  0  0
    1.6051    9.0610   18.1744 H   0  0  0  0  0  0  0  0  0  0  0  0
    1.3217    9.3214   16.4446 H   0  0  0  0  0  0  0  0  0  0  0  0
    0.7850   10.5305   17.6236 H   0  0  0  0  0  0  0  0  0  0  0  0
    2.8716   11.2788   16.4621 H   0  0  0  0  0  0  0  0  0  0  0  0
    3.6887    9.8011   16.9296 H   0  0  0  0  0  0  0  0  0  0  0  0
    5.6164    9.6697   21.7774 H   0  0  0  0  0  0  0  0  0  0  0  0
  1  2  2  0  0  0  0
  1  5  1  0  0  0  0
  2  6  1  0  0  0  0
  3  5  1  0  0  0  0
  3  8  2  0  0  0  0
  4  6  2  0  0  0  0
  4  7  1  0  0  0  0
  5  7  2  0  0  0  0
  6 23  1  0  0  0  0
  7 27  1  0  0  0  0
  8 14  1  0  0  0  0
  8 27  1  0  0  0  0
  9 13  1  0  0  0  0
  9 24  2  0  0  0  0
  9 28  1  0  0  0  0
 10 11  1  0  0  0  0
 10 12  2  0  0  0  0
 11 13  2  0  0  0  0
 12 28  1  0  0  0  0
 13 15  1  0  0  0  0
 14 29  1  0  0  0  0
 14 31  2  0  0  0  0
 15 30  1  0  0  0  0
 15 32  2  0  0  0  0
 16 17  1  0  0  0  0
 16 20  1  0  0  0  0
 17 21  1  0  0  0  0
 18 20  1  0  0  0  0
 18 30  1  0  0  0  0
 19 21  1  0  0  0  0
 19 30  1  0  0  0  0
 20 29  1  0  0  0  0
 21 29  1  0  0  0  0
 22 23  1  0  0  0  0
 24 25  1  0  0  0  0
 25 26  2  0  0  0  0
 26 28  1  0  0  0  0
  1 33  1  0  0  0  0
  2 34  1  0  0  0  0
  3 35  1  0  0  0  0
  4 36  1  0  0  0  0
 10 37  1  0  0  0  0
 11 38  1  0  0  0  0
 12 39  1  0  0  0  0
 16 40  1  0  0  0  0
 16 41  1  0  0  0  0
 17 42  1  0  0  0  0
 17 43  1  0  0  0  0
 18 44  1  0  0  0  0
 18 45  1  0  0  0  0
 19 46  1  0  0  0  0
 19 47  1  0  0  0  0
 20 48  1  0  0  0  0
 21 49  1  0  0  0  0
 22 50  1  0  0  0  0
 22 51  1  0  0  0  0
 22 52  1  0  0  0  0
 23 53  1  0  0  0  0
 23 54  1  0  0  0  0
 27 55  1  0  0  0  0
M  END
> <idnumber>
Z8485185330

> <heavy_atoms>
32

> <LogS>
-6.16

> <LogP>
2.302

> <rotating_bonds>
3

> <PSA>
99.49

> <hb_acceptors>
5

> <hb_donors>
1

> <Collection>
Advanced

> <link>
https://www.enaminestore.com/catalog/Z8485185330

> <ROCS_ShapeQuery>
x0446_0A_x1080_0A_x0929_0A_x0812_0A_x0719_0A_x1140_0A_x0528_0A_x0310_0A

> <ROCS_TanimotoCombo>
0.469 

> <ROCS_ShapeTanimoto>
0.252 

> <ROCS_ColorTanimoto>
0.216 

> <ROCS_RefTversky>
0.237 

> <ROCS_RefColorTversky>
0.269 

> <ROCS_RefTverskyCombo>
0.505 

> <ROCS_FitTversky>
1.357 

> <ROCS_FitColorTversky>
0.525 

> <ROCS_FitTverskyCombo>
1.883 

> <ROCS_ColorScore>
-9.737

> <ROCS_Overlap>
2801.255

> <ROCS_Rank>
101                 

$$$$
untitled-dbase-924657_16
  -OEChem-02092406493D

 34 37  0     0  0  0  0  0  0999 V2000
    5.6733   12.2119   24.2016 C   0  0  0  0  0  0  0  0  0  0  0  0
    6.3428   13.4469   24.2642 C   0  0  0  0  0  0  0  0  0  0  0  0
    6.3891   11.0209   24.0581 C   0  0  0  0  0  0  0  0  0  0  0  0
    7.7362   13.5057   24.1837 C   0  0  0  0  0  0  0  0  0  0  0  0
    7.7640   11.1056   23.9812 C   0  0  0  0  0  0  0  0  0  0  0  0
    8.4201   12.3158   24.0422 C   0  0  0  0  0  0  0  0  0  0  0  0
   10.7837   15.2586   21.5773 C   0  0  0  0  0  0  0  0  0  0  0  0
   10.5787   14.9327   22.8942 C   0  0  0  0  0  0  0  0  0  0  0  0
   12.1149   15.2807   20.9357 C   0  0  0  0  0  0  0  0  0  0  0  0
   11.6004   14.5145   23.8749 C   0  0  0  0  0  0  0  0  0  0  0  0
   13.1417   14.5270   21.8119 C   0  0  0  0  0  0  0  0  0  0  0  0
   12.9999   14.8583   23.3161 C   0  0  0  0  0  0  0  0  0  0  0  0
    9.8765   10.7527   23.8209 C   0  0  0  0  0  0  0  0  0  0  0  0
    8.4542   14.8266   24.2484 C   0  0  0  0  0  0  0  0  0  0  0  0
    9.5968   15.5757   20.9890 N   0  0  0  0  0  0  0  0  0  0  0  0
    8.6445   15.4463   21.9136 N   0  0  0  0  0  0  0  0  0  0  0  0
    9.2370   15.0582   23.0615 N   0  0  0  0  0  0  0  0  0  0  0  0
    8.6217   10.0571   23.8405 O   0  0  0  0  0  0  0  0  0  0  0  0
    9.7716   12.1781   23.9473 O   0  0  0  0  0  0  0  0  0  0  0  0
   10.5122   10.4662   22.6573 F   0  0  0  0  0  0  0  0  0  0  0  0
   10.6480   10.2839   24.8335 F   0  0  0  0  0  0  0  0  0  0  0  0
    4.5887   12.1863   24.2649 H   0  0  0  0  0  0  0  0  0  0  0  0
    5.7609   14.3585   24.3772 H   0  0  0  0  0  0  0  0  0  0  0  0
    5.8764   10.0672   24.0088 H   0  0  0  0  0  0  0  0  0  0  0  0
   12.0741   14.8295   19.9387 H   0  0  0  0  0  0  0  0  0  0  0  0
   12.4350   16.3224   20.8161 H   0  0  0  0  0  0  0  0  0  0  0  0
   11.4556   15.0088   24.8412 H   0  0  0  0  0  0  0  0  0  0  0  0
   11.5282   13.4326   24.0354 H   0  0  0  0  0  0  0  0  0  0  0  0
   13.0070   13.4461   21.6776 H   0  0  0  0  0  0  0  0  0  0  0  0
   14.1552   14.7672   21.4715 H   0  0  0  0  0  0  0  0  0  0  0  0
   13.1918   15.9304   23.4565 H   0  0  0  0  0  0  0  0  0  0  0  0
   13.7630   14.3203   23.8898 H   0  0  0  0  0  0  0  0  0  0  0  0
    7.7464   15.6570   24.3601 H   0  0  0  0  0  0  0  0  0  0  0  0
    9.1248   14.8710   25.1152 H   0  0  0  0  0  0  0  0  0  0  0  0
  1  2  1  0  0  0  0
  1  3  2  0  0  0  0
  2  4  2  0  0  0  0
  3  5  1  0  0  0  0
  4  6  1  0  0  0  0
  4 14  1  0  0  0  0
  5  6  2  0  0  0  0
  5 18  1  0  0  0  0
  6 19  1  0  0  0  0
  7  8  2  0  0  0  0
  7  9  1  0  0  0  0
  7 15  1  0  0  0  0
  8 10  1  0  0  0  0
  8 17  1  0  0  0  0
  9 11  1  0  0  0  0
 10 12  1  0  0  0  0
 11 12  1  0  0  0  0
 13 18  1  0  0  0  0
 13 19  1  0  0  0  0
 13 20  1  0  0  0  0
 13 21  1  0  0  0  0
 14 17  1  0  0  0  0
 15 16  2  0  0  0  0
 16 17  1  0  0  0  0
  1 22  1  0  0  0  0
  2 23  1  0  0  0  0
  3 24  1  0  0  0  0
  9 25  1  0  0  0  0
  9 26  1  0  0  0  0
 10 27  1  0  0  0  0
 10 28  1  0  0  0  0
 11 29  1  0  0  0  0
 11 30  1  0  0  0  0
 12 31  1  0  0  0  0
 12 32  1  0  0  0  0
 14 33  1  0  0  0  0
 14 34  1  0  0  0  0
M  END
> <idnumber>
Z2614150600

> <heavy_atoms>
21

> <LogS>
-3.659

> <LogP>
3.901

> <rotating_bonds>
2

> <PSA>
49.17

> <hb_acceptors>
4

> <hb_donors>
0

> <Collection>
HTS

> <link>
https://www.enaminestore.com/catalog/Z2614150600

> <ROCS_ShapeQuery>
x0446_0A_x1080_0A_x0929_0A_x0812_0A_x0719_0A_x1140_0A_x0528_0A_x0310_0A

> <ROCS_TanimotoCombo>
0.469 

> <ROCS_ShapeTanimoto>
0.251 

> <ROCS_ColorTanimoto>
0.218 

> <ROCS_RefTversky>
0.227 

> <ROCS_RefColorTversky>
0.228 

> <ROCS_RefTverskyCombo>
0.455 

> <ROCS_FitTversky>
1.710 

> <ROCS_FitColorTversky>
0.829 

> <ROCS_FitTverskyCombo>
2.539 

> <ROCS_ColorScore>
-8.151

> <ROCS_Overlap>
2683.361

> <ROCS_Rank>
102                 

$$$$
untitled-dbase-1131060_142
  -OEChem-02092406493D

 45 49  0     1  0  0  0  0  0999 V2000
    5.1107   16.3301   22.1389 C   0  0  0  0  0  0  0  0  0  0  0  0
    6.2344   16.7531   22.8487 C   0  0  0  0  0  0  0  0  0  0  0  0
   11.2307   16.1828   22.1317 C   0  0  0  0  0  0  0  0  0  0  0  0
    5.2570   14.1637   23.1982 C   0  0  0  0  0  0  0  0  0  0  0  0
   13.1650   11.9506   23.1698 C   0  0  0  0  0  0  0  0  0  0  0  0
   10.0356   16.6510   21.6371 C   0  0  0  0  0  0  0  0  0  0  0  0
    9.8504   14.4809   21.7137 C   0  0  0  0  0  0  0  0  0  0  0  0
   11.1105   14.7735   22.1813 C   0  0  0  0  0  0  0  0  0  0  0  0
    6.3808   14.5867   23.9080 C   0  0  0  0  0  0  0  0  0  0  0  0
   11.9419   12.4231   22.6635 C   0  0  0  0  0  0  0  0  0  0  0  0
    4.6219   15.0354   22.3137 C   0  0  0  0  0  0  0  0  0  0  0  0
    6.8695   15.8814   23.7332 C   0  0  0  0  0  0  0  0  0  0  0  0
   12.1051   13.7828   22.6339 C   0  0  0  0  0  0  0  0  0  0  0  0
    7.0173   13.6326   24.8298 C   0  0  0  0  0  0  0  0  0  0  0  0
   10.7524   11.6591   22.2556 C   0  0  0  0  0  0  0  0  0  0  0  0
    8.1015   10.2157   24.2697 C   0  0  0  0  0  0  0  0  0  0  0  0
    7.4794   12.0235   22.8817 C   0  0  0  0  0  0  0  0  0  0  0  0
    9.8169   11.7966   24.6439 C   0  0  0  0  0  0  0  0  0  0  0  0
    8.4718   10.8473   22.9229 C   0  0  1  0  0  0  0  0  0  0  0  0
    8.3551   11.5178   25.0380 C   0  0  1  0  0  0  0  0  0  0  0  0
   14.0213   12.9415   23.4341 N   0  0  0  0  0  0  0  0  0  0  0  0
    7.5148   12.4645   24.2860 N   0  0  0  0  0  0  0  0  0  0  0  0
    9.7989   11.4099   23.2234 N   0  0  0  0  0  0  0  0  0  0  0  0
    7.0790   13.9435   26.0171 O   0  0  0  0  0  0  0  0  0  0  0  0
   10.6773   11.3072   21.0805 O   0  0  0  0  0  0  0  0  0  0  0  0
    9.1887   15.6199   21.3798 O   0  0  0  0  0  0  0  0  0  0  0  0
   13.3421   14.1045   23.0914 O   0  0  0  0  0  0  0  0  0  0  0  0
    3.5250   14.6232   21.6212 O   0  0  0  0  0  0  0  0  0  0  0  0
    8.2591   16.4437   24.5907 Cl  0  0  0  0  0  0  0  0  0  0  0  0
    4.6203   17.0137   21.4511 H   0  0  0  0  0  0  0  0  0  0  0  0
    6.6028   17.7651   22.7006 H   0  0  0  0  0  0  0  0  0  0  0  0
   12.0795   16.7873   22.4189 H   0  0  0  0  0  0  0  0  0  0  0  0
    4.8702   13.1557   23.3301 H   0  0  0  0  0  0  0  0  0  0  0  0
   13.4728   10.9326   23.3595 H   0  0  0  0  0  0  0  0  0  0  0  0
    9.6509   17.6369   21.4207 H   0  0  0  0  0  0  0  0  0  0  0  0
    9.2993   13.5634   21.5632 H   0  0  0  0  0  0  0  0  0  0  0  0
    7.0606    9.8788   24.3234 H   0  0  0  0  0  0  0  0  0  0  0  0
    8.7700    9.3986   24.5614 H   0  0  0  0  0  0  0  0  0  0  0  0
    7.7815   12.8342   22.2118 H   0  0  0  0  0  0  0  0  0  0  0  0
    6.4601   11.7020   22.6436 H   0  0  0  0  0  0  0  0  0  0  0  0
   10.1133   12.8436   24.7588 H   0  0  0  0  0  0  0  0  0  0  0  0
   10.5227   11.1476   25.1727 H   0  0  0  0  0  0  0  0  0  0  0  0
    8.4586   10.1971   22.0467 H   0  0  0  0  0  0  0  0  0  0  0  0
    8.1557   11.5121   26.1108 H   0  0  0  0  0  0  0  0  0  0  0  0
    3.3090   13.7049   21.8490 H   0  0  0  0  0  0  0  0  0  0  0  0
  1  2  2  0  0  0  0
  1 11  1  0  0  0  0
  2 12  1  0  0  0  0
  3  6  2  0  0  0  0
  3  8  1  0  0  0  0
  4  9  1  0  0  0  0
  4 11  2  0  0  0  0
  5 10  1  0  0  0  0
  5 21  2  0  0  0  0
  6 26  1  0  0  0  0
  7  8  2  0  0  0  0
  7 26  1  0  0  0  0
  8 13  1  0  0  0  0
  9 12  2  0  0  0  0
  9 14  1  0  0  0  0
 10 13  2  0  0  0  0
 10 15  1  0  0  0  0
 11 28  1  0  0  0  0
 12 29  1  0  0  0  0
 13 27  1  0  0  0  0
 14 22  1  0  0  0  0
 14 24  2  0  0  0  0
 15 23  1  0  0  0  0
 15 25  2  0  0  0  0
 16 19  1  1  0  0  0
 16 20  1  1  0  0  0
 17 19  1  0  0  0  0
 17 22  1  0  0  0  0
 18 20  1  0  0  0  0
 18 23  1  0  0  0  0
 19 23  1  0  0  0  0
 20 22  1  0  0  0  0
 21 27  1  0  0  0  0
  1 30  1  0  0  0  0
  2 31  1  0  0  0  0
  3 32  1  0  0  0  0
  4 33  1  0  0  0  0
  5 34  1  0  0  0  0
  6 35  1  0  0  0  0
  7 36  1  0  0  0  0
 16 37  1  0  0  0  0
 16 38  1  0  0  0  0
 17 39  1  0  0  0  0
 17 40  1  0  0  0  0
 18 41  1  0  0  0  0
 18 42  1  0  0  0  0
 19 43  1  0  0  0  0
 20 44  1  0  0  0  0
 28 45  1  0  0  0  0
M  END
> <idnumber>
Z5606587293

> <heavy_atoms>
29

> <LogS>
-4.754

> <LogP>
2.741

> <rotating_bonds>
3

> <PSA>
100.02

> <hb_acceptors>
4

> <hb_donors>
1

> <Collection>
Advanced

> <link>
https://www.enaminestore.com/catalog/Z5606587293

> <ROCS_ShapeQuery>
x0446_0A_x1080_0A_x0929_0A_x0812_0A_x0719_0A_x1140_0A_x0528_0A_x0310_0A

> <ROCS_TanimotoCombo>
0.469 

> <ROCS_ShapeTanimoto>
0.269 

> <ROCS_ColorTanimoto>
0.199 

> <ROCS_RefTversky>
0.247 

> <ROCS_RefColorTversky>
0.242 

> <ROCS_RefTverskyCombo>
0.489 

> <ROCS_FitTversky>
1.523 

> <ROCS_FitColorTversky>
0.529 

> <ROCS_FitTverskyCombo>
2.052 

> <ROCS_ColorScore>
-8.738

> <ROCS_Overlap>
2917.287

> <ROCS_Rank>
103                 

$$$$
untitled-dbase-328227_100
  -OEChem-02092406493D

 61 66  0     0  0  0  0  0  0999 V2000
   13.0504   14.5124   22.0417 C   0  0  0  0  0  0  0  0  0  0  0  0
   12.5646   15.1432   20.8935 C   0  0  0  0  0  0  0  0  0  0  0  0
   12.1788   14.1511   23.0817 C   0  0  0  0  0  0  0  0  0  0  0  0
    8.0244   12.6017   24.1963 C   0  0  0  0  0  0  0  0  0  0  0  0
   11.2091   15.4081   20.8159 C   0  0  0  0  0  0  0  0  0  0  0  0
    6.9463   13.4824   24.5461 C   0  0  0  0  0  0  0  0  0  0  0  0
   10.3558   15.0501   21.8456 C   0  0  0  0  0  0  0  0  0  0  0  0
   10.8119   14.4179   22.9865 C   0  0  0  0  0  0  0  0  0  0  0  0
    5.7595   12.7940   24.7194 C   0  0  0  0  0  0  0  0  0  0  0  0
    9.3837   12.8107   23.9348 C   0  0  0  0  0  0  0  0  0  0  0  0
    7.5838   11.2859   24.1144 C   0  0  0  0  0  0  0  0  0  0  0  0
    9.6202   10.5493   23.5780 C   0  0  0  0  0  0  0  0  0  0  0  0
   10.4347   16.0161   19.7105 C   0  0  0  0  0  0  0  0  0  0  0  0
    7.0351   14.9670   24.7451 C   0  0  0  0  0  0  0  0  0  0  0  0
    4.4438   13.4172   25.0673 C   0  0  0  0  0  0  0  0  0  0  0  0
    5.6493   15.6304   24.7440 C   0  0  0  0  0  0  0  0  0  0  0  0
    4.6453   14.8445   25.5984 C   0  0  0  0  0  0  0  0  0  0  0  0
   12.7866    8.8811   22.5526 C   0  0  0  0  0  0  0  0  0  0  0  0
   12.3797    9.8206   24.7321 C   0  0  0  0  0  0  0  0  0  0  0  0
   14.2518    9.2874   22.6823 C   0  0  0  0  0  0  0  0  0  0  0  0
   13.8542   10.2058   24.8100 C   0  0  0  0  0  0  0  0  0  0  0  0
    9.0620   16.1839   20.4031 C   0  0  0  0  0  0  0  0  0  0  0  0
    8.8117   17.6400   20.8155 C   0  0  0  0  0  0  0  0  0  0  0  0
    7.9257   15.6946   19.5037 C   0  0  0  0  0  0  0  0  0  0  0  0
   10.5351    9.4226   23.2291 C   0  0  0  0  0  0  0  0  0  0  0  0
   10.1859   11.7707   23.6226 N   0  0  0  0  0  0  0  0  0  0  0  0
    8.3389   10.2132   23.8074 N   0  0  0  0  0  0  0  0  0  0  0  0
   11.9432    9.8005   23.3291 N   0  0  0  0  0  0  0  0  0  0  0  0
    9.0449   15.3728   21.6135 O   0  0  0  0  0  0  0  0  0  0  0  0
   14.6478    9.2900   24.0544 O   0  0  0  0  0  0  0  0  0  0  0  0
    9.9671   14.0679   23.9881 O   0  0  0  0  0  0  0  0  0  0  0  0
    5.9223   11.1223   24.4532 S   0  0  0  0  0  0  0  0  0  0  0  0
   14.1115   14.2947   22.1299 H   0  0  0  0  0  0  0  0  0  0  0  0
   13.2368   15.4122   20.0859 H   0  0  0  0  0  0  0  0  0  0  0  0
   12.5784   13.6584   23.9644 H   0  0  0  0  0  0  0  0  0  0  0  0
   10.8570   16.9675   19.3734 H   0  0  0  0  0  0  0  0  0  0  0  0
   10.3896   15.3203   18.8657 H   0  0  0  0  0  0  0  0  0  0  0  0
    7.5303   15.1613   25.7044 H   0  0  0  0  0  0  0  0  0  0  0  0
    7.6459   15.4248   23.9595 H   0  0  0  0  0  0  0  0  0  0  0  0
    3.8184   13.4509   24.1665 H   0  0  0  0  0  0  0  0  0  0  0  0
    3.9110   12.8217   25.8173 H   0  0  0  0  0  0  0  0  0  0  0  0
    5.7359   16.6573   25.1165 H   0  0  0  0  0  0  0  0  0  0  0  0
    5.2726   15.6933   23.7150 H   0  0  0  0  0  0  0  0  0  0  0  0
    3.6817   15.3658   25.6201 H   0  0  0  0  0  0  0  0  0  0  0  0
    5.0106   14.8036   26.6327 H   0  0  0  0  0  0  0  0  0  0  0  0
   12.5028    8.9095   21.4967 H   0  0  0  0  0  0  0  0  0  0  0  0
   12.6609    7.8556   22.9169 H   0  0  0  0  0  0  0  0  0  0  0  0
   12.2375    8.8336   25.1858 H   0  0  0  0  0  0  0  0  0  0  0  0
   11.7937   10.5492   25.2994 H   0  0  0  0  0  0  0  0  0  0  0  0
   14.8854    8.5678   22.1539 H   0  0  0  0  0  0  0  0  0  0  0  0
   14.4370   10.2763   22.2458 H   0  0  0  0  0  0  0  0  0  0  0  0
   14.0267   11.2261   24.4459 H   0  0  0  0  0  0  0  0  0  0  0  0
   14.1964   10.1634   25.8489 H   0  0  0  0  0  0  0  0  0  0  0  0
    7.8410   17.7185   21.2972 H   0  0  0  0  0  0  0  0  0  0  0  0
    8.8305   18.2747   19.9339 H   0  0  0  0  0  0  0  0  0  0  0  0
    9.5862   17.9588   21.5077 H   0  0  0  0  0  0  0  0  0  0  0  0
    6.9729   15.8233   20.0132 H   0  0  0  0  0  0  0  0  0  0  0  0
    8.0686   14.6411   19.2721 H   0  0  0  0  0  0  0  0  0  0  0  0
    7.9175   16.2671   18.5784 H   0  0  0  0  0  0  0  0  0  0  0  0
   10.3750    8.5634   23.8946 H   0  0  0  0  0  0  0  0  0  0  0  0
   10.3624    9.0676   22.2043 H   0  0  0  0  0  0  0  0  0  0  0  0
  1  2  2  0  0  0  0
  1  3  1  0  0  0  0
  2  5  1  0  0  0  0
  3  8  2  0  0  0  0
  4  6  1  0  0  0  0
  4 10  2  0  0  0  0
  4 11  1  0  0  0  0
  5  7  2  0  0  0  0
  5 13  1  0  0  0  0
  6  9  2  0  0  0  0
  6 14  1  0  0  0  0
  7  8  1  0  0  0  0
  7 29  1  0  0  0  0
  8 31  1  0  0  0  0
  9 15  1  0  0  0  0
  9 32  1  0  0  0  0
 10 26  1  0  0  0  0
 10 31  1  0  0  0  0
 11 27  2  0  0  0  0
 11 32  1  0  0  0  0
 12 25  1  0  0  0  0
 12 26  2  0  0  0  0
 12 27  1  0  0  0  0
 13 22  1  0  0  0  0
 14 16  1  0  0  0  0
 15 17  1  0  0  0  0
 16 17  1  0  0  0  0
 18 20  1  0  0  0  0
 18 28  1  0  0  0  0
 19 21  1  0  0  0  0
 19 28  1  0  0  0  0
 20 30  1  0  0  0  0
 21 30  1  0  0  0  0
 22 23  1  0  0  0  0
 22 24  1  0  0  0  0
 22 29  1  0  0  0  0
 25 28  1  0  0  0  0
  1 33  1  0  0  0  0
  2 34  1  0  0  0  0
  3 35  1  0  0  0  0
 13 36  1  0  0  0  0
 13 37  1  0  0  0  0
 14 38  1  0  0  0  0
 14 39  1  0  0  0  0
 15 40  1  0  0  0  0
 15 41  1  0  0  0  0
 16 42  1  0  0  0  0
 16 43  1  0  0  0  0
 17 44  1  0  0  0  0
 17 45  1  0  0  0  0
 18 46  1  0  0  0  0
 18 47  1  0  0  0  0
 19 48  1  0  0  0  0
 19 49  1  0  0  0  0
 20 50  1  0  0  0  0
 20 51  1  0  0  0  0
 21 52  1  0  0  0  0
 21 53  1  0  0  0  0
 23 54  1  0  0  0  0
 23 55  1  0  0  0  0
 23 56  1  0  0  0  0
 24 57  1  0  0  0  0
 24 58  1  0  0  0  0
 24 59  1  0  0  0  0
 25 60  1  0  0  0  0
 25 61  1  0  0  0  0
M  END
> <idnumber>
Z31264417

> <heavy_atoms>
32

> <LogS>
-6.08

> <LogP>
5.395

> <rotating_bonds>
4

> <PSA>
56.71

> <hb_acceptors>
5

> <hb_donors>
0

> <Collection>
Legacy

> <link>
https://www.enaminestore.com/catalog/Z31264417

> <ROCS_ShapeQuery>
x0446_0A_x1080_0A_x0929_0A_x0812_0A_x0719_0A_x1140_0A_x0528_0A_x0310_0A

> <ROCS_TanimotoCombo>
0.468 

> <ROCS_ShapeTanimoto>
0.272 

> <ROCS_ColorTanimoto>
0.196 

> <ROCS_RefTversky>
0.250 

> <ROCS_RefColorTversky>
0.229 

> <ROCS_RefTverskyCombo>
0.480 

> <ROCS_FitTversky>
1.464 

> <ROCS_FitColorTversky>
0.578 

> <ROCS_FitTverskyCombo>
2.043 

> <ROCS_ColorScore>
-8.251

> <ROCS_Overlap>
2963.821

> <ROCS_Rank>
104                 

$$$$
untitled-dbase-915473_56
  -OEChem-02092406493D

 39 42  0     1  0  0  0  0  0999 V2000
    5.7639   12.1560   25.3007 C   0  0  0  0  0  0  0  0  0  0  0  0
   12.6726   14.0758   22.3928 C   0  0  0  0  0  0  0  0  0  0  0  0
    6.4838   13.3562   25.1646 C   0  0  0  0  0  0  0  0  0  0  0  0
    6.3363   10.9369   24.9297 C   0  0  0  0  0  0  0  0  0  0  0  0
   11.3122   14.0035   22.1150 C   0  0  0  0  0  0  0  0  0  0  0  0
   13.2053   15.3155   22.7077 C   0  0  0  0  0  0  0  0  0  0  0  0
   11.1651   16.3482   22.4855 C   0  0  0  0  0  0  0  0  0  0  0  0
    7.7848   13.3517   24.6555 C   0  0  0  0  0  0  0  0  0  0  0  0
    7.6221   10.9590   24.4300 C   0  0  0  0  0  0  0  0  0  0  0  0
    8.3275   12.1351   24.2963 C   0  0  0  0  0  0  0  0  0  0  0  0
   10.5369   15.1569   22.1600 C   0  0  0  0  0  0  0  0  0  0  0  0
    6.6044   17.5567   23.2749 C   0  0  0  0  0  0  0  0  0  0  0  0
    6.8176   17.2533   24.7298 C   0  0  0  0  0  0  0  0  0  0  0  0
    7.8511   16.8462   23.7188 C   0  0  0  0  0  0  0  0  0  0  0  0
    9.5592   10.5118   23.6173 C   0  0  0  0  0  0  0  0  0  0  0  0
    8.5472   14.6209   24.5088 C   0  0  0  0  0  0  0  0  0  0  0  0
   12.4841   16.4576   22.7614 N   0  0  0  0  0  0  0  0  0  0  0  0
    8.1022   15.4045   23.3827 N   0  0  2  0  0  0  0  0  0  0  0  0
    8.5001   16.2321   20.9499 O   0  0  0  0  0  0  0  0  0  0  0  0
    8.4929   13.7594   21.3622 O   0  0  0  0  0  0  0  0  0  0  0  0
    8.3374    9.8755   24.0190 O   0  0  0  0  0  0  0  0  0  0  0  0
    9.5738   11.9368   23.7846 O   0  0  0  0  0  0  0  0  0  0  0  0
    9.7869   10.2261   22.3109 F   0  0  0  0  0  0  0  0  0  0  0  0
   10.5807    9.9811   24.3350 F   0  0  0  0  0  0  0  0  0  0  0  0
    8.8011   15.1043   21.8124 S   0  0  0  0  0  0  0  0  0  0  0  0
    4.7526   12.1796   25.6978 H   0  0  0  0  0  0  0  0  0  0  0  0
   13.2964   13.1898   22.3637 H   0  0  0  0  0  0  0  0  0  0  0  0
    6.0145   14.2908   25.4621 H   0  0  0  0  0  0  0  0  0  0  0  0
    5.7841   10.0099   25.0326 H   0  0  0  0  0  0  0  0  0  0  0  0
   10.8663   13.0449   21.8649 H   0  0  0  0  0  0  0  0  0  0  0  0
   14.2612   15.4253   22.9324 H   0  0  0  0  0  0  0  0  0  0  0  0
   10.6126   17.2813   22.5366 H   0  0  0  0  0  0  0  0  0  0  0  0
    5.8470   16.9889   22.7484 H   0  0  0  0  0  0  0  0  0  0  0  0
    6.6983   18.5871   22.9546 H   0  0  0  0  0  0  0  0  0  0  0  0
    7.0533   18.0800   25.3885 H   0  0  0  0  0  0  0  0  0  0  0  0
    6.2035   16.4820   25.1780 H   0  0  0  0  0  0  0  0  0  0  0  0
    8.7741   17.4147   23.7008 H   0  0  0  0  0  0  0  0  0  0  0  0
    8.4498   15.2515   25.4052 H   0  0  0  0  0  0  0  0  0  0  0  0
    9.6226   14.4355   24.3706 H   0  0  0  0  0  0  0  0  0  0  0  0
  1  3  1  0  0  0  0
  1  4  2  0  0  0  0
  2  5  2  0  0  0  0
  2  6  1  0  0  0  0
  3  8  2  0  0  0  0
  4  9  1  0  0  0  0
  5 11  1  0  0  0  0
  6 17  2  0  0  0  0
  7 11  2  0  0  0  0
  7 17  1  0  0  0  0
  8 10  1  0  0  0  0
  8 16  1  0  0  0  0
  9 10  2  0  0  0  0
  9 21  1  0  0  0  0
 10 22  1  0  0  0  0
 11 25  1  0  0  0  0
 12 13  1  0  0  0  0
 12 14  1  0  0  0  0
 13 14  1  0  0  0  0
 14 18  1  0  0  0  0
 15 21  1  0  0  0  0
 15 22  1  0  0  0  0
 15 23  1  0  0  0  0
 15 24  1  0  0  0  0
 16 18  1  0  0  0  0
 18 25  1  0  0  0  0
 19 25  2  0  0  0  0
 20 25  2  0  0  0  0
  1 26  1  0  0  0  0
  2 27  1  0  0  0  0
  3 28  1  0  0  0  0
  4 29  1  0  0  0  0
  5 30  1  0  0  0  0
  6 31  1  0  0  0  0
  7 32  1  0  0  0  0
 12 33  1  0  0  0  0
 12 34  1  0  0  0  0
 13 35  1  0  0  0  0
 13 36  1  0  0  0  0
 14 37  1  0  0  0  0
 16 38  1  0  0  0  0
 16 39  1  0  0  0  0
M  END
> <idnumber>
Z2503971338

> <heavy_atoms>
25

> <LogS>
-4.055

> <LogP>
3.893

> <rotating_bonds>
4

> <PSA>
68.73

> <hb_acceptors>
5

> <hb_donors>
0

> <Collection>
HTS

> <link>
https://www.enaminestore.com/catalog/Z2503971338

> <ROCS_ShapeQuery>
x0446_0A_x1080_0A_x0929_0A_x0812_0A_x0719_0A_x1140_0A_x0528_0A_x0310_0A

> <ROCS_TanimotoCombo>
0.468 

> <ROCS_ShapeTanimoto>
0.269 

> <ROCS_ColorTanimoto>
0.200 

> <ROCS_RefTversky>
0.242 

> <ROCS_RefColorTversky>
0.211 

> <ROCS_RefTverskyCombo>
0.453 

> <ROCS_FitTversky>
1.682 

> <ROCS_FitColorTversky>
0.793 

> <ROCS_FitTverskyCombo>
2.475 

> <ROCS_ColorScore>
-7.526

> <ROCS_Overlap>
2864.877

> <ROCS_Rank>
105                 

$$$$
untitled-dbase-328982_25
  -OEChem-02092406493D

 38 40  0     0  0  0  0  0  0999 V2000
   12.4193   15.2794   21.4533 C   0  0  0  0  0  0  0  0  0  0  0  0
   13.5026   14.7727   22.1711 C   0  0  0  0  0  0  0  0  0  0  0  0
   11.9867   13.8722   23.8229 C   0  0  0  0  0  0  0  0  0  0  0  0
    7.9475   12.5334   24.2162 C   0  0  0  0  0  0  0  0  0  0  0  0
    6.8295   13.3168   24.6437 C   0  0  0  0  0  0  0  0  0  0  0  0
   11.1197   15.0826   21.9203 C   0  0  0  0  0  0  0  0  0  0  0  0
   10.9035   14.3790   23.1051 C   0  0  0  0  0  0  0  0  0  0  0  0
   13.2863   14.0690   23.3560 C   0  0  0  0  0  0  0  0  0  0  0  0
    5.7637   12.5406   25.0442 C   0  0  0  0  0  0  0  0  0  0  0  0
    9.2177   12.8683   23.7364 C   0  0  0  0  0  0  0  0  0  0  0  0
    7.6676   11.1767   24.3159 C   0  0  0  0  0  0  0  0  0  0  0  0
    9.6877   10.6225   23.5484 C   0  0  0  0  0  0  0  0  0  0  0  0
    4.4837   12.9451   25.5316 C   0  0  0  0  0  0  0  0  0  0  0  0
    6.8111   14.8022   24.6578 C   0  0  0  0  0  0  0  0  0  0  0  0
   10.6816    9.5761   23.1673 C   0  0  0  0  0  0  0  0  0  0  0  0
    2.8077   14.6697   25.4270 C   0  0  0  0  0  0  0  0  0  0  0  0
   10.0947   11.8984   23.4000 N   0  0  0  0  0  0  0  0  0  0  0  0
    8.5027   10.1692   23.9950 N   0  0  0  0  0  0  0  0  0  0  0  0
   10.0273   15.6053   21.1748 N   0  3  0  0  0  0  0  0  0  0  0  0
   10.2618   16.2325   20.1148 O   0  5  0  0  0  0  0  0  0  0  0  0
    3.7781   12.3005   26.3421 O   0  0  0  0  0  0  0  0  0  0  0  0
    8.8617   15.4237   21.5997 O   0  0  0  0  0  0  0  0  0  0  0  0
    9.6283   14.1706   23.5869 O   0  0  0  0  0  0  0  0  0  0  0  0
    4.0777   14.1553   25.0122 O   0  0  0  0  0  0  0  0  0  0  0  0
   14.3265   13.5815   24.0449 F   0  0  0  0  0  0  0  0  0  0  0  0
    6.0995   10.8689   24.9081 S   0  0  0  0  0  0  0  0  0  0  0  0
   12.6024   15.8262   20.5317 H   0  0  0  0  0  0  0  0  0  0  0  0
   14.5144   14.9254   21.8080 H   0  0  0  0  0  0  0  0  0  0  0  0
   11.8262   13.3225   24.7464 H   0  0  0  0  0  0  0  0  0  0  0  0
    6.4419   15.1945   23.7000 H   0  0  0  0  0  0  0  0  0  0  0  0
    6.1661   15.1909   25.4594 H   0  0  0  0  0  0  0  0  0  0  0  0
    7.8143   15.2172   24.8348 H   0  0  0  0  0  0  0  0  0  0  0  0
   11.2992    9.3050   24.0317 H   0  0  0  0  0  0  0  0  0  0  0  0
   10.1835    8.6714   22.7967 H   0  0  0  0  0  0  0  0  0  0  0  0
   11.3410    9.9285   22.3639 H   0  0  0  0  0  0  0  0  0  0  0  0
    2.6239   15.6283   24.9358 H   0  0  0  0  0  0  0  0  0  0  0  0
    2.8022   14.7974   26.5125 H   0  0  0  0  0  0  0  0  0  0  0  0
    2.0267   13.9610   25.1416 H   0  0  0  0  0  0  0  0  0  0  0  0
  1  2  2  0  0  0  0
  1  6  1  0  0  0  0
  2  8  1  0  0  0  0
  3  7  1  0  0  0  0
  3  8  2  0  0  0  0
  4  5  1  0  0  0  0
  4 10  1  0  0  0  0
  4 11  2  0  0  0  0
  5  9  2  0  0  0  0
  5 14  1  0  0  0  0
  6  7  2  0  0  0  0
  6 19  1  0  0  0  0
  7 23  1  0  0  0  0
  8 25  1  0  0  0  0
  9 13  1  0  0  0  0
  9 26  1  0  0  0  0
 10 17  2  0  0  0  0
 10 23  1  0  0  0  0
 11 18  1  0  0  0  0
 11 26  1  0  0  0  0
 12 15  1  0  0  0  0
 12 17  1  0  0  0  0
 12 18  2  0  0  0  0
 13 21  2  0  0  0  0
 13 24  1  0  0  0  0
 16 24  1  0  0  0  0
 19 20  1  0  0  0  0
 19 22  2  0  0  0  0
  1 27  1  0  0  0  0
  2 28  1  0  0  0  0
  3 29  1  0  0  0  0
 14 30  1  0  0  0  0
 14 31  1  0  0  0  0
 14 32  1  0  0  0  0
 15 33  1  0  0  0  0
 15 34  1  0  0  0  0
 15 35  1  0  0  0  0
 16 36  1  0  0  0  0
 16 37  1  0  0  0  0
 16 38  1  0  0  0  0
M  CHG  2  19   1  20  -1
M  END
> <idnumber>
Z31266397

> <heavy_atoms>
26

> <LogS>
-6.03

> <LogP>
3.59

> <rotating_bonds>
5

> <PSA>
104.45

> <hb_acceptors>
5

> <hb_donors>
0

> <Collection>
Legacy

> <link>
https://www.enaminestore.com/catalog/Z31266397

> <ROCS_ShapeQuery>
x0446_0A_x1080_0A_x0929_0A_x0812_0A_x0719_0A_x1140_0A_x0528_0A_x0310_0A

> <ROCS_TanimotoCombo>
0.468 

> <ROCS_ShapeTanimoto>
0.267 

> <ROCS_ColorTanimoto>
0.201 

> <ROCS_RefTversky>
0.242 

> <ROCS_RefColorTversky>
0.216 

> <ROCS_RefTverskyCombo>
0.458 

> <ROCS_FitTversky>
1.633 

> <ROCS_FitColorTversky>
0.740 

> <ROCS_FitTverskyCombo>
2.373 

> <ROCS_ColorScore>
-7.735

> <ROCS_Overlap>
2864.939

> <ROCS_Rank>
106                 

$$$$
untitled-dbase-1059105_10
  -OEChem-02092406493D

 37 41  0     1  0  0  0  0  0999 V2000
   10.8335   13.5256   23.3577 C   0  0  0  0  0  0  0  0  0  0  0  0
    9.7078   15.7891   21.7409 C   0  0  0  0  0  0  0  0  0  0  0  0
   13.4117   15.3179   21.2354 C   0  0  0  0  0  0  0  0  0  0  0  0
   13.0098   14.1540   22.1464 C   0  0  0  0  0  0  0  0  0  0  0  0
   12.0886   15.9770   20.8344 C   0  0  0  0  0  0  0  0  0  0  0  0
    9.3168    9.5870   24.5984 C   0  0  0  0  0  0  0  0  0  0  0  0
    7.6409   13.0164   23.7955 C   0  0  0  0  0  0  0  0  0  0  0  0
   11.5963   15.9565   23.3990 C   0  0  0  0  0  0  0  0  0  0  0  0
    8.7026   10.8933   25.0254 C   0  0  2  0  0  0  0  0  0  0  0  0
    7.5686   11.5831   24.2468 C   0  0  2  0  0  0  0  0  0  0  0  0
    9.9264   10.8784   24.1255 C   0  0  2  0  0  0  0  0  0  0  0  0
    8.1036   11.9254   22.8652 C   0  0  2  0  0  0  0  0  0  0  0  0
    9.5536   11.4748   22.7758 C   0  0  0  0  0  0  0  0  0  0  0  0
   11.7041   14.5730   22.7930 C   0  0  2  0  0  0  0  0  0  0  0  0
   11.1361   15.7053   21.9798 C   0  0  1  0  0  0  0  0  0  0  0  0
   10.4111   12.5874   22.4354 N   0  0  0  0  0  0  0  0  0  0  0  0
    9.1954   16.9270   21.9301 O   0  5  0  0  0  0  0  0  0  0  0  0
   10.5541   13.5505   24.5506 O   0  0  0  0  0  0  0  0  0  0  0  0
    9.1678   14.7077   21.3745 O   0  0  0  0  0  0  0  0  0  0  0  0
   14.0251   16.0324   21.7976 H   0  0  0  0  0  0  0  0  0  0  0  0
   13.9977   14.9919   20.3710 H   0  0  0  0  0  0  0  0  0  0  0  0
   12.8519   13.2506   21.5457 H   0  0  0  0  0  0  0  0  0  0  0  0
   13.7822   13.9427   22.8925 H   0  0  0  0  0  0  0  0  0  0  0  0
   12.2129   17.0495   20.6549 H   0  0  0  0  0  0  0  0  0  0  0  0
   11.7074   15.5141   19.9166 H   0  0  0  0  0  0  0  0  0  0  0  0
    9.8592    9.0194   25.3452 H   0  0  0  0  0  0  0  0  0  0  0  0
    8.7783    8.9766   23.8837 H   0  0  0  0  0  0  0  0  0  0  0  0
    6.7090   13.5158   23.5577 H   0  0  0  0  0  0  0  0  0  0  0  0
    8.3809   13.6599   24.2553 H   0  0  0  0  0  0  0  0  0  0  0  0
   10.8450   16.1258   24.1637 H   0  0  0  0  0  0  0  0  0  0  0  0
   12.5002   16.5304   23.5660 H   0  0  0  0  0  0  0  0  0  0  0  0
    8.8393   11.1870   26.0598 H   0  0  0  0  0  0  0  0  0  0  0  0
    6.5835   11.1352   24.3106 H   0  0  0  0  0  0  0  0  0  0  0  0
   10.8828   11.1774   24.5293 H   0  0  0  0  0  0  0  0  0  0  0  0
    7.5063   11.6856   21.9973 H   0  0  0  0  0  0  0  0  0  0  0  0
    9.6692   10.7205   21.9903 H   0  0  0  0  0  0  0  0  0  0  0  0
   10.7180   12.6842   21.4721 H   0  0  0  0  0  0  0  0  0  0  0  0
  1 14  1  1  0  0  0
  1 16  1  0  0  0  0
  1 18  2  0  0  0  0
  2 15  1  1  0  0  0
  2 17  1  0  0  0  0
  2 19  2  0  0  0  0
  3  4  1  0  0  0  0
  3  5  1  0  0  0  0
  4 14  1  0  0  0  0
  5 15  1  0  0  0  0
  6  9  1  6  0  0  0
  6 11  1  6  0  0  0
  7 10  1  1  0  0  0
  7 12  1  1  0  0  0
  8 14  1  0  0  0  0
  8 15  1  0  0  0  0
  9 10  1  0  0  0  0
  9 11  1  0  0  0  0
 10 12  1  0  0  0  0
 11 13  1  0  0  0  0
 12 13  1  0  0  0  0
 13 16  1  0  0  0  0
 14 15  1  0  0  0  0
  3 20  1  0  0  0  0
  3 21  1  0  0  0  0
  4 22  1  0  0  0  0
  4 23  1  0  0  0  0
  5 24  1  0  0  0  0
  5 25  1  0  0  0  0
  6 26  1  0  0  0  0
  6 27  1  0  0  0  0
  7 28  1  0  0  0  0
  7 29  1  0  0  0  0
  8 30  1  0  0  0  0
  8 31  1  0  0  0  0
  9 32  1  0  0  0  0
 10 33  1  0  0  0  0
 11 34  1  0  0  0  0
 12 35  1  0  0  0  0
 13 36  1  0  0  0  0
 16 37  1  0  0  0  0
M  CHG  1  17  -1
M  END
> <idnumber>
Z4580053468

> <heavy_atoms>
20

> <LogP>
-0.807

> <rotating_bonds>
3

> <PSA>
69.23

> <hb_acceptors>
3

> <hb_donors>
1

> <SaltType>
[Na+]

> <Collection>
Advanced

> <link>
https://www.enaminestore.com/catalog/Z4580053468

> <ROCS_ShapeQuery>
x0446_0A_x1080_0A_x0929_0A_x0812_0A_x0719_0A_x1140_0A_x0528_0A_x0310_0A

> <ROCS_TanimotoCombo>
0.468 

> <ROCS_ShapeTanimoto>
0.223 

> <ROCS_ColorTanimoto>
0.245 

> <ROCS_RefTversky>
0.205 

> <ROCS_RefColorTversky>
0.326 

> <ROCS_RefTverskyCombo>
0.531 

> <ROCS_FitTversky>
1.670 

> <ROCS_FitColorTversky>
0.497 

> <ROCS_FitTverskyCombo>
2.167 

> <ROCS_ColorScore>
-11.892

> <ROCS_Overlap>
2419.828

> <ROCS_Rank>
107                 

$$$$
untitled-dbase-915624_56
  -OEChem-02092406493D

 37 40  0     0  0  0  0  0  0999 V2000
    5.6759   11.9265   25.2466 C   0  0  0  0  0  0  0  0  0  0  0  0
    6.2488   13.2074   25.1559 C   0  0  0  0  0  0  0  0  0  0  0  0
    6.3923   10.7965   24.8447 C   0  0  0  0  0  0  0  0  0  0  0  0
    7.5449   13.3740   24.6620 C   0  0  0  0  0  0  0  0  0  0  0  0
    7.6702   10.9873   24.3609 C   0  0  0  0  0  0  0  0  0  0  0  0
    8.2315   12.2426   24.2717 C   0  0  0  0  0  0  0  0  0  0  0  0
    9.7546   15.0424   22.6248 C   0  0  0  0  0  0  0  0  0  0  0  0
   11.6446   15.8613   24.1230 C   0  0  0  0  0  0  0  0  0  0  0  0
   12.1452   13.9857   22.5338 C   0  0  0  0  0  0  0  0  0  0  0  0
   12.4671   16.7567   23.2052 C   0  0  0  0  0  0  0  0  0  0  0  0
   13.0004   14.9767   21.7453 C   0  0  0  0  0  0  0  0  0  0  0  0
   11.0355   14.6643   23.3634 C   0  0  0  0  0  0  0  0  0  0  0  0
    9.6531   10.7998   23.5572 C   0  0  0  0  0  0  0  0  0  0  0  0
    8.1587   14.7443   24.5624 C   0  0  0  0  0  0  0  0  0  0  0  0
    9.6250   15.3985   21.3675 N   0  0  0  0  0  0  0  0  0  0  0  0
    8.2813   15.6362   21.1856 N   0  0  0  0  0  0  0  0  0  0  0  0
    7.6039   15.4286   22.3081 N   0  0  0  0  0  0  0  0  0  0  0  0
    8.5270   15.0577   23.2063 N   0  0  0  0  0  0  0  0  0  0  0  0
    8.5128   10.0103   23.9249 O   0  0  0  0  0  0  0  0  0  0  0  0
    9.4965   12.2103   23.7686 O   0  0  0  0  0  0  0  0  0  0  0  0
   13.5107   16.0052   22.5898 O   0  0  0  0  0  0  0  0  0  0  0  0
    9.9234   10.5852   22.2453 F   0  0  0  0  0  0  0  0  0  0  0  0
   10.7250   10.3715   24.2700 F   0  0  0  0  0  0  0  0  0  0  0  0
    4.6659   11.8170   25.6324 H   0  0  0  0  0  0  0  0  0  0  0  0
    5.6691   14.0697   25.4767 H   0  0  0  0  0  0  0  0  0  0  0  0
    5.9537    9.8077   24.9125 H   0  0  0  0  0  0  0  0  0  0  0  0
   12.2657   15.5079   24.9620 H   0  0  0  0  0  0  0  0  0  0  0  0
   10.8300   16.4582   24.5682 H   0  0  0  0  0  0  0  0  0  0  0  0
   11.6798   13.2741   21.8214 H   0  0  0  0  0  0  0  0  0  0  0  0
   12.7932   13.3707   23.1890 H   0  0  0  0  0  0  0  0  0  0  0  0
   11.8324   17.1592   22.4121 H   0  0  0  0  0  0  0  0  0  0  0  0
   12.8970   17.6013   23.7523 H   0  0  0  0  0  0  0  0  0  0  0  0
   13.8337   14.4683   21.2419 H   0  0  0  0  0  0  0  0  0  0  0  0
   12.3915   15.4532   20.9679 H   0  0  0  0  0  0  0  0  0  0  0  0
   10.7192   13.9206   24.1646 H   0  0  0  0  0  0  0  0  0  0  0  0
    7.4644   15.5159   24.9165 H   0  0  0  0  0  0  0  0  0  0  0  0
    9.0562   14.8228   25.1880 H   0  0  0  0  0  0  0  0  0  0  0  0
  1  2  1  0  0  0  0
  1  3  2  0  0  0  0
  2  4  2  0  0  0  0
  3  5  1  0  0  0  0
  4  6  1  0  0  0  0
  4 14  1  0  0  0  0
  5  6  2  0  0  0  0
  5 19  1  0  0  0  0
  6 20  1  0  0  0  0
  7 12  1  0  0  0  0
  7 15  2  0  0  0  0
  7 18  1  0  0  0  0
  8 10  1  0  0  0  0
  8 12  1  0  0  0  0
  9 11  1  0  0  0  0
  9 12  1  0  0  0  0
 10 21  1  0  0  0  0
 11 21  1  0  0  0  0
 13 19  1  0  0  0  0
 13 20  1  0  0  0  0
 13 22  1  0  0  0  0
 13 23  1  0  0  0  0
 14 18  1  0  0  0  0
 15 16  1  0  0  0  0
 16 17  2  0  0  0  0
 17 18  1  0  0  0  0
  1 24  1  0  0  0  0
  2 25  1  0  0  0  0
  3 26  1  0  0  0  0
  8 27  1  0  0  0  0
  8 28  1  0  0  0  0
  9 29  1  0  0  0  0
  9 30  1  0  0  0  0
 10 31  1  0  0  0  0
 10 32  1  0  0  0  0
 11 33  1  0  0  0  0
 11 34  1  0  0  0  0
 12 35  1  0  0  0  0
 14 36  1  0  0  0  0
 14 37  1  0  0  0  0
M  END
> <idnumber>
Z2504541558

> <heavy_atoms>
23

> <LogS>
-3.116

> <LogP>
2.803

> <rotating_bonds>
3

> <PSA>
71.29

> <hb_acceptors>
6

> <hb_donors>
0

> <Collection>
HTS

> <link>
https://www.enaminestore.com/catalog/Z2504541558

> <ROCS_ShapeQuery>
x0446_0A_x1080_0A_x0929_0A_x0812_0A_x0719_0A_x1140_0A_x0528_0A_x0310_0A

> <ROCS_TanimotoCombo>
0.468 

> <ROCS_ShapeTanimoto>
0.269 

> <ROCS_ColorTanimoto>
0.199 

> <ROCS_RefTversky>
0.241 

> <ROCS_RefColorTversky>
0.222 

> <ROCS_RefTverskyCombo>
0.463 

> <ROCS_FitTversky>
1.729 

> <ROCS_FitColorTversky>
0.663 

> <ROCS_FitTverskyCombo>
2.392 

> <ROCS_ColorScore>
-7.962

> <ROCS_Overlap>
2853.070

> <ROCS_Rank>
108                 

$$$$
untitled-dbase-1160757_47
  -OEChem-02092406493D

 54 58  0     1  0  0  0  0  0999 V2000
    7.4594   10.4964   23.8251 C   0  0  0  0  0  0  0  0  0  0  0  0
    9.0859   17.1315   21.7150 C   0  0  0  0  0  0  0  0  0  0  0  0
    7.6925   11.8757   23.9081 C   0  0  0  0  0  0  0  0  0  0  0  0
    9.0632   12.0023   23.9113 C   0  0  0  0  0  0  0  0  0  0  0  0
    7.5613   15.5879   21.7575 C   0  0  0  0  0  0  0  0  0  0  0  0
   11.7923   11.5234   23.8743 C   0  0  0  0  0  0  0  0  0  0  0  0
   10.9456   10.4920   23.8151 C   0  0  0  0  0  0  0  0  0  0  0  0
   11.1766   12.8945   23.9581 C   0  0  0  0  0  0  0  0  0  0  0  0
    4.4235   13.7757   20.8418 C   0  0  0  0  0  0  0  0  0  0  0  0
    5.4431   14.8668   20.5755 C   0  0  0  0  0  0  0  0  0  0  0  0
    5.2233   12.7267   21.6012 C   0  0  0  0  0  0  0  0  0  0  0  0
   12.9537   14.2601   23.0081 C   0  0  0  0  0  0  0  0  0  0  0  0
   11.5751   15.2803   24.2296 C   0  0  0  0  0  0  0  0  0  0  0  0
    6.2130   14.9260   21.8986 C   0  0  1  0  0  0  0  0  0  0  0  0
   12.8746   15.7246   23.5103 C   0  0  0  0  0  0  0  0  0  0  0  0
   14.0141   16.1481   24.4279 C   0  0  0  0  0  0  0  0  0  0  0  0
    6.7715   17.9288   22.2439 C   0  0  0  0  0  0  0  0  0  0  0  0
   13.7672   16.6689   21.5522 C   0  0  0  0  0  0  0  0  0  0  0  0
    8.5843    9.7836   23.7798 N   0  0  0  0  0  0  0  0  0  0  0  0
    9.6735   15.9889   21.4403 N   0  0  0  0  0  0  0  0  0  0  0  0
    8.7035   15.0067   21.4674 N   0  0  0  0  0  0  0  0  0  0  0  0
    9.8771   13.0921   23.9742 N   0  0  0  0  0  0  0  0  0  0  0  0
    7.7556   16.9258   21.9217 N   0  0  0  0  0  0  0  0  0  0  0  0
    9.5755   10.7111   23.8322 N   0  0  0  0  0  0  0  0  0  0  0  0
   12.0051   13.9438   24.0166 N   0  0  0  0  0  0  0  0  0  0  0  0
    6.2762   13.4905   22.3340 N   0  0  1  0  0  0  0  0  0  0  0  0
    5.2696   12.5953   24.5287 O   0  0  0  0  0  0  0  0  0  0  0  0
    7.1118   14.3114   24.6253 O   0  0  0  0  0  0  0  0  0  0  0  0
   12.6946   16.7098   22.4716 O   0  0  0  0  0  0  0  0  0  0  0  0
    6.4887   13.1665   23.9899 S   0  0  0  0  0  0  0  0  0  0  0  0
    6.5142    9.9731   23.7964 H   0  0  0  0  0  0  0  0  0  0  0  0
    9.5588   18.1014   21.7744 H   0  0  0  0  0  0  0  0  0  0  0  0
   12.8681   11.4097   23.8640 H   0  0  0  0  0  0  0  0  0  0  0  0
   11.2844    9.4651   23.7525 H   0  0  0  0  0  0  0  0  0  0  0  0
    3.6165   14.1639   21.4748 H   0  0  0  0  0  0  0  0  0  0  0  0
    3.9771   13.3781   19.9261 H   0  0  0  0  0  0  0  0  0  0  0  0
    6.0936   14.5762   19.7403 H   0  0  0  0  0  0  0  0  0  0  0  0
    4.9778   15.8248   20.3228 H   0  0  0  0  0  0  0  0  0  0  0  0
    4.5822   12.1507   22.2748 H   0  0  0  0  0  0  0  0  0  0  0  0
    5.7209   12.0348   20.9134 H   0  0  0  0  0  0  0  0  0  0  0  0
   12.5826   14.0953   21.9897 H   0  0  0  0  0  0  0  0  0  0  0  0
   13.9052   13.7386   23.1498 H   0  0  0  0  0  0  0  0  0  0  0  0
   11.4886   15.5286   25.2916 H   0  0  0  0  0  0  0  0  0  0  0  0
   10.6441   15.5303   23.7074 H   0  0  0  0  0  0  0  0  0  0  0  0
    5.5966   15.5041   22.6403 H   0  0  0  0  0  0  0  0  0  0  0  0
   13.8815   17.1863   24.7330 H   0  0  0  0  0  0  0  0  0  0  0  0
   14.9675   16.0517   23.9079 H   0  0  0  0  0  0  0  0  0  0  0  0
   14.0311   15.5177   25.3172 H   0  0  0  0  0  0  0  0  0  0  0  0
    6.3609   18.3119   21.3060 H   0  0  0  0  0  0  0  0  0  0  0  0
    5.9811   17.4810   22.8527 H   0  0  0  0  0  0  0  0  0  0  0  0
    7.2479   18.7334   22.8110 H   0  0  0  0  0  0  0  0  0  0  0  0
   13.6112   17.4216   20.7754 H   0  0  0  0  0  0  0  0  0  0  0  0
   13.8263   15.6740   21.1038 H   0  0  0  0  0  0  0  0  0  0  0  0
   14.6982   16.8833   22.0823 H   0  0  0  0  0  0  0  0  0  0  0  0
  1  3  1  0  0  0  0
  1 19  2  0  0  0  0
  2 20  2  0  0  0  0
  2 23  1  0  0  0  0
  3  4  2  0  0  0  0
  3 30  1  0  0  0  0
  4 22  1  0  0  0  0
  4 24  1  0  0  0  0
  5 14  1  6  0  0  0
  5 21  2  0  0  0  0
  5 23  1  0  0  0  0
  6  7  2  0  0  0  0
  6  8  1  0  0  0  0
  7 24  1  0  0  0  0
  8 22  2  0  0  0  0
  8 25  1  0  0  0  0
  9 10  1  0  0  0  0
  9 11  1  0  0  0  0
 10 14  1  0  0  0  0
 11 26  1  0  0  0  0
 12 15  1  0  0  0  0
 12 25  1  0  0  0  0
 13 15  1  0  0  0  0
 13 25  1  0  0  0  0
 14 26  1  0  0  0  0
 15 16  1  0  0  0  0
 15 29  1  0  0  0  0
 17 23  1  0  0  0  0
 18 29  1  0  0  0  0
 19 24  1  0  0  0  0
 20 21  1  0  0  0  0
 26 30  1  0  0  0  0
 27 30  2  0  0  0  0
 28 30  2  0  0  0  0
  1 31  1  0  0  0  0
  2 32  1  0  0  0  0
  6 33  1  0  0  0  0
  7 34  1  0  0  0  0
  9 35  1  0  0  0  0
  9 36  1  0  0  0  0
 10 37  1  0  0  0  0
 10 38  1  0  0  0  0
 11 39  1  0  0  0  0
 11 40  1  0  0  0  0
 12 41  1  0  0  0  0
 12 42  1  0  0  0  0
 13 43  1  0  0  0  0
 13 44  1  0  0  0  0
 14 45  1  0  0  0  0
 16 46  1  0  0  0  0
 16 47  1  0  0  0  0
 16 48  1  0  0  0  0
 17 49  1  0  0  0  0
 17 50  1  0  0  0  0
 17 51  1  0  0  0  0
 18 52  1  0  0  0  0
 18 53  1  0  0  0  0
 18 54  1  0  0  0  0
M  END
> <idnumber>
Z7932907991

> <heavy_atoms>
30

> <LogS>
-2.247

> <LogP>
-0.155

> <rotating_bonds>
4

> <PSA>
110.75

> <hb_acceptors>
8

> <hb_donors>
0

> <Collection>
Advanced

> <link>
https://www.enaminestore.com/catalog/Z7932907991

> <ROCS_ShapeQuery>
x0446_0A_x1080_0A_x0929_0A_x0812_0A_x0719_0A_x1140_0A_x0528_0A_x0310_0A

> <ROCS_TanimotoCombo>
0.468 

> <ROCS_ShapeTanimoto>
0.256 

> <ROCS_ColorTanimoto>
0.212 

> <ROCS_RefTversky>
0.237 

> <ROCS_RefColorTversky>
0.241 

> <ROCS_RefTverskyCombo>
0.478 

> <ROCS_FitTversky>
1.449 

> <ROCS_FitColorTversky>
0.639 

> <ROCS_FitTverskyCombo>
2.088 

> <ROCS_ColorScore>
-8.671

> <ROCS_Overlap>
2805.106

> <ROCS_Rank>
109                 

$$$$
untitled-dbase-1057557_41
  -OEChem-02092406493D

 36 38  0     1  0  0  0  0  0999 V2000
   12.7083   15.8041   22.3014 C   0  0  0  0  0  0  0  0  0  0  0  0
   12.9741   14.4358   22.3520 C   0  0  0  0  0  0  0  0  0  0  0  0
   11.4151   16.2540   22.0345 C   0  0  0  0  0  0  0  0  0  0  0  0
   11.9469   13.5173   22.1356 C   0  0  0  0  0  0  0  0  0  0  0  0
   10.3880   15.3355   21.8180 C   0  0  0  0  0  0  0  0  0  0  0  0
   10.6538   13.9671   21.8686 C   0  0  0  0  0  0  0  0  0  0  0  0
   10.1301   10.6490   23.9134 C   0  0  0  0  0  0  0  0  0  0  0  0
    8.8593   12.0990   25.4854 C   0  0  0  0  0  0  0  0  0  0  0  0
    7.4235   11.9630   24.9637 C   0  0  0  0  0  0  0  0  0  0  0  0
    7.7956   10.3500   23.0429 C   0  0  0  0  0  0  0  0  0  0  0  0
    9.7372   12.0800   24.2296 C   0  0  2  0  0  0  0  0  0  0  0  0
    7.5648   11.8084   23.4432 C   0  0  2  0  0  0  0  0  0  0  0  0
    8.2582   16.0209   22.6586 C   0  0  0  0  0  0  0  0  0  0  0  0
    9.1044    9.8470   23.4415 N   0  0  0  0  0  0  0  0  0  0  0  0
    8.8137   12.5743   23.1815 N   0  0  2  0  0  0  0  0  0  0  0  0
   11.2654   10.2300   24.1355 O   0  0  0  0  0  0  0  0  0  0  0  0
    8.3394   13.4270   20.8079 O   0  0  0  0  0  0  0  0  0  0  0  0
    9.9912   11.5545   21.1441 O   0  0  0  0  0  0  0  0  0  0  0  0
    9.1326   15.7973   21.5590 O   0  0  0  0  0  0  0  0  0  0  0  0
    8.7712   16.9343   23.5099 F   0  0  0  0  0  0  0  0  0  0  0  0
    8.1057   14.8601   23.3356 F   0  0  0  0  0  0  0  0  0  0  0  0
    7.0391   16.4196   22.2375 F   0  0  0  0  0  0  0  0  0  0  0  0
    9.3715   12.7839   21.5950 S   0  0  0  0  0  0  0  0  0  0  0  0
   13.5082   16.5190   22.4698 H   0  0  0  0  0  0  0  0  0  0  0  0
   13.9810   14.0859   22.5601 H   0  0  0  0  0  0  0  0  0  0  0  0
   11.2158   17.3216   21.9969 H   0  0  0  0  0  0  0  0  0  0  0  0
   12.1663   12.4538   22.1775 H   0  0  0  0  0  0  0  0  0  0  0  0
    8.9675   13.0528   26.0119 H   0  0  0  0  0  0  0  0  0  0  0  0
    9.1099   11.2988   26.1877 H   0  0  0  0  0  0  0  0  0  0  0  0
    6.8915   11.1277   25.4267 H   0  0  0  0  0  0  0  0  0  0  0  0
    6.8681   12.8777   25.1975 H   0  0  0  0  0  0  0  0  0  0  0  0
    7.0338    9.6859   23.4649 H   0  0  0  0  0  0  0  0  0  0  0  0
    7.7571   10.2520   21.9514 H   0  0  0  0  0  0  0  0  0  0  0  0
   10.6351   12.7008   24.3325 H   0  0  0  0  0  0  0  0  0  0  0  0
    6.6967   12.2209   22.9197 H   0  0  0  0  0  0  0  0  0  0  0  0
    9.2743    8.8484   23.3687 H   0  0  0  0  0  0  0  0  0  0  0  0
  1  2  1  0  0  0  0
  1  3  2  0  0  0  0
  2  4  2  0  0  0  0
  3  5  1  0  0  0  0
  4  6  1  0  0  0  0
  5  6  2  0  0  0  0
  5 19  1  0  0  0  0
  6 23  1  0  0  0  0
  7 11  1  0  0  0  0
  7 14  1  0  0  0  0
  7 16  2  0  0  0  0
  8  9  1  0  0  0  0
  8 11  1  0  0  0  0
  9 12  1  0  0  0  0
 10 12  1  0  0  0  0
 10 14  1  0  0  0  0
 11 15  1  0  0  0  0
 12 15  1  0  0  0  0
 13 19  1  0  0  0  0
 13 20  1  0  0  0  0
 13 21  1  0  0  0  0
 13 22  1  0  0  0  0
 15 23  1  0  0  0  0
 17 23  2  0  0  0  0
 18 23  2  0  0  0  0
  1 24  1  0  0  0  0
  2 25  1  0  0  0  0
  3 26  1  0  0  0  0
  4 27  1  0  0  0  0
  8 28  1  0  0  0  0
  8 29  1  0  0  0  0
  9 30  1  0  0  0  0
  9 31  1  0  0  0  0
 10 32  1  0  0  0  0
 10 33  1  0  0  0  0
 11 34  1  0  0  0  0
 12 35  1  0  0  0  0
 14 36  1  0  0  0  0
M  END
> <idnumber>
Z3792381698

> <heavy_atoms>
23

> <LogS>
-3.844

> <LogP>
2.059

> <rotating_bonds>
3

> <PSA>
75.71

> <hb_acceptors>
4

> <hb_donors>
1

> <Collection>
Advanced

> <link>
https://www.enaminestore.com/catalog/Z3792381698

> <ROCS_ShapeQuery>
x0446_0A_x1080_0A_x0929_0A_x0812_0A_x0719_0A_x1140_0A_x0528_0A_x0310_0A

> <ROCS_TanimotoCombo>
0.468 

> <ROCS_ShapeTanimoto>
0.250 

> <ROCS_ColorTanimoto>
0.218 

> <ROCS_RefTversky>
0.228 

> <ROCS_RefColorTversky>
0.244 

> <ROCS_RefTverskyCombo>
0.472 

> <ROCS_FitTversky>
1.667 

> <ROCS_FitColorTversky>
0.669 

> <ROCS_FitTverskyCombo>
2.336 

> <ROCS_ColorScore>
-8.762

> <ROCS_Overlap>
2689.479

> <ROCS_Rank>
110                 

$$$$
untitled-dbase-988362_31
  -OEChem-02092406493D

 55 59  0     1  0  0  0  0  0999 V2000
   10.6641   14.2873   22.5413 C   0  0  0  0  0  0  0  0  0  0  0  0
   11.9819   13.9326   22.9702 C   0  0  0  0  0  0  0  0  0  0  0  0
   12.9393   14.8139   22.5167 C   0  0  0  0  0  0  0  0  0  0  0  0
    9.4073   13.7097   22.7478 C   0  0  0  0  0  0  0  0  0  0  0  0
   10.6892   15.4417   21.7696 C   0  0  0  0  0  0  0  0  0  0  0  0
    8.4773   15.3935   21.4831 C   0  0  0  0  0  0  0  0  0  0  0  0
    9.8041   10.3725   24.0043 C   0  0  0  0  0  0  0  0  0  0  0  0
    7.8476   10.9669   22.5651 C   0  0  0  0  0  0  0  0  0  0  0  0
    9.1052   11.0252   25.2104 C   0  0  0  0  0  0  0  0  0  0  0  0
    7.1427   11.6231   23.7746 C   0  0  0  0  0  0  0  0  0  0  0  0
    5.6952   14.1345   20.9258 C   0  0  0  0  0  0  0  0  0  0  0  0
    4.8950   16.3675   21.3406 C   0  0  0  0  0  0  0  0  0  0  0  0
    4.4199   13.5897   21.5628 C   0  0  0  0  0  0  0  0  0  0  0  0
    3.6392   15.7701   21.9688 C   0  0  0  0  0  0  0  0  0  0  0  0
    9.3432   11.2564   22.8334 C   0  0  0  0  0  0  0  0  0  0  0  0
    8.3282   12.2129   24.5694 C   0  0  0  0  0  0  0  0  0  0  0  0
   12.3039   12.7514   23.8116 C   0  0  0  0  0  0  0  0  0  0  0  0
   14.4023   14.7952   22.7426 C   0  0  0  0  0  0  0  0  0  0  0  0
    7.2374   15.9896   20.9040 C   0  0  0  0  0  0  0  0  0  0  0  0
    7.9920   13.2655   25.6005 C   0  0  0  0  0  0  0  0  0  0  0  0
    8.3039   14.2728   22.2107 N   0  0  0  0  0  0  0  0  0  0  0  0
    9.6220   16.0449   21.2104 N   0  0  0  0  0  0  0  0  0  0  0  0
    9.2655   12.5662   23.4952 N   0  0  2  0  0  0  0  0  0  0  0  0
    6.0245   15.4427   21.5087 N   0  0  0  0  0  0  0  0  0  0  0  0
    3.3401   14.5056   21.3763 O   0  0  0  0  0  0  0  0  0  0  0  0
    7.2954   14.3307   24.9690 O   0  0  0  0  0  0  0  0  0  0  0  0
   12.2613   16.0698   21.5740 S   0  0  0  0  0  0  0  0  0  0  0  0
   10.8918   10.4132   24.1296 H   0  0  0  0  0  0  0  0  0  0  0  0
    9.5113    9.3248   23.8836 H   0  0  0  0  0  0  0  0  0  0  0  0
    7.6309    9.8960   22.4985 H   0  0  0  0  0  0  0  0  0  0  0  0
    7.5196   11.4459   21.6355 H   0  0  0  0  0  0  0  0  0  0  0  0
    8.4362   10.3225   25.7231 H   0  0  0  0  0  0  0  0  0  0  0  0
    9.8483   11.3759   25.9391 H   0  0  0  0  0  0  0  0  0  0  0  0
    6.4584   12.4014   23.4233 H   0  0  0  0  0  0  0  0  0  0  0  0
    6.5692   10.8902   24.3474 H   0  0  0  0  0  0  0  0  0  0  0  0
    6.5101   13.4267   21.1025 H   0  0  0  0  0  0  0  0  0  0  0  0
    5.5484   14.2298   19.8444 H   0  0  0  0  0  0  0  0  0  0  0  0
    4.7153   16.5542   20.2762 H   0  0  0  0  0  0  0  0  0  0  0  0
    5.1134   17.3225   21.8269 H   0  0  0  0  0  0  0  0  0  0  0  0
    4.1410   12.6442   21.0865 H   0  0  0  0  0  0  0  0  0  0  0  0
    4.5544   13.3952   22.6337 H   0  0  0  0  0  0  0  0  0  0  0  0
    3.7464   15.6495   23.0538 H   0  0  0  0  0  0  0  0  0  0  0  0
    2.7839   16.4302   21.7926 H   0  0  0  0  0  0  0  0  0  0  0  0
    9.9697   11.2041   21.9390 H   0  0  0  0  0  0  0  0  0  0  0  0
   12.5101   11.8731   23.1842 H   0  0  0  0  0  0  0  0  0  0  0  0
   13.1837   12.9344   24.4456 H   0  0  0  0  0  0  0  0  0  0  0  0
   11.4756   12.5011   24.4908 H   0  0  0  0  0  0  0  0  0  0  0  0
   14.9141   14.2203   21.9556 H   0  0  0  0  0  0  0  0  0  0  0  0
   14.8283   15.8112   22.7513 H   0  0  0  0  0  0  0  0  0  0  0  0
   14.6608   14.3442   23.7141 H   0  0  0  0  0  0  0  0  0  0  0  0
    7.2176   17.0783   21.0494 H   0  0  0  0  0  0  0  0  0  0  0  0
    7.1737   15.8120   19.8221 H   0  0  0  0  0  0  0  0  0  0  0  0
    8.9037   13.6656   26.0571 H   0  0  0  0  0  0  0  0  0  0  0  0
    7.3543   12.8479   26.3871 H   0  0  0  0  0  0  0  0  0  0  0  0
    7.0972   14.9844   25.6591 H   0  0  0  0  0  0  0  0  0  0  0  0
  1  2  1  0  0  0  0
  1  4  1  0  0  0  0
  1  5  2  0  0  0  0
  2  3  2  0  0  0  0
  2 17  1  0  0  0  0
  3 18  1  0  0  0  0
  3 27  1  0  0  0  0
  4 21  2  0  0  0  0
  4 23  1  0  0  0  0
  5 22  1  0  0  0  0
  5 27  1  0  0  0  0
  6 19  1  0  0  0  0
  6 21  1  0  0  0  0
  6 22  2  0  0  0  0
  7  9  1  0  0  0  0
  7 15  1  0  0  0  0
  8 10  1  0  0  0  0
  8 15  1  0  0  0  0
  9 16  1  0  0  0  0
 10 16  1  0  0  0  0
 11 13  1  0  0  0  0
 11 24  1  0  0  0  0
 12 14  1  0  0  0  0
 12 24  1  0  0  0  0
 13 25  1  0  0  0  0
 14 25  1  0  0  0  0
 15 23  1  0  0  0  0
 16 20  1  0  0  0  0
 16 23  1  0  0  0  0
 19 24  1  0  0  0  0
 20 26  1  0  0  0  0
  7 28  1  0  0  0  0
  7 29  1  0  0  0  0
  8 30  1  0  0  0  0
  8 31  1  0  0  0  0
  9 32  1  0  0  0  0
  9 33  1  0  0  0  0
 10 34  1  0  0  0  0
 10 35  1  0  0  0  0
 11 36  1  0  0  0  0
 11 37  1  0  0  0  0
 12 38  1  0  0  0  0
 12 39  1  0  0  0  0
 13 40  1  0  0  0  0
 13 41  1  0  0  0  0
 14 42  1  0  0  0  0
 14 43  1  0  0  0  0
 15 44  1  0  0  0  0
 17 45  1  0  0  0  0
 17 46  1  0  0  0  0
 17 47  1  0  0  0  0
 18 48  1  0  0  0  0
 18 49  1  0  0  0  0
 18 50  1  0  0  0  0
 19 51  1  0  0  0  0
 19 52  1  0  0  0  0
 20 53  1  0  0  0  0
 20 54  1  0  0  0  0
 26 55  1  0  0  0  0
M  END
> <idnumber>
Z2975119583

> <heavy_atoms>
27

> <LogS>
-3.716

> <LogP>
2.213

> <rotating_bonds>
4

> <PSA>
61.72

> <hb_acceptors>
6

> <hb_donors>
1

> <Collection>
Advanced

> <link>
https://www.enaminestore.com/catalog/Z2975119583

> <ROCS_ShapeQuery>
x0446_0A_x1080_0A_x0929_0A_x0812_0A_x0719_0A_x1140_0A_x0528_0A_x0310_0A

> <ROCS_TanimotoCombo>
0.468 

> <ROCS_ShapeTanimoto>
0.268 

> <ROCS_ColorTanimoto>
0.200 

> <ROCS_RefTversky>
0.244 

> <ROCS_RefColorTversky>
0.243 

> <ROCS_RefTverskyCombo>
0.486 

> <ROCS_FitTversky>
1.606 

> <ROCS_FitColorTversky>
0.532 

> <ROCS_FitTverskyCombo>
2.137 

> <ROCS_ColorScore>
-8.757

> <ROCS_Overlap>
2879.925

> <ROCS_Rank>
111                 

$$$$
untitled-dbase-449821_1
  -OEChem-02092406493D

 44 48  0     0  0  0  0  0  0999 V2000
    5.4713   15.7807   24.5030 C   0  0  0  0  0  0  0  0  0  0  0  0
    6.7687   15.6965   23.9978 C   0  0  0  0  0  0  0  0  0  0  0  0
    4.3901   15.3777   23.7192 C   0  0  0  0  0  0  0  0  0  0  0  0
    5.9037   14.8064   21.9250 C   0  0  0  0  0  0  0  0  0  0  0  0
   10.2598   14.5129   21.6440 C   0  0  0  0  0  0  0  0  0  0  0  0
    6.9849   15.2094   22.7088 C   0  0  0  0  0  0  0  0  0  0  0  0
    4.6063   14.8906   22.4302 C   0  0  0  0  0  0  0  0  0  0  0  0
    9.1374   14.0722   22.2991 C   0  0  0  0  0  0  0  0  0  0  0  0
    9.3914   10.7440   25.0801 C   0  0  0  0  0  0  0  0  0  0  0  0
    8.4971    9.8214   22.9275 C   0  0  0  0  0  0  0  0  0  0  0  0
    6.9701   11.0353   24.5013 C   0  0  0  0  0  0  0  0  0  0  0  0
   10.0283   11.8049   22.9010 C   0  0  0  0  0  0  0  0  0  0  0  0
    8.5098   13.0157   24.4861 C   0  0  0  0  0  0  0  0  0  0  0  0
    7.6073   12.0845   22.3135 C   0  0  0  0  0  0  0  0  0  0  0  0
    9.7118   10.4730   23.6034 C   0  0  0  0  0  0  0  0  0  0  0  0
    8.1833   11.6851   25.1867 C   0  0  0  0  0  0  0  0  0  0  0  0
    7.2841   10.7573   23.0221 C   0  0  0  0  0  0  0  0  0  0  0  0
    8.8249   12.7929   22.9774 C   0  0  0  0  0  0  0  0  0  0  0  0
   10.0541   15.7841   21.1843 N   0  0  0  0  0  0  0  0  0  0  0  0
    8.8273   16.1522   21.5371 N   0  0  0  0  0  0  0  0  0  0  0  0
    8.2794   15.1245   22.2056 N   0  0  0  0  0  0  0  0  0  0  0  0
    3.5129   14.4827   21.6380 N   0  0  0  0  0  0  0  0  0  0  0  0
    5.3029   16.1597   25.5067 H   0  0  0  0  0  0  0  0  0  0  0  0
    7.6023   16.0130   24.6200 H   0  0  0  0  0  0  0  0  0  0  0  0
    3.3829   15.4478   24.1228 H   0  0  0  0  0  0  0  0  0  0  0  0
    6.0692   14.4255   20.9191 H   0  0  0  0  0  0  0  0  0  0  0  0
   11.1909   13.9920   21.4801 H   0  0  0  0  0  0  0  0  0  0  0  0
    9.1791    9.8002   25.5975 H   0  0  0  0  0  0  0  0  0  0  0  0
   10.2610   11.1909   25.5775 H   0  0  0  0  0  0  0  0  0  0  0  0
    8.7234    9.6045   21.8763 H   0  0  0  0  0  0  0  0  0  0  0  0
    8.2697    8.8620   23.4085 H   0  0  0  0  0  0  0  0  0  0  0  0
    6.7108   10.0988   25.0105 H   0  0  0  0  0  0  0  0  0  0  0  0
    6.0962   11.6935   24.5822 H   0  0  0  0  0  0  0  0  0  0  0  0
   10.9173   12.2599   23.3588 H   0  0  0  0  0  0  0  0  0  0  0  0
   10.2911   11.6138   21.8516 H   0  0  0  0  0  0  0  0  0  0  0  0
    7.6613   13.7050   24.5932 H   0  0  0  0  0  0  0  0  0  0  0  0
    9.3621   13.4974   24.9841 H   0  0  0  0  0  0  0  0  0  0  0  0
    7.8111   11.8971   21.2506 H   0  0  0  0  0  0  0  0  0  0  0  0
    6.7281   12.7421   22.3468 H   0  0  0  0  0  0  0  0  0  0  0  0
   10.5769    9.8043   23.5306 H   0  0  0  0  0  0  0  0  0  0  0  0
    7.9536   11.8722   26.2417 H   0  0  0  0  0  0  0  0  0  0  0  0
    6.4175   10.2873   22.5439 H   0  0  0  0  0  0  0  0  0  0  0  0
    2.5928   14.5034   22.0289 H   0  0  0  0  0  0  0  0  0  0  0  0
    3.6849   14.0915   20.7340 H   0  0  0  0  0  0  0  0  0  0  0  0
  1  2  1  0  0  0  0
  1  3  2  0  0  0  0
  2  6  2  0  0  0  0
  3  7  1  0  0  0  0
  4  6  1  0  0  0  0
  4  7  2  0  0  0  0
  5  8  2  0  0  0  0
  5 19  1  0  0  0  0
  6 21  1  0  0  0  0
  7 22  1  0  0  0  0
  8 18  1  0  0  0  0
  8 21  1  0  0  0  0
  9 15  1  0  0  0  0
  9 16  1  0  0  0  0
 10 15  1  0  0  0  0
 10 17  1  0  0  0  0
 11 16  1  0  0  0  0
 11 17  1  0  0  0  0
 12 15  1  0  0  0  0
 12 18  1  0  0  0  0
 13 16  1  0  0  0  0
 13 18  1  0  0  0  0
 14 17  1  0  0  0  0
 14 18  1  0  0  0  0
 19 20  2  0  0  0  0
 20 21  1  0  0  0  0
  1 23  1  0  0  0  0
  2 24  1  0  0  0  0
  3 25  1  0  0  0  0
  4 26  1  0  0  0  0
  5 27  1  0  0  0  0
  9 28  1  0  0  0  0
  9 29  1  0  0  0  0
 10 30  1  0  0  0  0
 10 31  1  0  0  0  0
 11 32  1  0  0  0  0
 11 33  1  0  0  0  0
 12 34  1  0  0  0  0
 12 35  1  0  0  0  0
 13 36  1  0  0  0  0
 13 37  1  0  0  0  0
 14 38  1  0  0  0  0
 14 39  1  0  0  0  0
 15 40  1  0  0  0  0
 16 41  1  0  0  0  0
 17 42  1  0  0  0  0
 22 43  1  0  0  0  0
 22 44  1  0  0  0  0
M  END
> <idnumber>
Z56821067

> <heavy_atoms>
22

> <LogS>
-4.41

> <LogP>
4.929

> <rotating_bonds>
2

> <PSA>
56.73

> <hb_acceptors>
3

> <hb_donors>
1

> <Collection>
Legacy

> <link>
https://www.enaminestore.com/catalog/Z56821067

> <ROCS_ShapeQuery>
x0446_0A_x1080_0A_x0929_0A_x0812_0A_x0719_0A_x1140_0A_x0528_0A_x0310_0A

> <ROCS_TanimotoCombo>
0.468 

> <ROCS_ShapeTanimoto>
0.235 

> <ROCS_ColorTanimoto>
0.233 

> <ROCS_RefTversky>
0.216 

> <ROCS_RefColorTversky>
0.262 

> <ROCS_RefTverskyCombo>
0.479 

> <ROCS_FitTversky>
1.594 

> <ROCS_FitColorTversky>
0.673 

> <ROCS_FitTverskyCombo>
2.267 

> <ROCS_ColorScore>
-9.441

> <ROCS_Overlap>
2553.677

> <ROCS_Rank>
112                 

$$$$
untitled-dbase-324062_81
  -OEChem-02092406493D

 54 58  0     0  0  0  0  0  0999 V2000
   11.8283   16.1089   21.7494 C   0  0  0  0  0  0  0  0  0  0  0  0
   11.9195   13.6502   23.1759 C   0  0  0  0  0  0  0  0  0  0  0  0
    8.7286   14.4477   21.7374 C   0  0  0  0  0  0  0  0  0  0  0  0
    8.0047   12.3398   23.9389 C   0  0  0  0  0  0  0  0  0  0  0  0
   13.0092   15.6717   22.3626 C   0  0  0  0  0  0  0  0  0  0  0  0
   13.0517   14.4638   23.0626 C   0  0  0  0  0  0  0  0  0  0  0  0
    7.1883   13.3508   24.5367 C   0  0  0  0  0  0  0  0  0  0  0  0
   10.6813   15.3040   21.8530 C   0  0  0  0  0  0  0  0  0  0  0  0
   10.7548   14.1056   22.5573 C   0  0  0  0  0  0  0  0  0  0  0  0
    6.2651   12.8309   25.4179 C   0  0  0  0  0  0  0  0  0  0  0  0
    9.0489   12.3845   23.0096 C   0  0  0  0  0  0  0  0  0  0  0  0
    7.6527   11.0800   24.4058 C   0  0  0  0  0  0  0  0  0  0  0  0
    9.2102   10.0923   23.1505 C   0  0  0  0  0  0  0  0  0  0  0  0
   11.5834    9.4600   24.3084 C   0  0  0  0  0  0  0  0  0  0  0  0
   12.0664    9.6309   21.9555 C   0  0  0  0  0  0  0  0  0  0  0  0
   13.0830    9.4924   24.5895 C   0  0  0  0  0  0  0  0  0  0  0  0
   13.5546    9.6581   22.2920 C   0  0  0  0  0  0  0  0  0  0  0  0
   14.2290   16.5292   22.2495 C   0  0  0  0  0  0  0  0  0  0  0  0
   14.3200   14.0089   23.7125 C   0  0  0  0  0  0  0  0  0  0  0  0
    7.3049   14.8052   24.2559 C   0  0  0  0  0  0  0  0  0  0  0  0
    5.2506   13.5412   26.2289 C   0  0  0  0  0  0  0  0  0  0  0  0
    9.9059    8.8452   22.6871 C   0  0  0  0  0  0  0  0  0  0  0  0
    9.4150   15.4996   21.3511 N   0  0  0  0  0  0  0  0  0  0  0  0
    9.6558   11.2451   22.6138 N   0  0  0  0  0  0  0  0  0  0  0  0
    8.2226    9.9133   24.0459 N   0  0  0  0  0  0  0  0  0  0  0  0
    9.4917   13.5791   22.4670 N   0  0  0  0  0  0  0  0  0  0  0  0
   11.3368    8.8751   22.9830 N   0  0  0  0  0  0  0  0  0  0  0  0
   13.7625   10.2395   23.5797 O   0  0  0  0  0  0  0  0  0  0  0  0
    6.3736   11.1276   25.5309 S   0  0  0  0  0  0  0  0  0  0  0  0
   11.7943   17.0478   21.2048 H   0  0  0  0  0  0  0  0  0  0  0  0
   11.9470   12.7109   23.7181 H   0  0  0  0  0  0  0  0  0  0  0  0
    7.6840   14.2671   21.5192 H   0  0  0  0  0  0  0  0  0  0  0  0
   11.0882    8.8653   25.0844 H   0  0  0  0  0  0  0  0  0  0  0  0
   11.1820   10.4808   24.3538 H   0  0  0  0  0  0  0  0  0  0  0  0
   11.6863   10.6593   21.8980 H   0  0  0  0  0  0  0  0  0  0  0  0
   11.9331    9.1636   20.9731 H   0  0  0  0  0  0  0  0  0  0  0  0
   13.2706    9.9830   25.5501 H   0  0  0  0  0  0  0  0  0  0  0  0
   13.5056    8.4819   24.6444 H   0  0  0  0  0  0  0  0  0  0  0  0
   13.9941    8.6533   22.2689 H   0  0  0  0  0  0  0  0  0  0  0  0
   14.0913   10.2705   21.5604 H   0  0  0  0  0  0  0  0  0  0  0  0
   14.2715   17.2379   23.0837 H   0  0  0  0  0  0  0  0  0  0  0  0
   15.1410   15.9209   22.2587 H   0  0  0  0  0  0  0  0  0  0  0  0
   14.2290   17.0930   21.3091 H   0  0  0  0  0  0  0  0  0  0  0  0
   14.9063   13.4032   23.0131 H   0  0  0  0  0  0  0  0  0  0  0  0
   14.9273   14.8635   24.0323 H   0  0  0  0  0  0  0  0  0  0  0  0
   14.1116   13.4103   24.6069 H   0  0  0  0  0  0  0  0  0  0  0  0
    6.6573   15.0907   23.4153 H   0  0  0  0  0  0  0  0  0  0  0  0
    7.0200   15.4095   25.1294 H   0  0  0  0  0  0  0  0  0  0  0  0
    8.3381   15.0865   24.0044 H   0  0  0  0  0  0  0  0  0  0  0  0
    4.3026   13.6357   25.6776 H   0  0  0  0  0  0  0  0  0  0  0  0
    5.0416   13.0161   27.1747 H   0  0  0  0  0  0  0  0  0  0  0  0
    5.5839   14.5543   26.5059 H   0  0  0  0  0  0  0  0  0  0  0  0
    9.4793    7.9614   23.1739 H   0  0  0  0  0  0  0  0  0  0  0  0
    9.7903    8.7091   21.6067 H   0  0  0  0  0  0  0  0  0  0  0  0
  1  5  2  0  0  0  0
  1  8  1  0  0  0  0
  2  6  2  0  0  0  0
  2  9  1  0  0  0  0
  3 23  2  0  0  0  0
  3 26  1  0  0  0  0
  4  7  1  0  0  0  0
  4 11  1  0  0  0  0
  4 12  2  0  0  0  0
  5  6  1  0  0  0  0
  5 18  1  0  0  0  0
  6 19  1  0  0  0  0
  7 10  2  0  0  0  0
  7 20  1  0  0  0  0
  8  9  2  0  0  0  0
  8 23  1  0  0  0  0
  9 26  1  0  0  0  0
 10 21  1  0  0  0  0
 10 29  1  0  0  0  0
 11 24  2  0  0  0  0
 11 26  1  0  0  0  0
 12 25  1  0  0  0  0
 12 29  1  0  0  0  0
 13 22  1  0  0  0  0
 13 24  1  0  0  0  0
 13 25  2  0  0  0  0
 14 16  1  0  0  0  0
 14 27  1  0  0  0  0
 15 17  1  0  0  0  0
 15 27  1  0  0  0  0
 16 28  1  0  0  0  0
 17 28  1  0  0  0  0
 22 27  1  0  0  0  0
  1 30  1  0  0  0  0
  2 31  1  0  0  0  0
  3 32  1  0  0  0  0
 14 33  1  0  0  0  0
 14 34  1  0  0  0  0
 15 35  1  0  0  0  0
 15 36  1  0  0  0  0
 16 37  1  0  0  0  0
 16 38  1  0  0  0  0
 17 39  1  0  0  0  0
 17 40  1  0  0  0  0
 18 41  1  0  0  0  0
 18 42  1  0  0  0  0
 18 43  1  0  0  0  0
 19 44  1  0  0  0  0
 19 45  1  0  0  0  0
 19 46  1  0  0  0  0
 20 47  1  0  0  0  0
 20 48  1  0  0  0  0
 20 49  1  0  0  0  0
 21 50  1  0  0  0  0
 21 51  1  0  0  0  0
 21 52  1  0  0  0  0
 22 53  1  0  0  0  0
 22 54  1  0  0  0  0
M  END
> <idnumber>
Z31160162

> <heavy_atoms>
29

> <LogS>
-5.94

> <LogP>
4.158

> <rotating_bonds>
3

> <PSA>
56.07

> <hb_acceptors>
5

> <hb_donors>
0

> <Collection>
HTS

> <link>
https://www.enaminestore.com/catalog/Z31160162

> <ROCS_ShapeQuery>
x0446_0A_x1080_0A_x0929_0A_x0812_0A_x0719_0A_x1140_0A_x0528_0A_x0310_0A

> <ROCS_TanimotoCombo>
0.468 

> <ROCS_ShapeTanimoto>
0.294 

> <ROCS_ColorTanimoto>
0.174 

> <ROCS_RefTversky>
0.264 

> <ROCS_RefColorTversky>
0.199 

> <ROCS_RefTverskyCombo>
0.463 

> <ROCS_FitTversky>
1.644 

> <ROCS_FitColorTversky>
0.578 

> <ROCS_FitTverskyCombo>
2.222 

> <ROCS_ColorScore>
-7.141

> <ROCS_Overlap>
3118.714

> <ROCS_Rank>
113                 

$$$$
untitled-dbase-1153896_100
  -OEChem-02092406493D

 51 54  0     1  0  0  0  0  0999 V2000
    6.3778   14.7334   24.4832 C   0  0  0  0  0  0  0  0  0  0  0  0
    5.9068   15.9088   23.8982 C   0  0  0  0  0  0  0  0  0  0  0  0
    4.8738   13.4429   23.1014 C   0  0  0  0  0  0  0  0  0  0  0  0
   11.8096   15.4787   23.6247 C   0  0  0  0  0  0  0  0  0  0  0  0
    5.8613   13.5004   24.0848 C   0  0  0  0  0  0  0  0  0  0  0  0
   11.7923   14.1349   23.2057 C   0  0  0  0  0  0  0  0  0  0  0  0
    4.9193   15.8512   22.9148 C   0  0  0  0  0  0  0  0  0  0  0  0
    4.4028   14.6183   22.5163 C   0  0  0  0  0  0  0  0  0  0  0  0
   12.1848   14.1803   21.8903 C   0  0  0  0  0  0  0  0  0  0  0  0
    6.3570   12.2631   24.7014 C   0  0  0  0  0  0  0  0  0  0  0  0
   11.4413   12.9290   23.9684 C   0  0  0  0  0  0  0  0  0  0  0  0
    8.8290    9.8040   23.8033 C   0  0  0  0  0  0  0  0  0  0  0  0
    8.5474   10.4545   22.4356 C   0  0  0  0  0  0  0  0  0  0  0  0
    9.5916   11.8034   25.1537 C   0  0  0  0  0  0  0  0  0  0  0  0
    9.1291   12.8722   22.9047 C   0  0  0  0  0  0  0  0  0  0  0  0
    8.4180   10.8647   24.8310 C   0  0  1  0  0  0  0  0  0  0  0  0
    7.9909   11.8445   22.7708 C   0  0  2  0  0  0  0  0  0  0  0  0
    4.4275   17.1194   22.2993 C   0  0  0  0  0  0  0  0  0  0  0  0
   12.3650   13.1124   20.8877 C   0  0  0  0  0  0  0  0  0  0  0  0
   12.8305   16.0594   20.3514 C   0  0  0  0  0  0  0  0  0  0  0  0
   12.1836   16.3167   22.6542 N   0  0  0  0  0  0  0  0  0  0  0  0
   12.4051   15.4973   21.6123 N   0  0  0  0  0  0  0  0  0  0  0  0
   10.1044   12.5115   23.9630 N   0  0  0  0  0  0  0  0  0  0  0  0
    7.4382   11.6456   24.1020 N   0  0  0  0  0  0  0  0  0  0  0  0
    5.7786   11.8653   25.7100 O   0  0  0  0  0  0  0  0  0  0  0  0
   12.3617   12.3714   24.5643 O   0  0  0  0  0  0  0  0  0  0  0  0
    3.4384   14.5445   21.5568 O   0  0  0  0  0  0  0  0  0  0  0  0
    7.1473   14.7894   25.2489 H   0  0  0  0  0  0  0  0  0  0  0  0
    6.3152   16.8646   24.2153 H   0  0  0  0  0  0  0  0  0  0  0  0
    4.4685   12.4837   22.7879 H   0  0  0  0  0  0  0  0  0  0  0  0
   11.5669   15.8839   24.5969 H   0  0  0  0  0  0  0  0  0  0  0  0
    8.2074    8.9075   23.9124 H   0  0  0  0  0  0  0  0  0  0  0  0
    9.8761    9.4994   23.9003 H   0  0  0  0  0  0  0  0  0  0  0  0
    9.4465   10.4940   21.8122 H   0  0  0  0  0  0  0  0  0  0  0  0
    7.7951    9.8618   21.9020 H   0  0  0  0  0  0  0  0  0  0  0  0
    9.2742   12.5752   25.8658 H   0  0  0  0  0  0  0  0  0  0  0  0
   10.4084   11.2450   25.6249 H   0  0  0  0  0  0  0  0  0  0  0  0
    9.6433   12.9786   21.9441 H   0  0  0  0  0  0  0  0  0  0  0  0
    8.7239   13.8556   23.1723 H   0  0  0  0  0  0  0  0  0  0  0  0
    8.0010   10.4322   25.7455 H   0  0  0  0  0  0  0  0  0  0  0  0
    7.2443   12.1811   22.0466 H   0  0  0  0  0  0  0  0  0  0  0  0
    5.0281   17.3723   21.4177 H   0  0  0  0  0  0  0  0  0  0  0  0
    3.3777   17.0309   21.9930 H   0  0  0  0  0  0  0  0  0  0  0  0
    4.4828   17.9532   23.0105 H   0  0  0  0  0  0  0  0  0  0  0  0
   11.4325   12.9306   20.3286 H   0  0  0  0  0  0  0  0  0  0  0  0
   13.1518   13.3609   20.1549 H   0  0  0  0  0  0  0  0  0  0  0  0
   12.6700   12.1578   21.3499 H   0  0  0  0  0  0  0  0  0  0  0  0
   11.9362   16.2960   19.7688 H   0  0  0  0  0  0  0  0  0  0  0  0
   13.4172   16.9637   20.5354 H   0  0  0  0  0  0  0  0  0  0  0  0
   13.4513   15.3312   19.8222 H   0  0  0  0  0  0  0  0  0  0  0  0
    3.1925   13.6195   21.3993 H   0  0  0  0  0  0  0  0  0  0  0  0
  1  2  2  0  0  0  0
  1  5  1  0  0  0  0
  2  7  1  0  0  0  0
  3  5  2  0  0  0  0
  3  8  1  0  0  0  0
  4  6  1  0  0  0  0
  4 21  2  0  0  0  0
  5 10  1  0  0  0  0
  6  9  2  0  0  0  0
  6 11  1  0  0  0  0
  7  8  2  0  0  0  0
  7 18  1  0  0  0  0
  8 27  1  0  0  0  0
  9 19  1  0  0  0  0
  9 22  1  0  0  0  0
 10 24  1  0  0  0  0
 10 25  2  0  0  0  0
 11 23  1  0  0  0  0
 11 26  2  0  0  0  0
 12 13  1  0  0  0  0
 12 16  1  0  0  0  0
 13 17  1  0  0  0  0
 14 16  1  0  0  0  0
 14 23  1  0  0  0  0
 15 17  1  0  0  0  0
 15 23  1  0  0  0  0
 16 24  1  0  0  0  0
 17 24  1  0  0  0  0
 20 22  1  0  0  0  0
 21 22  1  0  0  0  0
  1 28  1  0  0  0  0
  2 29  1  0  0  0  0
  3 30  1  0  0  0  0
  4 31  1  0  0  0  0
 12 32  1  0  0  0  0
 12 33  1  0  0  0  0
 13 34  1  0  0  0  0
 13 35  1  0  0  0  0
 14 36  1  0  0  0  0
 14 37  1  0  0  0  0
 15 38  1  0  0  0  0
 15 39  1  0  0  0  0
 16 40  1  0  0  0  0
 17 41  1  0  0  0  0
 18 42  1  0  0  0  0
 18 43  1  0  0  0  0
 18 44  1  0  0  0  0
 19 45  1  0  0  0  0
 19 46  1  0  0  0  0
 19 47  1  0  0  0  0
 20 48  1  0  0  0  0
 20 49  1  0  0  0  0
 20 50  1  0  0  0  0
 27 51  1  0  0  0  0
M  END
> <idnumber>
Z7371384445

> <heavy_atoms>
27

> <LogS>
-3.024

> <LogP>
1.247

> <rotating_bonds>
2

> <PSA>
78.67

> <hb_acceptors>
4

> <hb_donors>
1

> <Collection>
Advanced

> <link>
https://www.enaminestore.com/catalog/Z7371384445

> <ROCS_ShapeQuery>
x0446_0A_x1080_0A_x0929_0A_x0812_0A_x0719_0A_x1140_0A_x0528_0A_x0310_0A

> <ROCS_TanimotoCombo>
0.467 

> <ROCS_ShapeTanimoto>
0.249 

> <ROCS_ColorTanimoto>
0.219 

> <ROCS_RefTversky>
0.230 

> <ROCS_RefColorTversky>
0.250 

> <ROCS_RefTverskyCombo>
0.479 

> <ROCS_FitTversky>
1.504 

> <ROCS_FitColorTversky>
0.638 

> <ROCS_FitTverskyCombo>
2.142 

> <ROCS_ColorScore>
-8.979

> <ROCS_Overlap>
2714.837

> <ROCS_Rank>
114                 

$$$$
untitled-dbase-566296_37
  -OEChem-02092406493D

 52 56  0     1  0  0  0  0  0999 V2000
    5.8931   12.9184   25.5479 C   0  0  0  0  0  0  0  0  0  0  0  0
    5.3255   11.6679   25.2900 C   0  0  0  0  0  0  0  0  0  0  0  0
    7.2248   13.1934   25.2088 C   0  0  0  0  0  0  0  0  0  0  0  0
    7.8487   17.4947   20.6081 C   0  0  0  0  0  0  0  0  0  0  0  0
    6.0633   10.6457   24.6854 C   0  0  0  0  0  0  0  0  0  0  0  0
    9.2320   17.4954   20.4675 C   0  0  0  0  0  0  0  0  0  0  0  0
    8.0005   15.3289   21.5791 C   0  0  0  0  0  0  0  0  0  0  0  0
    7.9869   12.1820   24.6002 C   0  0  0  0  0  0  0  0  0  0  0  0
    7.2135   16.3947   21.1735 C   0  0  0  0  0  0  0  0  0  0  0  0
    9.3010   12.0400   24.1188 C   0  0  0  0  0  0  0  0  0  0  0  0
    7.3853   10.9425   24.3576 C   0  0  0  0  0  0  0  0  0  0  0  0
    9.4254   10.7695   23.6270 C   0  0  0  0  0  0  0  0  0  0  0  0
    9.9287   16.3804   20.9049 C   0  0  0  0  0  0  0  0  0  0  0  0
   10.6127   10.2341   23.0477 C   0  0  0  0  0  0  0  0  0  0  0  0
   11.4384   12.4978   23.5777 C   0  0  0  0  0  0  0  0  0  0  0  0
   12.5729   16.9920   22.8032 C   0  0  0  0  0  0  0  0  0  0  0  0
   12.1625   17.4106   21.3919 C   0  0  0  0  0  0  0  0  0  0  0  0
   13.2678   15.6230   22.8959 C   0  0  0  0  0  0  0  0  0  0  0  0
   12.0514   15.2462   20.2250 C   0  0  0  0  0  0  0  0  0  0  0  0
   12.1864   14.1190   21.2578 C   0  0  0  0  0  0  0  0  0  0  0  0
   12.6695   13.3538   23.4814 C   0  0  0  0  0  0  0  0  0  0  0  0
    5.7354   16.3636   21.3367 C   0  0  0  0  0  0  0  0  0  0  0  0
    9.3466   15.2933   21.4589 N   0  0  0  0  0  0  0  0  0  0  0  0
   10.3445   12.9743   24.1083 N   0  0  0  0  0  0  0  0  0  0  0  0
   11.6179   11.2041   23.0613 N   0  0  0  0  0  0  0  0  0  0  0  0
   11.3149   16.3966   20.7577 N   0  0  3  0  0  0  0  0  0  0  0  0
   12.3243   14.5214   22.6678 N   0  0  1  0  0  0  0  0  0  0  0  0
   10.7415    9.0992   22.6038 O   0  0  0  0  0  0  0  0  0  0  0  0
    8.2688   10.0791   23.7616 O   0  0  0  0  0  0  0  0  0  0  0  0
    5.1069   17.4916   20.8860 F   0  0  0  0  0  0  0  0  0  0  0  0
    5.1294   15.3334   20.6722 F   0  0  0  0  0  0  0  0  0  0  0  0
    5.3497   16.2305   22.6408 F   0  0  0  0  0  0  0  0  0  0  0  0
    5.2924   13.6922   26.0195 H   0  0  0  0  0  0  0  0  0  0  0  0
    4.2894   11.4854   25.5647 H   0  0  0  0  0  0  0  0  0  0  0  0
    7.6508   14.1704   25.4158 H   0  0  0  0  0  0  0  0  0  0  0  0
    7.2740   18.3545   20.2746 H   0  0  0  0  0  0  0  0  0  0  0  0
    5.6279    9.6743   24.4833 H   0  0  0  0  0  0  0  0  0  0  0  0
    9.7359   18.3497   20.0270 H   0  0  0  0  0  0  0  0  0  0  0  0
    7.5612   14.4428   22.0268 H   0  0  0  0  0  0  0  0  0  0  0  0
   13.2761   17.7509   23.1759 H   0  0  0  0  0  0  0  0  0  0  0  0
   11.7158   17.0356   23.4894 H   0  0  0  0  0  0  0  0  0  0  0  0
   11.6284   18.3514   21.4557 H   0  0  0  0  0  0  0  0  0  0  0  0
   13.0523   17.5518   20.7899 H   0  0  0  0  0  0  0  0  0  0  0  0
   14.1183   15.5740   22.2247 H   0  0  0  0  0  0  0  0  0  0  0  0
   13.6351   15.5433   23.9168 H   0  0  0  0  0  0  0  0  0  0  0  0
   13.0745   15.5611   19.9547 H   0  0  0  0  0  0  0  0  0  0  0  0
   11.6097   14.8903   19.2791 H   0  0  0  0  0  0  0  0  0  0  0  0
   11.2628   13.5129   21.1743 H   0  0  0  0  0  0  0  0  0  0  0  0
   13.0067   13.4320   20.9628 H   0  0  0  0  0  0  0  0  0  0  0  0
   13.4586   12.7704   23.0124 H   0  0  0  0  0  0  0  0  0  0  0  0
   12.9622   13.6503   24.4862 H   0  0  0  0  0  0  0  0  0  0  0  0
   12.5269   10.9609   22.6773 H   0  0  0  0  0  0  0  0  0  0  0  0
  1  2  1  0  0  0  0
  1  3  2  0  0  0  0
  2  5  2  0  0  0  0
  3  8  1  0  0  0  0
  4  6  2  0  0  0  0
  4  9  1  0  0  0  0
  5 11  1  0  0  0  0
  6 13  1  0  0  0  0
  7  9  2  0  0  0  0
  7 23  1  0  0  0  0
  8 10  1  0  0  0  0
  8 11  2  0  0  0  0
  9 22  1  0  0  0  0
 10 12  2  0  0  0  0
 10 24  1  0  0  0  0
 11 29  1  0  0  0  0
 12 14  1  0  0  0  0
 12 29  1  0  0  0  0
 13 23  2  0  0  0  0
 13 26  1  0  0  0  0
 14 25  1  0  0  0  0
 14 28  2  0  0  0  0
 15 21  1  0  0  0  0
 15 24  2  0  0  0  0
 15 25  1  0  0  0  0
 16 17  1  0  0  0  0
 16 18  1  0  0  0  0
 17 26  1  0  0  0  0
 18 27  1  0  0  0  0
 19 20  1  0  0  0  0
 19 26  1  0  0  0  0
 20 27  1  0  0  0  0
 21 27  1  0  0  0  0
 22 30  1  0  0  0  0
 22 31  1  0  0  0  0
 22 32  1  0  0  0  0
  1 33  1  0  0  0  0
  2 34  1  0  0  0  0
  3 35  1  0  0  0  0
  4 36  1  0  0  0  0
  5 37  1  0  0  0  0
  6 38  1  0  0  0  0
  7 39  1  0  0  0  0
 16 40  1  0  0  0  0
 16 41  1  0  0  0  0
 17 42  1  0  0  0  0
 17 43  1  0  0  0  0
 18 44  1  0  0  0  0
 18 45  1  0  0  0  0
 19 46  1  0  0  0  0
 19 47  1  0  0  0  0
 20 48  1  0  0  0  0
 20 49  1  0  0  0  0
 21 50  1  0  0  0  0
 21 51  1  0  0  0  0
 25 52  1  0  0  0  0
M  END
> <idnumber>
Z106734502

> <heavy_atoms>
32

> <LogS>
-4.89

> <LogP>
2.704

> <rotating_bonds>
4

> <PSA>
73.97

> <hb_acceptors>
5

> <hb_donors>
1

> <Collection>
HTS

> <link>
https://www.enaminestore.com/catalog/Z106734502

> <ROCS_ShapeQuery>
x0446_0A_x1080_0A_x0929_0A_x0812_0A_x0719_0A_x1140_0A_x0528_0A_x0310_0A

> <ROCS_TanimotoCombo>
0.467 

> <ROCS_ShapeTanimoto>
0.281 

> <ROCS_ColorTanimoto>
0.187 

> <ROCS_RefTversky>
0.257 

> <ROCS_RefColorTversky>
0.211 

> <ROCS_RefTverskyCombo>
0.469 

> <ROCS_FitTversky>
1.484 

> <ROCS_FitColorTversky>
0.614 

> <ROCS_FitTverskyCombo>
2.097 

> <ROCS_ColorScore>
-7.584

> <ROCS_Overlap>
3044.996

> <ROCS_Rank>
115                 

$$$$
untitled-dbase-1038110_62
  -OEChem-02092406493D

 42 45  0     0  0  0  0  0  0999 V2000
   13.3288   16.2137   22.2273 C   0  0  0  0  0  0  0  0  0  0  0  0
   12.5877   16.8455   21.2288 C   0  0  0  0  0  0  0  0  0  0  0  0
   12.7557   15.1864   22.9770 C   0  0  0  0  0  0  0  0  0  0  0  0
   11.2734   16.4501   20.9799 C   0  0  0  0  0  0  0  0  0  0  0  0
   11.4414   14.7910   22.7280 C   0  0  0  0  0  0  0  0  0  0  0  0
   10.7003   15.4228   21.7295 C   0  0  0  0  0  0  0  0  0  0  0  0
    8.0811   12.4541   23.7572 C   0  0  0  0  0  0  0  0  0  0  0  0
    9.5701   11.5159   24.8932 C   0  0  0  0  0  0  0  0  0  0  0  0
   10.0523    9.4048   22.4928 C   0  0  0  0  0  0  0  0  0  0  0  0
    8.5830   10.3304   21.3714 C   0  0  0  0  0  0  0  0  0  0  0  0
    9.4238   11.7562   23.3521 C   0  0  0  0  0  0  0  0  0  0  0  0
    8.9379   10.3767   22.8498 C   0  0  0  0  0  0  0  0  0  0  0  0
    8.0379   11.1585   24.6751 C   0  0  0  0  0  0  0  0  0  0  0  0
    8.3884   15.7226   22.1996 C   0  0  0  0  0  0  0  0  0  0  0  0
   10.8409   13.6837   23.5450 C   0  0  0  0  0  0  0  0  0  0  0  0
    7.1045   11.0970   25.8495 C   0  0  0  0  0  0  0  0  0  0  0  0
   10.4151   12.5536   22.7101 N   0  0  0  0  0  0  0  0  0  0  0  0
    9.7315    9.4956   21.0829 O   0  0  0  0  0  0  0  0  0  0  0  0
    7.9401    9.9677   23.8198 O   0  0  0  0  0  0  0  0  0  0  0  0
    5.8610   11.6957   25.4996 O   0  0  0  0  0  0  0  0  0  0  0  0
    9.4151   15.0493   21.4741 O   0  0  0  0  0  0  0  0  0  0  0  0
   14.3522   16.5216   22.4220 H   0  0  0  0  0  0  0  0  0  0  0  0
   13.0340   17.6458   20.6460 H   0  0  0  0  0  0  0  0  0  0  0  0
   13.3410   14.7015   23.7538 H   0  0  0  0  0  0  0  0  0  0  0  0
   10.7011   16.9461   20.2007 H   0  0  0  0  0  0  0  0  0  0  0  0
    8.1529   13.4187   24.2732 H   0  0  0  0  0  0  0  0  0  0  0  0
    7.3099   12.5179   22.9834 H   0  0  0  0  0  0  0  0  0  0  0  0
   10.2154   10.6875   25.2003 H   0  0  0  0  0  0  0  0  0  0  0  0
    9.7855   12.3894   25.5195 H   0  0  0  0  0  0  0  0  0  0  0  0
   11.0784    9.7256   22.6928 H   0  0  0  0  0  0  0  0  0  0  0  0
    9.9178    8.3836   22.8632 H   0  0  0  0  0  0  0  0  0  0  0  0
    7.6492    9.8125   21.1309 H   0  0  0  0  0  0  0  0  0  0  0  0
    8.6216   11.2733   20.8190 H   0  0  0  0  0  0  0  0  0  0  0  0
    7.4131   15.3300   21.9015 H   0  0  0  0  0  0  0  0  0  0  0  0
    8.4395   16.7949   21.9948 H   0  0  0  0  0  0  0  0  0  0  0  0
    8.5367   15.5503   23.2683 H   0  0  0  0  0  0  0  0  0  0  0  0
   11.5639   13.3084   24.2774 H   0  0  0  0  0  0  0  0  0  0  0  0
    9.9666   14.0363   24.1023 H   0  0  0  0  0  0  0  0  0  0  0  0
    7.5164   11.6388   26.7118 H   0  0  0  0  0  0  0  0  0  0  0  0
    6.9135   10.0579   26.1502 H   0  0  0  0  0  0  0  0  0  0  0  0
   11.2515   11.9931   22.4906 H   0  0  0  0  0  0  0  0  0  0  0  0
    5.2927   11.6337   26.2835 H   0  0  0  0  0  0  0  0  0  0  0  0
  1  2  1  0  0  0  0
  1  3  2  0  0  0  0
  2  4  2  0  0  0  0
  3  5  1  0  0  0  0
  4  6  1  0  0  0  0
  5  6  2  0  0  0  0
  5 15  1  0  0  0  0
  6 21  1  0  0  0  0
  7 11  1  0  0  0  0
  7 13  1  0  0  0  0
  8 11  1  0  0  0  0
  8 13  1  0  0  0  0
  9 12  1  0  0  0  0
  9 18  1  0  0  0  0
 10 12  1  0  0  0  0
 10 18  1  0  0  0  0
 11 12  1  0  0  0  0
 11 17  1  0  0  0  0
 12 19  1  0  0  0  0
 13 16  1  0  0  0  0
 13 19  1  0  0  0  0
 14 21  1  0  0  0  0
 15 17  1  0  0  0  0
 16 20  1  0  0  0  0
  1 22  1  0  0  0  0
  2 23  1  0  0  0  0
  3 24  1  0  0  0  0
  4 25  1  0  0  0  0
  7 26  1  0  0  0  0
  7 27  1  0  0  0  0
  8 28  1  0  0  0  0
  8 29  1  0  0  0  0
  9 30  1  0  0  0  0
  9 31  1  0  0  0  0
 10 32  1  0  0  0  0
 10 33  1  0  0  0  0
 14 34  1  0  0  0  0
 14 35  1  0  0  0  0
 14 36  1  0  0  0  0
 15 37  1  0  0  0  0
 15 38  1  0  0  0  0
 16 39  1  0  0  0  0
 16 40  1  0  0  0  0
 17 41  1  0  0  0  0
 20 42  1  0  0  0  0
M  END
> <idnumber>
Z3505800590

> <heavy_atoms>
21

> <LogS>
-2.595

> <LogP>
0.53

> <rotating_bonds>
5

> <PSA>
59.95

> <hb_acceptors>
5

> <hb_donors>
2

> <Collection>
HTS

> <link>
https://www.enaminestore.com/catalog/Z3505800590

> <ROCS_ShapeQuery>
x0446_0A_x1080_0A_x0929_0A_x0812_0A_x0719_0A_x1140_0A_x0528_0A_x0310_0A

> <ROCS_TanimotoCombo>
0.467 

> <ROCS_ShapeTanimoto>
0.250 

> <ROCS_ColorTanimoto>
0.217 

> <ROCS_RefTversky>
0.226 

> <ROCS_RefColorTversky>
0.261 

> <ROCS_RefTverskyCombo>
0.488 

> <ROCS_FitTversky>
1.748 

> <ROCS_FitColorTversky>
0.560 

> <ROCS_FitTverskyCombo>
2.308 

> <ROCS_ColorScore>
-9.440

> <ROCS_Overlap>
2671.712

> <ROCS_Rank>
116                 

$$$$
untitled-dbase-432636_2
  -OEChem-02092406493D

 35 39  0     0  0  0  0  0  0999 V2000
    6.1938   13.6439   25.1511 C   0  0  0  0  0  0  0  0  0  0  0  0
    5.8228   12.3897   25.6326 C   0  0  0  0  0  0  0  0  0  0  0  0
   13.1677   12.4108   24.4681 C   0  0  0  0  0  0  0  0  0  0  0  0
   14.3911   13.0159   24.1948 C   0  0  0  0  0  0  0  0  0  0  0  0
    7.2651   13.7681   24.2640 C   0  0  0  0  0  0  0  0  0  0  0  0
    6.5174   11.2523   25.2238 C   0  0  0  0  0  0  0  0  0  0  0  0
   11.9967   12.9059   23.8934 C   0  0  0  0  0  0  0  0  0  0  0  0
   14.4502   14.1181   23.3414 C   0  0  0  0  0  0  0  0  0  0  0  0
    7.9740   12.6308   23.8627 C   0  0  0  0  0  0  0  0  0  0  0  0
    7.5898   11.3778   24.3348 C   0  0  0  0  0  0  0  0  0  0  0  0
   12.0496   14.0220   23.0475 C   0  0  0  0  0  0  0  0  0  0  0  0
   13.2829   14.6363   22.7621 C   0  0  0  0  0  0  0  0  0  0  0  0
    9.6165   13.9683   22.4196 C   0  0  0  0  0  0  0  0  0  0  0  0
   10.7424   15.7201   21.7902 C   0  0  0  0  0  0  0  0  0  0  0  0
    9.1189   12.6738   22.9266 C   0  0  0  0  0  0  0  0  0  0  0  0
    8.3158   10.1852   23.8697 C   0  0  0  0  0  0  0  0  0  0  0  0
   11.8206   16.7288   21.7172 C   0  0  0  0  0  0  0  0  0  0  0  0
    8.8011   14.7394   21.7370 N   0  0  0  0  0  0  0  0  0  0  0  0
    9.5113   15.8462   21.3397 N   0  0  0  0  0  0  0  0  0  0  0  0
    9.7356   11.6111   22.5094 N   0  0  0  0  0  0  0  0  0  0  0  0
   10.8677   14.5231   22.4607 N   0  0  0  0  0  0  0  0  0  0  0  0
    9.3343   10.4043   22.9684 N   0  0  0  0  0  0  0  0  0  0  0  0
    8.0039    9.0687   24.2735 O   0  0  0  0  0  0  0  0  0  0  0  0
   13.4685   15.9905   21.6047 S   0  0  0  0  0  0  0  0  0  0  0  0
    5.6477   14.5283   25.4666 H   0  0  0  0  0  0  0  0  0  0  0  0
    4.9886   12.2978   26.3221 H   0  0  0  0  0  0  0  0  0  0  0  0
   13.1247   11.5537   25.1343 H   0  0  0  0  0  0  0  0  0  0  0  0
   15.3011   12.6257   24.6412 H   0  0  0  0  0  0  0  0  0  0  0  0
    7.5283   14.7595   23.9067 H   0  0  0  0  0  0  0  0  0  0  0  0
    6.2065   10.2825   25.6020 H   0  0  0  0  0  0  0  0  0  0  0  0
   11.0799   12.4070   24.1760 H   0  0  0  0  0  0  0  0  0  0  0  0
   15.4222   14.5604   23.1325 H   0  0  0  0  0  0  0  0  0  0  0  0
   11.6741   17.3749   20.8460 H   0  0  0  0  0  0  0  0  0  0  0  0
   11.7833   17.3659   22.6073 H   0  0  0  0  0  0  0  0  0  0  0  0
    9.8659    9.6206   22.6027 H   0  0  0  0  0  0  0  0  0  0  0  0
  1  2  1  0  0  0  0
  1  5  2  0  0  0  0
  2  6  2  0  0  0  0
  3  4  1  0  0  0  0
  3  7  2  0  0  0  0
  4  8  2  0  0  0  0
  5  9  1  0  0  0  0
  6 10  1  0  0  0  0
  7 11  1  0  0  0  0
  8 12  1  0  0  0  0
  9 10  2  0  0  0  0
  9 15  1  0  0  0  0
 10 16  1  0  0  0  0
 11 12  2  0  0  0  0
 11 21  1  0  0  0  0
 12 24  1  0  0  0  0
 13 15  1  0  0  0  0
 13 18  2  0  0  0  0
 13 21  1  0  0  0  0
 14 17  1  0  0  0  0
 14 19  2  0  0  0  0
 14 21  1  0  0  0  0
 15 20  2  0  0  0  0
 16 22  1  0  0  0  0
 16 23  2  0  0  0  0
 17 24  1  0  0  0  0
 18 19  1  0  0  0  0
 20 22  1  0  0  0  0
  1 25  1  0  0  0  0
  2 26  1  0  0  0  0
  3 27  1  0  0  0  0
  4 28  1  0  0  0  0
  5 29  1  0  0  0  0
  6 30  1  0  0  0  0
  7 31  1  0  0  0  0
  8 32  1  0  0  0  0
 17 33  1  0  0  0  0
 17 34  1  0  0  0  0
 22 35  1  0  0  0  0
M  END
> <idnumber>
Z55915292

> <heavy_atoms>
24

> <LogS>
-5.41

> <LogP>
1.514

> <rotating_bonds>
1

> <PSA>
72.17

> <hb_acceptors>
4

> <hb_donors>
1

> <Collection>
Legacy

> <link>
https://www.enaminestore.com/catalog/Z55915292

> <ROCS_ShapeQuery>
x0446_0A_x1080_0A_x0929_0A_x0812_0A_x0719_0A_x1140_0A_x0528_0A_x0310_0A

> <ROCS_TanimotoCombo>
0.467 

> <ROCS_ShapeTanimoto>
0.267 

> <ROCS_ColorTanimoto>
0.200 

> <ROCS_RefTversky>
0.241 

> <ROCS_RefColorTversky>
0.221 

> <ROCS_RefTverskyCombo>
0.462 

> <ROCS_FitTversky>
1.673 

> <ROCS_FitColorTversky>
0.680 

> <ROCS_FitTverskyCombo>
2.353 

> <ROCS_ColorScore>
-7.933

> <ROCS_Overlap>
2848.240

> <ROCS_Rank>
117                 

$$$$
untitled-dbase-324441_23
  -OEChem-02092406493D

 45 49  0     0  0  0  0  0  0999 V2000
   13.6246   16.0252   20.2001 C   0  0  0  0  0  0  0  0  0  0  0  0
   12.0167    7.6677   22.7393 C   0  0  0  0  0  0  0  0  0  0  0  0
   13.0851   15.0727   22.3873 C   0  0  0  0  0  0  0  0  0  0  0  0
   10.9648    8.5657   22.8821 C   0  0  0  0  0  0  0  0  0  0  0  0
   12.1460   14.6338   23.3205 C   0  0  0  0  0  0  0  0  0  0  0  0
   11.3018   15.6381   20.8585 C   0  0  0  0  0  0  0  0  0  0  0  0
   13.2477    8.0215   23.2675 C   0  0  0  0  0  0  0  0  0  0  0  0
   12.4420   10.0325   24.0322 C   0  0  0  0  0  0  0  0  0  0  0  0
   12.6631   15.5749   21.1563 C   0  0  0  0  0  0  0  0  0  0  0  0
    8.1646   12.5344   24.0046 C   0  0  0  0  0  0  0  0  0  0  0  0
   11.1732    9.7730   23.5396 C   0  0  0  0  0  0  0  0  0  0  0  0
    6.9376   13.2184   24.1659 C   0  0  0  0  0  0  0  0  0  0  0  0
   10.7847   14.6971   23.0228 C   0  0  0  0  0  0  0  0  0  0  0  0
   10.3626   15.1992   21.7917 C   0  0  0  0  0  0  0  0  0  0  0  0
    5.8653   12.3700   24.2148 C   0  0  0  0  0  0  0  0  0  0  0  0
    9.4977   12.9391   23.9034 C   0  0  0  0  0  0  0  0  0  0  0  0
    7.9281   11.1587   23.9392 C   0  0  0  0  0  0  0  0  0  0  0  0
   10.1031   10.7246   23.7031 C   0  0  0  0  0  0  0  0  0  0  0  0
    6.5071   14.6323   24.3009 C   0  0  0  0  0  0  0  0  0  0  0  0
    4.5621   13.0526   24.3852 C   0  0  0  0  0  0  0  0  0  0  0  0
    4.9637   14.5303   24.0868 C   0  0  0  0  0  0  0  0  0  0  0  0
    8.6888   15.7926   20.2100 C   0  0  0  0  0  0  0  0  0  0  0  0
   14.4056   16.3909   19.4235 N   0  0  0  0  0  0  0  0  0  0  0  0
   13.4884    9.1849   23.9126 N   0  0  0  0  0  0  0  0  0  0  0  0
   10.4751   12.0198   23.7510 N   0  0  0  0  0  0  0  0  0  0  0  0
    8.8656   10.2029   23.7882 N   0  0  0  0  0  0  0  0  0  0  0  0
    9.8659   14.2612   23.9543 O   0  0  0  0  0  0  0  0  0  0  0  0
    9.0359   15.2666   21.4893 O   0  0  0  0  0  0  0  0  0  0  0  0
    6.2611   10.7524   24.0745 S   0  0  0  0  0  0  0  0  0  0  0  0
   11.8779    6.7202   22.2314 H   0  0  0  0  0  0  0  0  0  0  0  0
   14.1427   15.0168   22.6347 H   0  0  0  0  0  0  0  0  0  0  0  0
    9.9888    8.3115   22.4762 H   0  0  0  0  0  0  0  0  0  0  0  0
   12.4812   14.2431   24.2777 H   0  0  0  0  0  0  0  0  0  0  0  0
   10.9634   16.0283   19.9009 H   0  0  0  0  0  0  0  0  0  0  0  0
   14.1006    7.3557   23.1821 H   0  0  0  0  0  0  0  0  0  0  0  0
   12.6698   10.9564   24.5562 H   0  0  0  0  0  0  0  0  0  0  0  0
    6.7303   15.0060   25.3056 H   0  0  0  0  0  0  0  0  0  0  0  0
    6.9663   15.2897   23.5576 H   0  0  0  0  0  0  0  0  0  0  0  0
    3.7942   12.7026   23.6901 H   0  0  0  0  0  0  0  0  0  0  0  0
    4.2015   12.9532   25.4142 H   0  0  0  0  0  0  0  0  0  0  0  0
    4.4097   15.2443   24.7040 H   0  0  0  0  0  0  0  0  0  0  0  0
    4.7348   14.7556   23.0366 H   0  0  0  0  0  0  0  0  0  0  0  0
    7.6019   15.7907   20.0970 H   0  0  0  0  0  0  0  0  0  0  0  0
    9.1482   15.1833   19.4276 H   0  0  0  0  0  0  0  0  0  0  0  0
    9.0588   16.8179   20.1349 H   0  0  0  0  0  0  0  0  0  0  0  0
  1  9  1  0  0  0  0
  1 23  3  0  0  0  0
  2  4  2  0  0  0  0
  2  7  1  0  0  0  0
  3  5  2  0  0  0  0
  3  9  1  0  0  0  0
  4 11  1  0  0  0  0
  5 13  1  0  0  0  0
  6  9  2  0  0  0  0
  6 14  1  0  0  0  0
  7 24  2  0  0  0  0
  8 11  2  0  0  0  0
  8 24  1  0  0  0  0
 10 12  1  0  0  0  0
 10 16  2  0  0  0  0
 10 17  1  0  0  0  0
 11 18  1  0  0  0  0
 12 15  2  0  0  0  0
 12 19  1  0  0  0  0
 13 14  2  0  0  0  0
 13 27  1  0  0  0  0
 14 28  1  0  0  0  0
 15 20  1  0  0  0  0
 15 29  1  0  0  0  0
 16 25  1  0  0  0  0
 16 27  1  0  0  0  0
 17 26  2  0  0  0  0
 17 29  1  0  0  0  0
 18 25  2  0  0  0  0
 18 26  1  0  0  0  0
 19 21  1  0  0  0  0
 20 21  1  0  0  0  0
 22 28  1  0  0  0  0
  2 30  1  0  0  0  0
  3 31  1  0  0  0  0
  4 32  1  0  0  0  0
  5 33  1  0  0  0  0
  6 34  1  0  0  0  0
  7 35  1  0  0  0  0
  8 36  1  0  0  0  0
 19 37  1  0  0  0  0
 19 38  1  0  0  0  0
 20 39  1  0  0  0  0
 20 40  1  0  0  0  0
 21 41  1  0  0  0  0
 21 42  1  0  0  0  0
 22 43  1  0  0  0  0
 22 44  1  0  0  0  0
 22 45  1  0  0  0  0
M  END
> <idnumber>
Z31162751

> <heavy_atoms>
29

> <LogS>
-6.809

> <LogP>
4.015

> <rotating_bonds>
4

> <PSA>
80.92

> <hb_acceptors>
5

> <hb_donors>
0

> <Collection>
Legacy

> <link>
https://www.enaminestore.com/catalog/Z31162751

> <ROCS_ShapeQuery>
x0446_0A_x1080_0A_x0929_0A_x0812_0A_x0719_0A_x1140_0A_x0528_0A_x0310_0A

> <ROCS_TanimotoCombo>
0.467 

> <ROCS_ShapeTanimoto>
0.261 

> <ROCS_ColorTanimoto>
0.207 

> <ROCS_RefTversky>
0.240 

> <ROCS_RefColorTversky>
0.230 

> <ROCS_RefTverskyCombo>
0.470 

> <ROCS_FitTversky>
1.490 

> <ROCS_FitColorTversky>
0.668 

> <ROCS_FitTverskyCombo>
2.158 

> <ROCS_ColorScore>
-8.264

> <ROCS_Overlap>
2839.439

> <ROCS_Rank>
118                 

$$$$
untitled-dbase-571289_36
  -OEChem-02092406493D

 67 73  0     1  0  0  0  0  0999 V2000
   15.3202   15.2147   20.8576 C   0  0  0  0  0  0  0  0  0  0  0  0
    2.1814   11.2147   21.1187 C   0  0  0  0  0  0  0  0  0  0  0  0
   15.4293   14.2341   21.8349 C   0  0  0  0  0  0  0  0  0  0  0  0
    2.9131   10.4986   22.0570 C   0  0  0  0  0  0  0  0  0  0  0  0
   14.0775   15.7760   20.5879 C   0  0  0  0  0  0  0  0  0  0  0  0
    2.4046   12.5789   20.9737 C   0  0  0  0  0  0  0  0  0  0  0  0
   14.2950   13.8039   22.5327 C   0  0  0  0  0  0  0  0  0  0  0  0
    3.8573   11.1479   22.8605 C   0  0  0  0  0  0  0  0  0  0  0  0
   12.9430   15.3511   21.2945 C   0  0  0  0  0  0  0  0  0  0  0  0
    3.3579   13.2268   21.7726 C   0  0  0  0  0  0  0  0  0  0  0  0
   13.0248   14.3414   22.2642 C   0  0  0  0  0  0  0  0  0  0  0  0
    4.0867   12.5295   22.7469 C   0  0  0  0  0  0  0  0  0  0  0  0
   10.5535   15.6879   21.6379 C   0  0  0  0  0  0  0  0  0  0  0  0
    4.4814   15.3395   22.2365 C   0  0  0  0  0  0  0  0  0  0  0  0
   11.7874   12.7278   23.7090 C   0  0  0  0  0  0  0  0  0  0  0  0
    5.5825   12.6740   24.7379 C   0  0  0  0  0  0  0  0  0  0  0  0
   10.6535   14.7707   22.8326 C   0  0  0  0  0  0  0  0  0  0  0  0
    5.4293   14.5746   23.1280 C   0  0  0  0  0  0  0  0  0  0  0  0
    8.7854    9.6473   23.2317 C   0  0  0  0  0  0  0  0  0  0  0  0
   10.5800   10.7409   24.5998 C   0  0  0  0  0  0  0  0  0  0  0  0
    9.9939   11.6527   22.3338 C   0  0  0  0  0  0  0  0  0  0  0  0
    8.1796   10.9329   25.2986 C   0  0  0  0  0  0  0  0  0  0  0  0
    7.5931   11.8450   23.0314 C   0  0  0  0  0  0  0  0  0  0  0  0
    9.3910   12.9446   24.4017 C   0  0  0  0  0  0  0  0  0  0  0  0
    9.2295   10.0081   24.6587 C   0  0  1  0  0  0  0  0  0  0  0  0
    8.6416   10.9228   22.3853 C   0  0  2  0  0  0  0  0  0  0  0  0
   10.4476   12.0249   23.7585 C   0  0  0  0  0  0  0  0  0  0  0  0
    8.0210   12.2283   24.4678 C   0  0  0  0  0  0  0  0  0  0  0  0
    6.9734   13.1439   25.1070 C   0  0  0  0  0  0  0  0  0  0  0  0
   11.7216   15.9546   20.9781 N   0  0  0  0  0  0  0  0  0  0  0  0
    3.5371   14.6003   21.5787 N   0  0  0  0  0  0  0  0  0  0  0  0
   11.8352   13.9114   22.9453 N   0  0  0  0  0  0  0  0  0  0  0  0
    5.0327   13.2340   23.5671 N   0  0  0  0  0  0  0  0  0  0  0  0
    9.4896   16.2413   21.3551 O   0  0  0  0  0  0  0  0  0  0  0  0
    4.6350   16.5463   22.0411 O   0  0  0  0  0  0  0  0  0  0  0  0
   12.7347   12.2127   24.3067 O   0  0  0  0  0  0  0  0  0  0  0  0
    5.0248   11.8688   25.4867 O   0  0  0  0  0  0  0  0  0  0  0  0
   16.1999   15.5471   20.3153 H   0  0  0  0  0  0  0  0  0  0  0  0
    1.4479   10.7112   20.4967 H   0  0  0  0  0  0  0  0  0  0  0  0
   16.3998   13.8030   22.0644 H   0  0  0  0  0  0  0  0  0  0  0  0
    2.7576    9.4287   22.1643 H   0  0  0  0  0  0  0  0  0  0  0  0
   14.0007   16.5498   19.8278 H   0  0  0  0  0  0  0  0  0  0  0  0
    1.8346   13.1318   20.2308 H   0  0  0  0  0  0  0  0  0  0  0  0
   14.4597   13.0646   23.3088 H   0  0  0  0  0  0  0  0  0  0  0  0
    4.4200   10.5208   23.5434 H   0  0  0  0  0  0  0  0  0  0  0  0
   10.6204   15.3949   23.7336 H   0  0  0  0  0  0  0  0  0  0  0  0
    9.7564   14.1430   22.8159 H   0  0  0  0  0  0  0  0  0  0  0  0
    6.3794   14.4709   22.5903 H   0  0  0  0  0  0  0  0  0  0  0  0
    5.5994   15.2026   24.0088 H   0  0  0  0  0  0  0  0  0  0  0  0
    9.5175    8.9728   22.7709 H   0  0  0  0  0  0  0  0  0  0  0  0
    7.8306    9.1081   23.2617 H   0  0  0  0  0  0  0  0  0  0  0  0
   10.9191   10.9827   25.6158 H   0  0  0  0  0  0  0  0  0  0  0  0
   11.3451   10.0804   24.1709 H   0  0  0  0  0  0  0  0  0  0  0  0
   10.7426   11.0135   21.8476 H   0  0  0  0  0  0  0  0  0  0  0  0
    9.9104   12.5539   21.7122 H   0  0  0  0  0  0  0  0  0  0  0  0
    7.2188   10.4064   25.3673 H   0  0  0  0  0  0  0  0  0  0  0  0
    8.4798   11.1754   26.3261 H   0  0  0  0  0  0  0  0  0  0  0  0
    7.4692   12.7476   22.4191 H   0  0  0  0  0  0  0  0  0  0  0  0
    6.6188   11.3398   23.0480 H   0  0  0  0  0  0  0  0  0  0  0  0
    9.7106   13.2394   25.4107 H   0  0  0  0  0  0  0  0  0  0  0  0
    9.3046   13.8769   23.8269 H   0  0  0  0  0  0  0  0  0  0  0  0
    9.3304    9.0951   25.2560 H   0  0  0  0  0  0  0  0  0  0  0  0
    8.3255   10.6589   21.3699 H   0  0  0  0  0  0  0  0  0  0  0  0
    7.1121   14.1647   24.7557 H   0  0  0  0  0  0  0  0  0  0  0  0
    7.0774   13.1195   26.1903 H   0  0  0  0  0  0  0  0  0  0  0  0
   11.7033   16.6312   20.2201 H   0  0  0  0  0  0  0  0  0  0  0  0
    2.9360   15.0723   20.9091 H   0  0  0  0  0  0  0  0  0  0  0  0
  1  3  1  0  0  0  0
  1  5  2  0  0  0  0
  2  4  1  0  0  0  0
  2  6  2  0  0  0  0
  3  7  2  0  0  0  0
  4  8  2  0  0  0  0
  5  9  1  0  0  0  0
  6 10  1  0  0  0  0
  7 11  1  0  0  0  0
  8 12  1  0  0  0  0
  9 11  2  0  0  0  0
  9 30  1  0  0  0  0
 10 12  2  0  0  0  0
 10 31  1  0  0  0  0
 11 32  1  0  0  0  0
 12 33  1  0  0  0  0
 13 17  1  0  0  0  0
 13 30  1  0  0  0  0
 13 34  2  0  0  0  0
 14 18  1  0  0  0  0
 14 31  1  0  0  0  0
 14 35  2  0  0  0  0
 15 27  1  0  0  0  0
 15 32  1  0  0  0  0
 15 36  2  0  0  0  0
 16 29  1  0  0  0  0
 16 33  1  0  0  0  0
 16 37  2  0  0  0  0
 17 32  1  0  0  0  0
 18 33  1  0  0  0  0
 19 25  1  0  0  0  0
 19 26  1  0  0  0  0
 20 25  1  0  0  0  0
 20 27  1  0  0  0  0
 21 26  1  0  0  0  0
 21 27  1  0  0  0  0
 22 25  1  0  0  0  0
 22 28  1  0  0  0  0
 23 26  1  0  0  0  0
 23 28  1  0  0  0  0
 24 27  1  0  0  0  0
 24 28  1  0  0  0  0
 28 29  1  0  0  0  0
  1 38  1  0  0  0  0
  2 39  1  0  0  0  0
  3 40  1  0  0  0  0
  4 41  1  0  0  0  0
  5 42  1  0  0  0  0
  6 43  1  0  0  0  0
  7 44  1  0  0  0  0
  8 45  1  0  0  0  0
 17 46  1  0  0  0  0
 17 47  1  0  0  0  0
 18 48  1  0  0  0  0
 18 49  1  0  0  0  0
 19 50  1  0  0  0  0
 19 51  1  0  0  0  0
 20 52  1  0  0  0  0
 20 53  1  0  0  0  0
 21 54  1  0  0  0  0
 21 55  1  0  0  0  0
 22 56  1  0  0  0  0
 22 57  1  0  0  0  0
 23 58  1  0  0  0  0
 23 59  1  0  0  0  0
 24 60  1  0  0  0  0
 24 61  1  0  0  0  0
 25 62  1  0  0  0  0
 26 63  1  0  0  0  0
 29 64  1  0  0  0  0
 29 65  1  0  0  0  0
 30 66  1  0  0  0  0
 31 67  1  0  0  0  0
M  END
> <idnumber>
Z816768986

> <heavy_atoms>
37

> <LogS>
-6.261

> <LogP>
2.812

> <rotating_bonds>
3

> <PSA>
98.82

> <hb_acceptors>
4

> <hb_donors>
2

> <Collection>
Advanced

> <link>
https://www.enaminestore.com/catalog/Z816768986

> <ROCS_ShapeQuery>
x0446_0A_x1080_0A_x0929_0A_x0812_0A_x0719_0A_x1140_0A_x0528_0A_x0310_0A

> <ROCS_TanimotoCombo>
0.467 

> <ROCS_ShapeTanimoto>
0.274 

> <ROCS_ColorTanimoto>
0.193 

> <ROCS_RefTversky>
0.256 

> <ROCS_RefColorTversky>
0.240 

> <ROCS_RefTverskyCombo>
0.497 

> <ROCS_FitTversky>
1.335 

> <ROCS_FitColorTversky>
0.496 

> <ROCS_FitTverskyCombo>
1.831 

> <ROCS_ColorScore>
-8.686

> <ROCS_Overlap>
3038.890

> <ROCS_Rank>
119                 

$$$$
untitled-dbase-512067_33
  -OEChem-02092406493D

 45 49  0     0  0  0  0  0  0999 V2000
   12.5150    8.8572   21.8253 C   0  0  0  0  0  0  0  0  0  0  0  0
   11.5992    9.8466   22.1655 C   0  0  0  0  0  0  0  0  0  0  0  0
   13.2850   14.0859   23.3505 C   0  0  0  0  0  0  0  0  0  0  0  0
   11.9879   13.8775   23.8191 C   0  0  0  0  0  0  0  0  0  0  0  0
   12.4055   15.3013   21.4567 C   0  0  0  0  0  0  0  0  0  0  0  0
   12.4496    7.6516   22.5050 C   0  0  0  0  0  0  0  0  0  0  0  0
   10.6769    8.3645   23.7807 C   0  0  0  0  0  0  0  0  0  0  0  0
    7.9585   12.5169   24.2153 C   0  0  0  0  0  0  0  0  0  0  0  0
   10.6593    9.6036   23.1610 C   0  0  0  0  0  0  0  0  0  0  0  0
    6.8381   13.2623   24.6493 C   0  0  0  0  0  0  0  0  0  0  0  0
   13.4939   14.7979   22.1693 C   0  0  0  0  0  0  0  0  0  0  0  0
   11.1084   15.0928   21.9253 C   0  0  0  0  0  0  0  0  0  0  0  0
   10.8996   14.3809   23.1065 C   0  0  0  0  0  0  0  0  0  0  0  0
    5.7973   12.4661   25.0426 C   0  0  0  0  0  0  0  0  0  0  0  0
    9.2250   12.8561   23.7335 C   0  0  0  0  0  0  0  0  0  0  0  0
    7.6781   11.1513   24.3130 C   0  0  0  0  0  0  0  0  0  0  0  0
    9.6974   10.6091   23.5363 C   0  0  0  0  0  0  0  0  0  0  0  0
    6.4960   14.6992   24.7937 C   0  0  0  0  0  0  0  0  0  0  0  0
    4.6059   13.2140   25.5059 C   0  0  0  0  0  0  0  0  0  0  0  0
    4.9499   14.6517   25.0072 C   0  0  0  0  0  0  0  0  0  0  0  0
   14.8807   15.0207   21.6686 C   0  0  0  0  0  0  0  0  0  0  0  0
   11.5510    7.3788   23.4774 N   0  0  0  0  0  0  0  0  0  0  0  0
   10.1015   11.8874   23.3913 N   0  0  0  0  0  0  0  0  0  0  0  0
    8.5156   10.1481   23.9853 N   0  0  0  0  0  0  0  0  0  0  0  0
   10.0110   15.6129   21.1859 N   0  3  0  0  0  0  0  0  0  0  0  0
   10.2386   16.2479   20.1289 O   0  5  0  0  0  0  0  0  0  0  0  0
    8.8475   15.4217   21.6126 O   0  0  0  0  0  0  0  0  0  0  0  0
    9.6269   14.1615   23.5905 O   0  0  0  0  0  0  0  0  0  0  0  0
    6.0993   10.8271   24.9167 S   0  0  0  0  0  0  0  0  0  0  0  0
   13.2562    9.0234   21.0521 H   0  0  0  0  0  0  0  0  0  0  0  0
   11.6298   10.8016   21.6469 H   0  0  0  0  0  0  0  0  0  0  0  0
   14.1266   13.6898   23.9125 H   0  0  0  0  0  0  0  0  0  0  0  0
   11.8324   13.3216   24.7397 H   0  0  0  0  0  0  0  0  0  0  0  0
   12.5740   15.8560   20.5359 H   0  0  0  0  0  0  0  0  0  0  0  0
   13.1421    6.8476   22.2771 H   0  0  0  0  0  0  0  0  0  0  0  0
    9.9690    8.1115   24.5648 H   0  0  0  0  0  0  0  0  0  0  0  0
    6.9910   15.1238   25.6734 H   0  0  0  0  0  0  0  0  0  0  0  0
    6.7548   15.2891   23.9102 H   0  0  0  0  0  0  0  0  0  0  0  0
    3.6706   12.8557   25.0675 H   0  0  0  0  0  0  0  0  0  0  0  0
    4.5333   13.1938   26.5981 H   0  0  0  0  0  0  0  0  0  0  0  0
    4.6010   15.4257   25.6977 H   0  0  0  0  0  0  0  0  0  0  0  0
    4.4525   14.8218   24.0430 H   0  0  0  0  0  0  0  0  0  0  0  0
   15.1828   14.2025   21.0033 H   0  0  0  0  0  0  0  0  0  0  0  0
   14.9577   15.9655   21.1149 H   0  0  0  0  0  0  0  0  0  0  0  0
   15.5990   15.0787   22.4969 H   0  0  0  0  0  0  0  0  0  0  0  0
  1  2  2  0  0  0  0
  1  6  1  0  0  0  0
  2  9  1  0  0  0  0
  3  4  2  0  0  0  0
  3 11  1  0  0  0  0
  4 13  1  0  0  0  0
  5 11  2  0  0  0  0
  5 12  1  0  0  0  0
  6 22  2  0  0  0  0
  7  9  2  0  0  0  0
  7 22  1  0  0  0  0
  8 10  1  0  0  0  0
  8 15  2  0  0  0  0
  8 16  1  0  0  0  0
  9 17  1  0  0  0  0
 10 14  2  0  0  0  0
 10 18  1  0  0  0  0
 11 21  1  0  0  0  0
 12 13  2  0  0  0  0
 12 25  1  0  0  0  0
 13 28  1  0  0  0  0
 14 19  1  0  0  0  0
 14 29  1  0  0  0  0
 15 23  1  0  0  0  0
 15 28  1  0  0  0  0
 16 24  2  0  0  0  0
 16 29  1  0  0  0  0
 17 23  2  0  0  0  0
 17 24  1  0  0  0  0
 18 20  1  0  0  0  0
 19 20  1  0  0  0  0
 25 26  1  0  0  0  0
 25 27  2  0  0  0  0
  1 30  1  0  0  0  0
  2 31  1  0  0  0  0
  3 32  1  0  0  0  0
  4 33  1  0  0  0  0
  5 34  1  0  0  0  0
  6 35  1  0  0  0  0
  7 36  1  0  0  0  0
 18 37  1  0  0  0  0
 18 38  1  0  0  0  0
 19 39  1  0  0  0  0
 19 40  1  0  0  0  0
 20 41  1  0  0  0  0
 20 42  1  0  0  0  0
 21 43  1  0  0  0  0
 21 44  1  0  0  0  0
 21 45  1  0  0  0  0
M  CHG  2  25   1  26  -1
M  END
> <idnumber>
Z86322916

> <heavy_atoms>
29

> <LogS>
-7.7

> <LogP>
4.65

> <rotating_bonds>
4

> <PSA>
91.04

> <hb_acceptors>
5

> <hb_donors>
0

> <Collection>
Legacy

> <link>
https://www.enaminestore.com/catalog/Z86322916

> <ROCS_ShapeQuery>
x0446_0A_x1080_0A_x0929_0A_x0812_0A_x0719_0A_x1140_0A_x0528_0A_x0310_0A

> <ROCS_TanimotoCombo>
0.467 

> <ROCS_ShapeTanimoto>
0.275 

> <ROCS_ColorTanimoto>
0.192 

> <ROCS_RefTversky>
0.250 

> <ROCS_RefColorTversky>
0.217 

> <ROCS_RefTverskyCombo>
0.467 

> <ROCS_FitTversky>
1.549 

> <ROCS_FitColorTversky>
0.628 

> <ROCS_FitTverskyCombo>
2.177 

> <ROCS_ColorScore>
-7.783

> <ROCS_Overlap>
2963.435

> <ROCS_Rank>
120                 

$$$$
untitled-dbase-1000757_8
  -OEChem-02092406493D

 38 41  0     1  0  0  0  0  0999 V2000
   12.5919   15.1837   21.0456 C   0  0  0  0  0  0  0  0  0  0  0  0
   11.2708   14.7377   21.0815 C   0  0  0  0  0  0  0  0  0  0  0  0
   13.2625   15.4742   22.2337 C   0  0  0  0  0  0  0  0  0  0  0  0
    6.7857   13.6221   24.1920 C   0  0  0  0  0  0  0  0  0  0  0  0
   11.2908   14.8727   23.4937 C   0  0  0  0  0  0  0  0  0  0  0  0
    5.7064   13.2313   24.9765 C   0  0  0  0  0  0  0  0  0  0  0  0
    6.4384   11.0648   25.1052 C   0  0  0  0  0  0  0  0  0  0  0  0
   10.6202   14.5822   22.3055 C   0  0  0  0  0  0  0  0  0  0  0  0
   12.6120   15.3187   23.4578 C   0  0  0  0  0  0  0  0  0  0  0  0
    7.7205   12.6589   23.8162 C   0  0  0  0  0  0  0  0  0  0  0  0
    7.5507   11.3432   24.3165 C   0  0  0  0  0  0  0  0  0  0  0  0
    9.2233   14.1099   22.3431 C   0  0  0  0  0  0  0  0  0  0  0  0
   10.5882   11.5810   24.2987 C   0  0  0  0  0  0  0  0  0  0  0  0
    9.6734   10.5878   25.0442 C   0  0  0  0  0  0  0  0  0  0  0  0
    9.1165   10.5014   22.7606 C   0  0  0  0  0  0  0  0  0  0  0  0
    9.8821   11.8095   22.9465 C   0  0  1  0  0  0  0  0  0  0  0  0
   13.3289   15.6294   24.7283 C   0  0  0  0  0  0  0  0  0  0  0  0
    5.5009   11.9769   25.4319 N   0  0  0  0  0  0  0  0  0  0  0  0
    8.9002   12.9243   23.0205 N   0  0  0  0  0  0  0  0  0  0  0  0
    8.5523   10.3520   24.1063 N   0  0  2  0  0  0  0  0  0  0  0  0
    8.3853   14.8752   21.8609 O   0  0  0  0  0  0  0  0  0  0  0  0
   13.0982   15.3058   20.0925 H   0  0  0  0  0  0  0  0  0  0  0  0
   10.7579   14.5137   20.1496 H   0  0  0  0  0  0  0  0  0  0  0  0
   14.2921   15.8205   22.1963 H   0  0  0  0  0  0  0  0  0  0  0  0
    6.8462   14.6629   23.9070 H   0  0  0  0  0  0  0  0  0  0  0  0
   10.7846   14.7531   24.4490 H   0  0  0  0  0  0  0  0  0  0  0  0
    4.9509   13.9533   25.2696 H   0  0  0  0  0  0  0  0  0  0  0  0
    6.2667   10.0703   25.5054 H   0  0  0  0  0  0  0  0  0  0  0  0
   10.7359   12.5108   24.8573 H   0  0  0  0  0  0  0  0  0  0  0  0
   11.5720   11.1255   24.1360 H   0  0  0  0  0  0  0  0  0  0  0  0
   10.2053    9.6457   25.2155 H   0  0  0  0  0  0  0  0  0  0  0  0
    9.3534   10.9715   26.0197 H   0  0  0  0  0  0  0  0  0  0  0  0
    8.3630   10.5338   21.9644 H   0  0  0  0  0  0  0  0  0  0  0  0
    9.7961    9.6678   22.5461 H   0  0  0  0  0  0  0  0  0  0  0  0
   10.5980   11.9630   22.1320 H   0  0  0  0  0  0  0  0  0  0  0  0
   13.1827   16.6815   25.0017 H   0  0  0  0  0  0  0  0  0  0  0  0
   12.9676   15.0019   25.5532 H   0  0  0  0  0  0  0  0  0  0  0  0
   14.4063   15.4407   24.6340 H   0  0  0  0  0  0  0  0  0  0  0  0
  1  2  1  0  0  0  0
  1  3  2  0  0  0  0
  2  8  2  0  0  0  0
  3  9  1  0  0  0  0
  4  6  2  0  0  0  0
  4 10  1  0  0  0  0
  5  8  1  0  0  0  0
  5  9  2  0  0  0  0
  6 18  1  0  0  0  0
  7 11  1  0  0  0  0
  7 18  2  0  0  0  0
  8 12  1  0  0  0  0
  9 17  1  0  0  0  0
 10 11  2  0  0  0  0
 10 19  1  0  0  0  0
 11 20  1  0  0  0  0
 12 19  1  0  0  0  0
 12 21  2  0  0  0  0
 13 14  1  0  0  0  0
 13 16  1  0  0  0  0
 14 20  1  0  0  0  0
 15 16  1  0  0  0  0
 15 20  1  0  0  0  0
 16 19  1  0  0  0  0
  1 22  1  0  0  0  0
  2 23  1  0  0  0  0
  3 24  1  0  0  0  0
  4 25  1  0  0  0  0
  5 26  1  0  0  0  0
  6 27  1  0  0  0  0
  7 28  1  0  0  0  0
 13 29  1  0  0  0  0
 13 30  1  0  0  0  0
 14 31  1  0  0  0  0
 14 32  1  0  0  0  0
 15 33  1  0  0  0  0
 15 34  1  0  0  0  0
 16 35  1  0  0  0  0
 17 36  1  0  0  0  0
 17 37  1  0  0  0  0
 17 38  1  0  0  0  0
M  END
> <idnumber>
Z3027255142

> <heavy_atoms>
21

> <LogS>
-3.948

> <LogP>
1.682

> <rotating_bonds>
1

> <PSA>
36.44

> <hb_acceptors>
3

> <hb_donors>
0

> <Collection>
Advanced

> <link>
https://www.enaminestore.com/catalog/Z3027255142

> <ROCS_ShapeQuery>
x0446_0A_x1080_0A_x0929_0A_x0812_0A_x0719_0A_x1140_0A_x0528_0A_x0310_0A

> <ROCS_TanimotoCombo>
0.467 

> <ROCS_ShapeTanimoto>
0.258 

> <ROCS_ColorTanimoto>
0.209 

> <ROCS_RefTversky>
0.232 

> <ROCS_RefColorTversky>
0.227 

> <ROCS_RefTverskyCombo>
0.459 

> <ROCS_FitTversky>
1.766 

> <ROCS_FitColorTversky>
0.723 

> <ROCS_FitTverskyCombo>
2.489 

> <ROCS_ColorScore>
-8.121

> <ROCS_Overlap>
2744.607

> <ROCS_Rank>
121                 

$$$$
untitled-dbase-325385_57
  -OEChem-02092406493D

 53 56  0     0  0  0  0  0  0999 V2000
   13.4987   14.7637   22.1769 C   0  0  0  0  0  0  0  0  0  0  0  0
   13.2797   14.0640   23.3635 C   0  0  0  0  0  0  0  0  0  0  0  0
   12.4172   15.2705   21.4563 C   0  0  0  0  0  0  0  0  0  0  0  0
   11.9792   13.8710   23.8295 C   0  0  0  0  0  0  0  0  0  0  0  0
    7.9380   12.5389   24.2211 C   0  0  0  0  0  0  0  0  0  0  0  0
    6.8203   13.3249   24.6445 C   0  0  0  0  0  0  0  0  0  0  0  0
   11.1167   15.0775   21.9223 C   0  0  0  0  0  0  0  0  0  0  0  0
   10.8977   14.3777   23.1089 C   0  0  0  0  0  0  0  0  0  0  0  0
    5.7530   12.5512   25.0460 C   0  0  0  0  0  0  0  0  0  0  0  0
    9.2093   12.8708   23.7420 C   0  0  0  0  0  0  0  0  0  0  0  0
    7.6565   11.1828   24.3250 C   0  0  0  0  0  0  0  0  0  0  0  0
    9.6771   10.6239   23.5622 C   0  0  0  0  0  0  0  0  0  0  0  0
   10.3768    6.4875   21.0267 C   0  0  0  0  0  0  0  0  0  0  0  0
    9.6749    8.4993   19.7062 C   0  0  0  0  0  0  0  0  0  0  0  0
   10.9235    7.4332   22.0981 C   0  0  0  0  0  0  0  0  0  0  0  0
   10.2454    9.3783   20.8211 C   0  0  0  0  0  0  0  0  0  0  0  0
   10.3903    7.1456   19.6428 C   0  0  0  0  0  0  0  0  0  0  0  0
    6.8012   14.8099   24.6543 C   0  0  0  0  0  0  0  0  0  0  0  0
    4.4286   12.9829   25.5470 C   0  0  0  0  0  0  0  0  0  0  0  0
    9.7520    6.2362   18.5966 C   0  0  0  0  0  0  0  0  0  0  0  0
   10.6762    9.5692   23.1833 C   0  0  0  0  0  0  0  0  0  0  0  0
   10.0857   11.8988   23.4101 N   0  0  0  0  0  0  0  0  0  0  0  0
    8.4910   10.1734   24.0086 N   0  0  0  0  0  0  0  0  0  0  0  0
   10.1755    8.6973   22.1209 N   0  0  0  0  0  0  0  0  0  0  0  0
   10.0261   15.6010   21.1750 N   0  3  0  0  0  0  0  0  0  0  0  0
   10.2626   16.2248   20.1134 O   0  5  0  0  0  0  0  0  0  0  0  0
    8.8598   15.4239   21.6000 O   0  0  0  0  0  0  0  0  0  0  0  0
    9.6215   14.1722   23.5892 O   0  0  0  0  0  0  0  0  0  0  0  0
    6.0873   10.8787   24.9159 S   0  0  0  0  0  0  0  0  0  0  0  0
   14.5114   14.9138   21.8139 H   0  0  0  0  0  0  0  0  0  0  0  0
   14.1218   13.6695   23.9248 H   0  0  0  0  0  0  0  0  0  0  0  0
   12.6030   15.8140   20.5330 H   0  0  0  0  0  0  0  0  0  0  0  0
   11.8158   13.3249   24.7551 H   0  0  0  0  0  0  0  0  0  0  0  0
   10.9781    5.5706   21.0104 H   0  0  0  0  0  0  0  0  0  0  0  0
    9.3531    6.1913   21.2915 H   0  0  0  0  0  0  0  0  0  0  0  0
    8.6006    8.3487   19.8759 H   0  0  0  0  0  0  0  0  0  0  0  0
    9.7746    9.0200   18.7463 H   0  0  0  0  0  0  0  0  0  0  0  0
   10.8363    6.9329   23.0704 H   0  0  0  0  0  0  0  0  0  0  0  0
   11.9918    7.6135   21.9195 H   0  0  0  0  0  0  0  0  0  0  0  0
   11.2802    9.6549   20.5791 H   0  0  0  0  0  0  0  0  0  0  0  0
    9.6608   10.3057   20.8563 H   0  0  0  0  0  0  0  0  0  0  0  0
   11.4349    7.3184   19.3509 H   0  0  0  0  0  0  0  0  0  0  0  0
    6.4330   15.1997   23.6949 H   0  0  0  0  0  0  0  0  0  0  0  0
    6.1549   15.2010   25.4539 H   0  0  0  0  0  0  0  0  0  0  0  0
    7.8039   15.2263   24.8314 H   0  0  0  0  0  0  0  0  0  0  0  0
    3.7138   13.0993   24.7180 H   0  0  0  0  0  0  0  0  0  0  0  0
    4.0047   12.2583   26.2606 H   0  0  0  0  0  0  0  0  0  0  0  0
    4.4868   13.9445   26.0819 H   0  0  0  0  0  0  0  0  0  0  0  0
    8.7121    6.0446   18.8575 H   0  0  0  0  0  0  0  0  0  0  0  0
   10.2881    5.2891   18.5529 H   0  0  0  0  0  0  0  0  0  0  0  0
    9.7915    6.7130   17.6181 H   0  0  0  0  0  0  0  0  0  0  0  0
   11.6074   10.0276   22.8327 H   0  0  0  0  0  0  0  0  0  0  0  0
   10.9275    8.9391   24.0430 H   0  0  0  0  0  0  0  0  0  0  0  0
  1  2  1  0  0  0  0
  1  3  2  0  0  0  0
  2  4  2  0  0  0  0
  3  7  1  0  0  0  0
  4  8  1  0  0  0  0
  5  6  1  0  0  0  0
  5 10  1  0  0  0  0
  5 11  2  0  0  0  0
  6  9  2  0  0  0  0
  6 18  1  0  0  0  0
  7  8  2  0  0  0  0
  7 25  1  0  0  0  0
  8 28  1  0  0  0  0
  9 19  1  0  0  0  0
  9 29  1  0  0  0  0
 10 22  2  0  0  0  0
 10 28  1  0  0  0  0
 11 23  1  0  0  0  0
 11 29  1  0  0  0  0
 12 21  1  0  0  0  0
 12 22  1  0  0  0  0
 12 23  2  0  0  0  0
 13 15  1  0  0  0  0
 13 17  1  0  0  0  0
 14 16  1  0  0  0  0
 14 17  1  0  0  0  0
 15 24  1  0  0  0  0
 16 24  1  0  0  0  0
 17 20  1  0  0  0  0
 21 24  1  0  0  0  0
 25 26  1  0  0  0  0
 25 27  2  0  0  0  0
  1 30  1  0  0  0  0
  2 31  1  0  0  0  0
  3 32  1  0  0  0  0
  4 33  1  0  0  0  0
 13 34  1  0  0  0  0
 13 35  1  0  0  0  0
 14 36  1  0  0  0  0
 14 37  1  0  0  0  0
 15 38  1  0  0  0  0
 15 39  1  0  0  0  0
 16 40  1  0  0  0  0
 16 41  1  0  0  0  0
 17 42  1  0  0  0  0
 18 43  1  0  0  0  0
 18 44  1  0  0  0  0
 18 45  1  0  0  0  0
 19 46  1  0  0  0  0
 19 47  1  0  0  0  0
 19 48  1  0  0  0  0
 20 49  1  0  0  0  0
 20 50  1  0  0  0  0
 20 51  1  0  0  0  0
 21 52  1  0  0  0  0
 21 53  1  0  0  0  0
M  CHG  2  25   1  26  -1
M  END
> <idnumber>
Z31209666

> <heavy_atoms>
29

> <LogS>
-6.29

> <LogP>
4.941

> <rotating_bonds>
5

> <PSA>
81.39

> <hb_acceptors>
5

> <hb_donors>
0

> <Collection>
Legacy

> <link>
https://www.enaminestore.com/catalog/Z31209666

> <ROCS_ShapeQuery>
x0446_0A_x1080_0A_x0929_0A_x0812_0A_x0719_0A_x1140_0A_x0528_0A_x0310_0A

> <ROCS_TanimotoCombo>
0.467 

> <ROCS_ShapeTanimoto>
0.272 

> <ROCS_ColorTanimoto>
0.195 

> <ROCS_RefTversky>
0.247 

> <ROCS_RefColorTversky>
0.215 

> <ROCS_RefTverskyCombo>
0.463 

> <ROCS_FitTversky>
1.566 

> <ROCS_FitColorTversky>
0.677 

> <ROCS_FitTverskyCombo>
2.242 

> <ROCS_ColorScore>
-7.717

> <ROCS_Overlap>
2925.817

> <ROCS_Rank>
122                 

$$$$
untitled-dbase-1108803_34
  -OEChem-02092406493D

 48 51  0     1  0  0  0  0  0999 V2000
   12.8589   15.8433   22.5938 C   0  0  0  0  0  0  0  0  0  0  0  0
   11.7677   16.2712   21.8319 C   0  0  0  0  0  0  0  0  0  0  0  0
   11.5709   13.9707   23.3762 C   0  0  0  0  0  0  0  0  0  0  0  0
    8.4010   15.2542   21.1341 C   0  0  0  0  0  0  0  0  0  0  0  0
   10.4781   14.4075   22.6074 C   0  0  0  0  0  0  0  0  0  0  0  0
   12.7608   14.6918   23.3668 C   0  0  0  0  0  0  0  0  0  0  0  0
   10.5650   15.5689   21.8225 C   0  0  0  0  0  0  0  0  0  0  0  0
    9.2610   13.7328   22.5722 C   0  0  0  0  0  0  0  0  0  0  0  0
    6.8925   12.9327   24.6239 C   0  0  0  0  0  0  0  0  0  0  0  0
    7.6271   10.6928   23.3009 C   0  0  0  0  0  0  0  0  0  0  0  0
    8.6604   11.0185   25.0943 C   0  0  0  0  0  0  0  0  0  0  0  0
    9.9725   11.4106   23.0856 C   0  0  0  0  0  0  0  0  0  0  0  0
    7.9755   12.0215   24.0714 C   0  0  0  0  0  0  0  0  0  0  0  0
    9.0919   10.3397   23.7564 C   0  0  0  0  0  0  0  0  0  0  0  0
   14.3275   15.2566   25.2588 C   0  0  0  0  0  0  0  0  0  0  0  0
   15.1465   13.8798   23.3124 C   0  0  0  0  0  0  0  0  0  0  0  0
   11.2441    7.4879   24.5880 C   0  0  0  0  0  0  0  0  0  0  0  0
    9.5978    8.9288   23.7297 C   0  0  0  0  0  0  0  0  0  0  0  0
   13.9233   14.2339   24.1797 C   0  0  0  0  0  0  0  0  0  0  0  0
    9.5262   15.9956   21.0832 N   0  0  0  0  0  0  0  0  0  0  0  0
    8.2014   14.1321   21.8439 N   0  0  0  0  0  0  0  0  0  0  0  0
    9.1002   12.5663   23.3296 N   0  0  2  0  0  0  0  0  0  0  0  0
    6.7294   14.1015   24.3065 O   0  0  0  0  0  0  0  0  0  0  0  0
    6.1256   12.2727   25.5257 O   0  0  0  0  0  0  0  0  0  0  0  0
   10.7319    8.8124   24.5838 O   0  0  0  0  0  0  0  0  0  0  0  0
   13.7807   16.4189   22.5747 H   0  0  0  0  0  0  0  0  0  0  0  0
   11.8704   17.1758   21.2353 H   0  0  0  0  0  0  0  0  0  0  0  0
   11.5095   13.0722   23.9860 H   0  0  0  0  0  0  0  0  0  0  0  0
    7.5677   15.6035   20.5365 H   0  0  0  0  0  0  0  0  0  0  0  0
    6.8294   10.0732   23.7279 H   0  0  0  0  0  0  0  0  0  0  0  0
    7.4658   10.7730   22.2206 H   0  0  0  0  0  0  0  0  0  0  0  0
    9.4603   11.4338   25.7161 H   0  0  0  0  0  0  0  0  0  0  0  0
    7.9756   10.4522   25.7370 H   0  0  0  0  0  0  0  0  0  0  0  0
   10.9431   11.4974   23.5879 H   0  0  0  0  0  0  0  0  0  0  0  0
   10.1109   11.2331   22.0142 H   0  0  0  0  0  0  0  0  0  0  0  0
   14.6095   16.2185   24.8169 H   0  0  0  0  0  0  0  0  0  0  0  0
   15.1781   14.9007   25.8504 H   0  0  0  0  0  0  0  0  0  0  0  0
   13.4933   15.4368   25.9460 H   0  0  0  0  0  0  0  0  0  0  0  0
   15.4724   14.7533   22.7366 H   0  0  0  0  0  0  0  0  0  0  0  0
   14.9163   13.0775   22.6029 H   0  0  0  0  0  0  0  0  0  0  0  0
   15.9925   13.5489   23.9247 H   0  0  0  0  0  0  0  0  0  0  0  0
   12.1108    7.4338   25.2513 H   0  0  0  0  0  0  0  0  0  0  0  0
   11.5307    7.2040   23.5723 H   0  0  0  0  0  0  0  0  0  0  0  0
   10.4687    6.8081   24.9492 H   0  0  0  0  0  0  0  0  0  0  0  0
    9.9014    8.6336   22.7153 H   0  0  0  0  0  0  0  0  0  0  0  0
    8.8309    8.2236   24.0807 H   0  0  0  0  0  0  0  0  0  0  0  0
   13.6596   13.3069   24.7242 H   0  0  0  0  0  0  0  0  0  0  0  0
    5.4205   12.8454   25.8961 H   0  0  0  0  0  0  0  0  0  0  0  0
  1  2  2  0  0  0  0
  1  6  1  0  0  0  0
  2  7  1  0  0  0  0
  3  5  1  0  0  0  0
  3  6  2  0  0  0  0
  4 20  1  0  0  0  0
  4 21  2  0  0  0  0
  5  7  1  0  0  0  0
  5  8  2  0  0  0  0
  6 19  1  0  0  0  0
  7 20  2  0  0  0  0
  8 21  1  0  0  0  0
  8 22  1  0  0  0  0
  9 13  1  0  0  0  0
  9 23  2  0  0  0  0
  9 24  1  0  0  0  0
 10 13  1  0  0  0  0
 10 14  1  0  0  0  0
 11 13  1  0  0  0  0
 11 14  1  0  0  0  0
 12 14  1  0  0  0  0
 12 22  1  0  0  0  0
 13 22  1  0  0  0  0
 14 18  1  0  0  0  0
 15 19  1  0  0  0  0
 16 19  1  0  0  0  0
 17 25  1  0  0  0  0
 18 25  1  0  0  0  0
  1 26  1  0  0  0  0
  2 27  1  0  0  0  0
  3 28  1  0  0  0  0
  4 29  1  0  0  0  0
 10 30  1  0  0  0  0
 10 31  1  0  0  0  0
 11 32  1  0  0  0  0
 11 33  1  0  0  0  0
 12 34  1  0  0  0  0
 12 35  1  0  0  0  0
 15 36  1  0  0  0  0
 15 37  1  0  0  0  0
 15 38  1  0  0  0  0
 16 39  1  0  0  0  0
 16 40  1  0  0  0  0
 16 41  1  0  0  0  0
 17 42  1  0  0  0  0
 17 43  1  0  0  0  0
 17 44  1  0  0  0  0
 18 45  1  0  0  0  0
 18 46  1  0  0  0  0
 19 47  1  0  0  0  0
 24 48  1  0  0  0  0
M  END
> <idnumber>
Z5014453681

> <heavy_atoms>
25

> <LogS>
-4.716

> <LogP>
2.527

> <rotating_bonds>
5

> <PSA>
75.55

> <hb_acceptors>
6

> <hb_donors>
1

> <Collection>
Advanced

> <link>
https://www.enaminestore.com/catalog/Z5014453681

> <ROCS_ShapeQuery>
x0446_0A_x1080_0A_x0929_0A_x0812_0A_x0719_0A_x1140_0A_x0528_0A_x0310_0A

> <ROCS_TanimotoCombo>
0.467 

> <ROCS_ShapeTanimoto>
0.267 

> <ROCS_ColorTanimoto>
0.200 

> <ROCS_RefTversky>
0.241 

> <ROCS_RefColorTversky>
0.245 

> <ROCS_RefTverskyCombo>
0.486 

> <ROCS_FitTversky>
1.666 

> <ROCS_FitColorTversky>
0.523 

> <ROCS_FitTverskyCombo>
2.189 

> <ROCS_ColorScore>
-8.844

> <ROCS_Overlap>
2848.939

> <ROCS_Rank>
123                 

$$$$
untitled-dbase-187124_7
  -OEChem-02092406493D

 32 34  0     0  0  0  0  0  0999 V2000
   13.2012   14.1206   23.3460 C   0  0  0  0  0  0  0  0  0  0  0  0
   11.9161   13.8877   23.8356 C   0  0  0  0  0  0  0  0  0  0  0  0
   12.2700   15.3503   21.4865 C   0  0  0  0  0  0  0  0  0  0  0  0
    6.7485   13.0742   24.7665 C   0  0  0  0  0  0  0  0  0  0  0  0
    9.6444   10.5779   23.5553 C   0  0  0  0  0  0  0  0  0  0  0  0
    7.9195   12.4610   24.2836 C   0  0  0  0  0  0  0  0  0  0  0  0
   13.3782   14.8520   22.1715 C   0  0  0  0  0  0  0  0  0  0  0  0
   10.9848   15.1174   21.9761 C   0  0  0  0  0  0  0  0  0  0  0  0
   10.8079   14.3861   23.1507 C   0  0  0  0  0  0  0  0  0  0  0  0
    7.6533   11.1056   24.3675 C   0  0  0  0  0  0  0  0  0  0  0  0
    9.1649   12.8312   23.7873 C   0  0  0  0  0  0  0  0  0  0  0  0
   14.7523   15.1009   21.6483 C   0  0  0  0  0  0  0  0  0  0  0  0
    5.6660    9.7824   25.1454 C   0  0  0  0  0  0  0  0  0  0  0  0
    5.8135   12.1888   25.1285 N   0  0  0  0  0  0  0  0  0  0  0  0
    8.4705   10.0987   24.0203 N   0  0  0  0  0  0  0  0  0  0  0  0
   10.0403   11.8658   23.4177 N   0  0  0  0  0  0  0  0  0  0  0  0
    6.3922   11.0004   24.8743 N   0  0  0  0  0  0  0  0  0  0  0  0
    9.8668   15.6327   21.2648 N   0  3  0  0  0  0  0  0  0  0  0  0
   10.0659   16.2857   20.2130 O   0  5  0  0  0  0  0  0  0  0  0  0
    8.7142   15.4195   21.7103 O   0  0  0  0  0  0  0  0  0  0  0  0
    9.5471   14.1423   23.6553 O   0  0  0  0  0  0  0  0  0  0  0  0
   14.0585   13.7282   23.8865 H   0  0  0  0  0  0  0  0  0  0  0  0
   11.7854   13.3168   24.7509 H   0  0  0  0  0  0  0  0  0  0  0  0
   12.4136   15.9202   20.5708 H   0  0  0  0  0  0  0  0  0  0  0  0
    6.5333   14.1281   24.8714 H   0  0  0  0  0  0  0  0  0  0  0  0
   10.3693    9.8307   23.2504 H   0  0  0  0  0  0  0  0  0  0  0  0
   15.0529   14.2964   20.9658 H   0  0  0  0  0  0  0  0  0  0  0  0
   14.8061   16.0544   21.1070 H   0  0  0  0  0  0  0  0  0  0  0  0
   15.4852   15.1571   22.4638 H   0  0  0  0  0  0  0  0  0  0  0  0
    5.8853    9.4806   26.1730 H   0  0  0  0  0  0  0  0  0  0  0  0
    4.5946    9.9616   25.0200 H   0  0  0  0  0  0  0  0  0  0  0  0
    5.9842    9.0077   24.4421 H   0  0  0  0  0  0  0  0  0  0  0  0
  1  2  2  0  0  0  0
  1  7  1  0  0  0  0
  2  9  1  0  0  0  0
  3  7  2  0  0  0  0
  3  8  1  0  0  0  0
  4  6  1  0  0  0  0
  4 14  2  0  0  0  0
  5 15  1  0  0  0  0
  5 16  2  0  0  0  0
  6 10  1  0  0  0  0
  6 11  2  0  0  0  0
  7 12  1  0  0  0  0
  8  9  2  0  0  0  0
  8 18  1  0  0  0  0
  9 21  1  0  0  0  0
 10 15  2  0  0  0  0
 10 17  1  0  0  0  0
 11 16  1  0  0  0  0
 11 21  1  0  0  0  0
 13 17  1  0  0  0  0
 14 17  1  0  0  0  0
 18 19  1  0  0  0  0
 18 20  2  0  0  0  0
  1 22  1  0  0  0  0
  2 23  1  0  0  0  0
  3 24  1  0  0  0  0
  4 25  1  0  0  0  0
  5 26  1  0  0  0  0
 12 27  1  0  0  0  0
 12 28  1  0  0  0  0
 12 29  1  0  0  0  0
 13 30  1  0  0  0  0
 13 31  1  0  0  0  0
 13 32  1  0  0  0  0
M  CHG  2  18   1  19  -1
M  END
> <idnumber>
Z228922832

> <heavy_atoms>
21

> <LogS>
-4.68

> <LogP>
1.596

> <rotating_bonds>
3

> <PSA>
95.97

> <hb_acceptors>
5

> <hb_donors>
0

> <Collection>
Legacy

> <link>
https://www.enaminestore.com/catalog/Z228922832

> <ROCS_ShapeQuery>
x0446_0A_x1080_0A_x0929_0A_x0812_0A_x0719_0A_x1140_0A_x0528_0A_x0310_0A

> <ROCS_TanimotoCombo>
0.467 

> <ROCS_ShapeTanimoto>
0.246 

> <ROCS_ColorTanimoto>
0.220 

> <ROCS_RefTversky>
0.224 

> <ROCS_RefColorTversky>
0.233 

> <ROCS_RefTverskyCombo>
0.457 

> <ROCS_FitTversky>
1.691 

> <ROCS_FitColorTversky>
0.798 

> <ROCS_FitTverskyCombo>
2.490 

> <ROCS_ColorScore>
-8.350

> <ROCS_Overlap>
2644.971

> <ROCS_Rank>
124                 

$$$$
untitled-dbase-1168632_11
  -OEChem-02092406493D

 39 42  0     0  0  0  0  0  0999 V2000
    9.6554   17.1275   19.7108 C   0  0  0  0  0  0  0  0  0  0  0  0
   11.0276   17.1341   19.9152 C   0  0  0  0  0  0  0  0  0  0  0  0
   12.9804   16.3221   21.1517 C   0  0  0  0  0  0  0  0  0  0  0  0
   12.6734   14.7351   22.9305 C   0  0  0  0  0  0  0  0  0  0  0  0
    8.8926   16.3165   20.5264 C   0  0  0  0  0  0  0  0  0  0  0  0
   11.5946   16.3378   20.9194 C   0  0  0  0  0  0  0  0  0  0  0  0
   10.7319   15.5420   21.7020 C   0  0  0  0  0  0  0  0  0  0  0  0
   11.2957   14.7509   22.6993 C   0  0  0  0  0  0  0  0  0  0  0  0
   13.5171   15.5216   22.1559 C   0  0  0  0  0  0  0  0  0  0  0  0
    6.0776   11.2822   24.2960 C   0  0  0  0  0  0  0  0  0  0  0  0
    8.2090   11.9860   22.8266 C   0  0  0  0  0  0  0  0  0  0  0  0
    8.5007   12.2786   24.8740 C   0  0  0  0  0  0  0  0  0  0  0  0
    9.5956   10.2896   23.9369 C   0  0  0  0  0  0  0  0  0  0  0  0
    7.5826   11.2690   24.0837 C   0  0  0  0  0  0  0  0  0  0  0  0
    9.4800   11.8157   23.7352 C   0  0  0  0  0  0  0  0  0  0  0  0
    4.0172   11.3480   23.1410 C   0  0  0  0  0  0  0  0  0  0  0  0
   10.7482   12.5607   23.4471 C   0  0  0  0  0  0  0  0  0  0  0  0
    9.3999   15.5335   21.5059 N   0  0  0  0  0  0  0  0  0  0  0  0
    5.5404   11.2522   25.3949 O   0  0  0  0  0  0  0  0  0  0  0  0
    8.2168    9.9635   24.1799 O   0  0  0  0  0  0  0  0  0  0  0  0
   10.4972   13.9626   23.4838 O   0  0  0  0  0  0  0  0  0  0  0  0
    5.4472   11.3310   23.0880 O   0  0  0  0  0  0  0  0  0  0  0  0
   15.2142   15.5053   22.4356 Cl  0  0  0  0  0  0  0  0  0  0  0  0
    9.2007   17.7383   18.9397 H   0  0  0  0  0  0  0  0  0  0  0  0
   11.6522   17.7637   19.2856 H   0  0  0  0  0  0  0  0  0  0  0  0
   13.6383   16.9400   20.5429 H   0  0  0  0  0  0  0  0  0  0  0  0
   13.0772   14.1056   23.7202 H   0  0  0  0  0  0  0  0  0  0  0  0
    7.8145   16.2704   20.4127 H   0  0  0  0  0  0  0  0  0  0  0  0
    8.2063   11.4112   21.8957 H   0  0  0  0  0  0  0  0  0  0  0  0
    7.8778   13.0100   22.6207 H   0  0  0  0  0  0  0  0  0  0  0  0
    8.1988   13.3320   24.8737 H   0  0  0  0  0  0  0  0  0  0  0  0
    8.7756   11.9825   25.8908 H   0  0  0  0  0  0  0  0  0  0  0  0
    9.9468    9.7696   23.0410 H   0  0  0  0  0  0  0  0  0  0  0  0
   10.1990   10.0221   24.8090 H   0  0  0  0  0  0  0  0  0  0  0  0
    3.6147   11.3873   22.1258 H   0  0  0  0  0  0  0  0  0  0  0  0
    3.6831   12.2186   23.7109 H   0  0  0  0  0  0  0  0  0  0  0  0
    3.6689   10.4370   23.6335 H   0  0  0  0  0  0  0  0  0  0  0  0
   11.1410   12.3094   22.4515 H   0  0  0  0  0  0  0  0  0  0  0  0
   11.5233   12.3323   24.1926 H   0  0  0  0  0  0  0  0  0  0  0  0
  1  2  2  0  0  0  0
  1  5  1  0  0  0  0
  2  6  1  0  0  0  0
  3  6  2  0  0  0  0
  3  9  1  0  0  0  0
  4  8  1  0  0  0  0
  4  9  2  0  0  0  0
  5 18  2  0  0  0  0
  6  7  1  0  0  0  0
  7  8  2  0  0  0  0
  7 18  1  0  0  0  0
  8 21  1  0  0  0  0
  9 23  1  0  0  0  0
 10 14  1  0  0  0  0
 10 19  2  0  0  0  0
 10 22  1  0  0  0  0
 11 14  1  0  0  0  0
 11 15  1  0  0  0  0
 12 14  1  0  0  0  0
 12 15  1  0  0  0  0
 13 15  1  0  0  0  0
 13 20  1  0  0  0  0
 14 20  1  0  0  0  0
 15 17  1  0  0  0  0
 16 22  1  0  0  0  0
 17 21  1  0  0  0  0
  1 24  1  0  0  0  0
  2 25  1  0  0  0  0
  3 26  1  0  0  0  0
  4 27  1  0  0  0  0
  5 28  1  0  0  0  0
 11 29  1  0  0  0  0
 11 30  1  0  0  0  0
 12 31  1  0  0  0  0
 12 32  1  0  0  0  0
 13 33  1  0  0  0  0
 13 34  1  0  0  0  0
 16 35  1  0  0  0  0
 16 36  1  0  0  0  0
 16 37  1  0  0  0  0
 17 38  1  0  0  0  0
 17 39  1  0  0  0  0
M  END
> <idnumber>
Z8396404232

> <heavy_atoms>
23

> <LogS>
-3.714

> <LogP>
2.764

> <rotating_bonds>
5

> <PSA>
57.65

> <hb_acceptors>
4

> <hb_donors>
0

> <Collection>
Advanced

> <link>
https://www.enaminestore.com/catalog/Z8396404232

> <ROCS_ShapeQuery>
x0446_0A_x1080_0A_x0929_0A_x0812_0A_x0719_0A_x1140_0A_x0528_0A_x0310_0A

> <ROCS_TanimotoCombo>
0.467 

> <ROCS_ShapeTanimoto>
0.220 

> <ROCS_ColorTanimoto>
0.247 

> <ROCS_RefTversky>
0.205 

> <ROCS_RefColorTversky>
0.275 

> <ROCS_RefTverskyCombo>
0.480 

> <ROCS_FitTversky>
1.494 

> <ROCS_FitColorTversky>
0.706 

> <ROCS_FitTverskyCombo>
2.199 

> <ROCS_ColorScore>
-9.885

> <ROCS_Overlap>
2425.162

> <ROCS_Rank>
125                 

$$$$
untitled-dbase-186595_7
  -OEChem-02092406493D

 29 31  0     0  0  0  0  0  0999 V2000
   13.3783   14.8489   22.1691 C   0  0  0  0  0  0  0  0  0  0  0  0
   13.2012   14.1184   23.3441 C   0  0  0  0  0  0  0  0  0  0  0  0
   12.2703   15.3480   21.4844 C   0  0  0  0  0  0  0  0  0  0  0  0
   11.9160   13.8871   23.8345 C   0  0  0  0  0  0  0  0  0  0  0  0
    6.7481   13.0745   24.7646 C   0  0  0  0  0  0  0  0  0  0  0  0
    9.6453   10.5780   23.5567 C   0  0  0  0  0  0  0  0  0  0  0  0
    7.9194   12.4612   24.2827 C   0  0  0  0  0  0  0  0  0  0  0  0
   10.9851   15.1167   21.9748 C   0  0  0  0  0  0  0  0  0  0  0  0
   10.8079   14.3862   23.1498 C   0  0  0  0  0  0  0  0  0  0  0  0
    7.6536   11.1058   24.3675 C   0  0  0  0  0  0  0  0  0  0  0  0
    9.1650   12.8314   23.7867 C   0  0  0  0  0  0  0  0  0  0  0  0
    5.6663    9.7827   25.1454 C   0  0  0  0  0  0  0  0  0  0  0  0
    5.8132   12.1891   25.1268 N   0  0  0  0  0  0  0  0  0  0  0  0
    8.4712   10.0988   24.0215 N   0  0  0  0  0  0  0  0  0  0  0  0
   10.0409   11.8659   23.4183 N   0  0  0  0  0  0  0  0  0  0  0  0
    6.3923   11.0007   24.8737 N   0  0  0  0  0  0  0  0  0  0  0  0
    9.8669   15.6330   21.2640 N   0  3  0  0  0  0  0  0  0  0  0  0
   10.0660   16.2851   20.2118 O   0  5  0  0  0  0  0  0  0  0  0  0
    8.7146   15.4213   21.7108 O   0  0  0  0  0  0  0  0  0  0  0  0
    9.5469   14.1424   23.6539 O   0  0  0  0  0  0  0  0  0  0  0  0
   14.3790   15.0288   21.7871 H   0  0  0  0  0  0  0  0  0  0  0  0
   14.0640   13.7299   23.8774 H   0  0  0  0  0  0  0  0  0  0  0  0
   12.4235   15.9159   20.5698 H   0  0  0  0  0  0  0  0  0  0  0  0
   11.7852   13.3172   24.7508 H   0  0  0  0  0  0  0  0  0  0  0  0
    6.5326   14.1285   24.8686 H   0  0  0  0  0  0  0  0  0  0  0  0
   10.3705    9.8308   23.2527 H   0  0  0  0  0  0  0  0  0  0  0  0
    5.8851    9.4817   26.1733 H   0  0  0  0  0  0  0  0  0  0  0  0
    4.5948    9.9615   25.0193 H   0  0  0  0  0  0  0  0  0  0  0  0
    5.9850    9.0076   24.4429 H   0  0  0  0  0  0  0  0  0  0  0  0
  1  2  1  0  0  0  0
  1  3  2  0  0  0  0
  2  4  2  0  0  0  0
  3  8  1  0  0  0  0
  4  9  1  0  0  0  0
  5  7  1  0  0  0  0
  5 13  2  0  0  0  0
  6 14  2  0  0  0  0
  6 15  1  0  0  0  0
  7 10  2  0  0  0  0
  7 11  1  0  0  0  0
  8  9  2  0  0  0  0
  8 17  1  0  0  0  0
  9 20  1  0  0  0  0
 10 14  1  0  0  0  0
 10 16  1  0  0  0  0
 11 15  2  0  0  0  0
 11 20  1  0  0  0  0
 12 16  1  0  0  0  0
 13 16  1  0  0  0  0
 17 18  1  0  0  0  0
 17 19  2  0  0  0  0
  1 21  1  0  0  0  0
  2 22  1  0  0  0  0
  3 23  1  0  0  0  0
  4 24  1  0  0  0  0
  5 25  1  0  0  0  0
  6 26  1  0  0  0  0
 12 27  1  0  0  0  0
 12 28  1  0  0  0  0
 12 29  1  0  0  0  0
M  CHG  2  17   1  18  -1
M  END
> <idnumber>
Z228652994

> <heavy_atoms>
20

> <LogS>
-3.781

> <LogP>
1.097

> <rotating_bonds>
3

> <PSA>
95.97

> <hb_acceptors>
5

> <hb_donors>
0

> <Collection>
HTS

> <link>
https://www.enaminestore.com/catalog/Z228652994

> <ROCS_ShapeQuery>
x0446_0A_x1080_0A_x0929_0A_x0812_0A_x0719_0A_x1140_0A_x0528_0A_x0310_0A

> <ROCS_TanimotoCombo>
0.467 

> <ROCS_ShapeTanimoto>
0.246 

> <ROCS_ColorTanimoto>
0.220 

> <ROCS_RefTversky>
0.223 

> <ROCS_RefColorTversky>
0.233 

> <ROCS_RefTverskyCombo>
0.456 

> <ROCS_FitTversky>
1.729 

> <ROCS_FitColorTversky>
0.798 

> <ROCS_FitTverskyCombo>
2.528 

> <ROCS_ColorScore>
-8.350

> <ROCS_Overlap>
2635.236

> <ROCS_Rank>
126                 

$$$$
untitled-dbase-600608_158
  -OEChem-02092406493D

 47 51  0     0  0  0  0  0  0999 V2000
   13.2976   13.7003   23.8124 C   0  0  0  0  0  0  0  0  0  0  0  0
   14.2648   13.7851   21.6001 C   0  0  0  0  0  0  0  0  0  0  0  0
   13.4723   12.3167   23.8358 C   0  0  0  0  0  0  0  0  0  0  0  0
   14.4396   12.4014   21.6235 C   0  0  0  0  0  0  0  0  0  0  0  0
   13.6938   14.4345   22.6945 C   0  0  0  0  0  0  0  0  0  0  0  0
   14.0433   11.6672   22.7414 C   0  0  0  0  0  0  0  0  0  0  0  0
    9.6290   14.1610   22.2934 C   0  0  0  0  0  0  0  0  0  0  0  0
   10.9932   15.6103   21.6194 C   0  0  0  0  0  0  0  0  0  0  0  0
    9.2181    9.9159   23.1215 C   0  0  0  0  0  0  0  0  0  0  0  0
    7.0571   10.9961   23.7911 C   0  0  0  0  0  0  0  0  0  0  0  0
    9.0426   11.1135   25.3164 C   0  0  0  0  0  0  0  0  0  0  0  0
    8.4322   11.9834   21.9434 C   0  0  0  0  0  0  0  0  0  0  0  0
   10.4233   12.0888   23.4629 C   0  0  0  0  0  0  0  0  0  0  0  0
    8.2423   13.1789   24.1387 C   0  0  0  0  0  0  0  0  0  0  0  0
    7.9833   10.6716   22.6105 C   0  0  0  0  0  0  0  0  0  0  0  0
    9.9741   10.7815   24.1391 C   0  0  0  0  0  0  0  0  0  0  0  0
    7.8011   11.8677   24.8124 C   0  0  0  0  0  0  0  0  0  0  0  0
    9.2003   12.9006   22.9429 C   0  0  0  0  0  0  0  0  0  0  0  0
   13.5054   15.9263   22.6694 C   0  0  0  0  0  0  0  0  0  0  0  0
    8.9065   15.0986   21.7263 N   0  0  0  0  0  0  0  0  0  0  0  0
    9.8040   16.0520   21.2828 N   0  0  0  0  0  0  0  0  0  0  0  0
   14.2208   10.2586   22.7651 N   0  3  0  0  0  0  0  0  0  0  0  0
   13.8572    9.6168   23.7802 O   0  5  0  0  0  0  0  0  0  0  0  0
   14.7369    9.6940   21.7703 O   0  0  0  0  0  0  0  0  0  0  0  0
   10.9663   14.4128   22.2660 O   0  0  0  0  0  0  0  0  0  0  0  0
   12.4702   16.4620   21.2794 S   0  0  0  0  0  0  0  0  0  0  0  0
   12.8517   14.1979   24.6696 H   0  0  0  0  0  0  0  0  0  0  0  0
   14.5767   14.3487   20.7248 H   0  0  0  0  0  0  0  0  0  0  0  0
   13.1589   11.7563   24.7133 H   0  0  0  0  0  0  0  0  0  0  0  0
   14.8859   11.9075   20.7639 H   0  0  0  0  0  0  0  0  0  0  0  0
    8.9137    8.9698   23.5859 H   0  0  0  0  0  0  0  0  0  0  0  0
    9.8767    9.6610   22.2822 H   0  0  0  0  0  0  0  0  0  0  0  0
    6.1611   11.5181   23.4335 H   0  0  0  0  0  0  0  0  0  0  0  0
    6.7162   10.0682   24.2668 H   0  0  0  0  0  0  0  0  0  0  0  0
    8.7380   10.1897   25.8237 H   0  0  0  0  0  0  0  0  0  0  0  0
    9.5761   11.7217   26.0572 H   0  0  0  0  0  0  0  0  0  0  0  0
    9.0685   11.7564   21.0772 H   0  0  0  0  0  0  0  0  0  0  0  0
    7.5554   12.5126   21.5460 H   0  0  0  0  0  0  0  0  0  0  0  0
   10.9971   12.6938   24.1780 H   0  0  0  0  0  0  0  0  0  0  0  0
   11.1073   11.8614   22.6342 H   0  0  0  0  0  0  0  0  0  0  0  0
    7.3593   13.7347   23.7955 H   0  0  0  0  0  0  0  0  0  0  0  0
    8.7421   13.8209   24.8768 H   0  0  0  0  0  0  0  0  0  0  0  0
    7.4481   10.0528   21.8815 H   0  0  0  0  0  0  0  0  0  0  0  0
   10.8517   10.2375   24.5061 H   0  0  0  0  0  0  0  0  0  0  0  0
    7.1396   12.0929   25.6563 H   0  0  0  0  0  0  0  0  0  0  0  0
   13.0463   16.2666   23.6042 H   0  0  0  0  0  0  0  0  0  0  0  0
   14.4771   16.4275   22.5982 H   0  0  0  0  0  0  0  0  0  0  0  0
  1  3  2  0  0  0  0
  1  5  1  0  0  0  0
  2  4  1  0  0  0  0
  2  5  2  0  0  0  0
  3  6  1  0  0  0  0
  4  6  2  0  0  0  0
  5 19  1  0  0  0  0
  6 22  1  0  0  0  0
  7 18  1  0  0  0  0
  7 20  2  0  0  0  0
  7 25  1  0  0  0  0
  8 21  2  0  0  0  0
  8 25  1  0  0  0  0
  8 26  1  0  0  0  0
  9 15  1  0  0  0  0
  9 16  1  0  0  0  0
 10 15  1  0  0  0  0
 10 17  1  0  0  0  0
 11 16  1  0  0  0  0
 11 17  1  0  0  0  0
 12 15  1  0  0  0  0
 12 18  1  0  0  0  0
 13 16  1  0  0  0  0
 13 18  1  0  0  0  0
 14 17  1  0  0  0  0
 14 18  1  0  0  0  0
 19 26  1  0  0  0  0
 20 21  1  0  0  0  0
 22 23  1  0  0  0  0
 22 24  2  0  0  0  0
  1 27  1  0  0  0  0
  2 28  1  0  0  0  0
  3 29  1  0  0  0  0
  4 30  1  0  0  0  0
  9 31  1  0  0  0  0
  9 32  1  0  0  0  0
 10 33  1  0  0  0  0
 10 34  1  0  0  0  0
 11 35  1  0  0  0  0
 11 36  1  0  0  0  0
 12 37  1  0  0  0  0
 12 38  1  0  0  0  0
 13 39  1  0  0  0  0
 13 40  1  0  0  0  0
 14 41  1  0  0  0  0
 14 42  1  0  0  0  0
 15 43  1  0  0  0  0
 16 44  1  0  0  0  0
 17 45  1  0  0  0  0
 19 46  1  0  0  0  0
 19 47  1  0  0  0  0
M  CHG  2  22   1  23  -1
M  END
> <idnumber>
Z152355362

> <heavy_atoms>
26

> <LogS>
-7.05

> <LogP>
4.792

> <rotating_bonds>
5

> <PSA>
82.06

> <hb_acceptors>
4

> <hb_donors>
0

> <Collection>
Legacy

> <link>
https://www.enaminestore.com/catalog/Z152355362

> <ROCS_ShapeQuery>
x0446_0A_x1080_0A_x0929_0A_x0812_0A_x0719_0A_x1140_0A_x0528_0A_x0310_0A

> <ROCS_TanimotoCombo>
0.467 

> <ROCS_ShapeTanimoto>
0.250 

> <ROCS_ColorTanimoto>
0.216 

> <ROCS_RefTversky>
0.230 

> <ROCS_RefColorTversky>
0.247 

> <ROCS_RefTverskyCombo>
0.477 

> <ROCS_FitTversky>
1.552 

> <ROCS_FitColorTversky>
0.635 

> <ROCS_FitTverskyCombo>
2.187 

> <ROCS_ColorScore>
-8.884

> <ROCS_Overlap>
2717.813

> <ROCS_Rank>
127                 

$$$$
untitled-dbase-187126_7
  -OEChem-02092406493D

 29 31  0     0  0  0  0  0  0999 V2000
   11.9165   13.8885   23.8369 C   0  0  0  0  0  0  0  0  0  0  0  0
   13.2018   14.1214   23.3477 C   0  0  0  0  0  0  0  0  0  0  0  0
   12.2711   15.3518   21.4884 C   0  0  0  0  0  0  0  0  0  0  0  0
    6.7488   13.0746   24.7665 C   0  0  0  0  0  0  0  0  0  0  0  0
    9.6451   10.5788   23.5549 C   0  0  0  0  0  0  0  0  0  0  0  0
    7.9199   12.4615   24.2835 C   0  0  0  0  0  0  0  0  0  0  0  0
   10.9858   15.1189   21.9776 C   0  0  0  0  0  0  0  0  0  0  0  0
   10.8085   14.3872   23.1519 C   0  0  0  0  0  0  0  0  0  0  0  0
   13.3791   14.8531   22.1734 C   0  0  0  0  0  0  0  0  0  0  0  0
    7.6538   11.1061   24.3669 C   0  0  0  0  0  0  0  0  0  0  0  0
    9.1654   12.8320   23.7876 C   0  0  0  0  0  0  0  0  0  0  0  0
    5.6664    9.7826   25.1440 C   0  0  0  0  0  0  0  0  0  0  0  0
    5.8138   12.1890   25.1280 N   0  0  0  0  0  0  0  0  0  0  0  0
    8.4711   10.0994   24.0195 N   0  0  0  0  0  0  0  0  0  0  0  0
   10.0410   11.8668   23.4178 N   0  0  0  0  0  0  0  0  0  0  0  0
    6.3926   11.0007   24.8734 N   0  0  0  0  0  0  0  0  0  0  0  0
    9.8670   15.6333   21.2663 N   0  3  0  0  0  0  0  0  0  0  0  0
   10.0657   16.2866   20.2148 O   0  5  0  0  0  0  0  0  0  0  0  0
    8.7149   15.4186   21.7118 O   0  0  0  0  0  0  0  0  0  0  0  0
    9.5476   14.1431   23.6561 O   0  0  0  0  0  0  0  0  0  0  0  0
   14.9651   15.1404   21.5707 Cl  0  0  0  0  0  0  0  0  0  0  0  0
   11.7855   13.3177   24.7523 H   0  0  0  0  0  0  0  0  0  0  0  0
   14.0560   13.7269   23.8916 H   0  0  0  0  0  0  0  0  0  0  0  0
   12.4099   15.9216   20.5718 H   0  0  0  0  0  0  0  0  0  0  0  0
    6.5336   14.1285   24.8717 H   0  0  0  0  0  0  0  0  0  0  0  0
   10.3700    9.8317   23.2499 H   0  0  0  0  0  0  0  0  0  0  0  0
    5.8855    9.4804   26.1715 H   0  0  0  0  0  0  0  0  0  0  0  0
    4.5950    9.9619   25.0185 H   0  0  0  0  0  0  0  0  0  0  0  0
    5.9848    9.0082   24.4405 H   0  0  0  0  0  0  0  0  0  0  0  0
  1  2  2  0  0  0  0
  1  8  1  0  0  0  0
  2  9  1  0  0  0  0
  3  7  1  0  0  0  0
  3  9  2  0  0  0  0
  4  6  1  0  0  0  0
  4 13  2  0  0  0  0
  5 14  2  0  0  0  0
  5 15  1  0  0  0  0
  6 10  2  0  0  0  0
  6 11  1  0  0  0  0
  7  8  2  0  0  0  0
  7 17  1  0  0  0  0
  8 20  1  0  0  0  0
  9 21  1  0  0  0  0
 10 14  1  0  0  0  0
 10 16  1  0  0  0  0
 11 15  2  0  0  0  0
 11 20  1  0  0  0  0
 12 16  1  0  0  0  0
 13 16  1  0  0  0  0
 17 18  1  0  0  0  0
 17 19  2  0  0  0  0
  1 22  1  0  0  0  0
  2 23  1  0  0  0  0
  3 24  1  0  0  0  0
  4 25  1  0  0  0  0
  5 26  1  0  0  0  0
 12 27  1  0  0  0  0
 12 28  1  0  0  0  0
 12 29  1  0  0  0  0
M  CHG  2  17   1  18  -1
M  END
> <idnumber>
Z228923422

> <heavy_atoms>
21

> <LogS>
-4.509

> <LogP>
1.81

> <rotating_bonds>
3

> <PSA>
95.97

> <hb_acceptors>
5

> <hb_donors>
0

> <Collection>
HTS

> <link>
https://www.enaminestore.com/catalog/Z228923422

> <ROCS_ShapeQuery>
x0446_0A_x1080_0A_x0929_0A_x0812_0A_x0719_0A_x1140_0A_x0528_0A_x0310_0A

> <ROCS_TanimotoCombo>
0.467 

> <ROCS_ShapeTanimoto>
0.246 

> <ROCS_ColorTanimoto>
0.220 

> <ROCS_RefTversky>
0.224 

> <ROCS_RefColorTversky>
0.233 

> <ROCS_RefTverskyCombo>
0.457 

> <ROCS_FitTversky>
1.696 

> <ROCS_FitColorTversky>
0.798 

> <ROCS_FitTverskyCombo>
2.494 

> <ROCS_ColorScore>
-8.350

> <ROCS_Overlap>
2641.734

> <ROCS_Rank>
128                 

$$$$
untitled-dbase-228180_78
  -OEChem-02092406493D

 53 58  0     1  0  0  0  0  0999 V2000
   14.0800   15.1784   21.6551 C   0  0  0  0  0  0  0  0  0  0  0  0
   14.3756   16.1516   22.6031 C   0  0  0  0  0  0  0  0  0  0  0  0
   12.7637   14.7679   21.4755 C   0  0  0  0  0  0  0  0  0  0  0  0
   11.7805    8.7236   23.5940 C   0  0  0  0  0  0  0  0  0  0  0  0
   13.3274   16.6788   23.3401 C   0  0  0  0  0  0  0  0  0  0  0  0
   13.1864    8.7376   23.5228 C   0  0  0  0  0  0  0  0  0  0  0  0
    7.8495   14.2573   21.9121 C   0  0  0  0  0  0  0  0  0  0  0  0
   11.7876   15.3569   22.2631 C   0  0  0  0  0  0  0  0  0  0  0  0
   11.4240   10.0500   23.6044 C   0  0  0  0  0  0  0  0  0  0  0  0
    8.3985   15.2845   21.1648 C   0  0  0  0  0  0  0  0  0  0  0  0
    8.6818   13.6206   22.7931 C   0  0  0  0  0  0  0  0  0  0  0  0
   10.4033   14.9819   22.1323 C   0  0  0  0  0  0  0  0  0  0  0  0
   10.0029   11.5534   24.7175 C   0  0  0  0  0  0  0  0  0  0  0  0
   10.1875   10.7272   23.6631 C   0  0  0  0  0  0  0  0  0  0  0  0
    6.4011   14.0768   21.6302 C   0  0  0  0  0  0  0  0  0  0  0  0
    7.3552   15.9189   20.2908 C   0  0  0  0  0  0  0  0  0  0  0  0
    9.0862   10.5809   22.6136 C   0  0  0  0  0  0  0  0  0  0  0  0
    6.2720   14.8279   20.2935 C   0  0  0  0  0  0  0  0  0  0  0  0
    7.6316   11.3653   25.4486 C   0  0  0  0  0  0  0  0  0  0  0  0
    7.0866   10.6424   24.2063 C   0  0  0  0  0  0  0  0  0  0  0  0
    8.7048   12.3163   24.8998 C   0  0  2  0  0  0  0  0  0  0  0  0
    7.7790   11.3207   23.0028 C   0  0  1  0  0  0  0  0  0  0  0  0
   12.7609   12.1871   23.5239 C   0  0  0  0  0  0  0  0  0  0  0  0
   12.0364   16.3051   23.1940 N   0  0  0  0  0  0  0  0  0  0  0  0
   13.6887    9.9748   23.4901 N   0  0  0  0  0  0  0  0  0  0  0  0
    9.6741   15.6876   21.2424 N   0  0  0  0  0  0  0  0  0  0  0  0
    9.9823   13.9625   22.9216 N   0  0  0  0  0  0  0  0  0  0  0  0
   12.5924   10.7505   23.5409 N   0  0  0  0  0  0  0  0  0  0  0  0
    8.1786   12.6143   23.5652 N   0  0  2  0  0  0  0  0  0  0  0  0
   14.8739   14.7397   21.0582 H   0  0  0  0  0  0  0  0  0  0  0  0
   15.3946   16.4851   22.7623 H   0  0  0  0  0  0  0  0  0  0  0  0
   12.5239   14.0097   20.7369 H   0  0  0  0  0  0  0  0  0  0  0  0
   11.1222    7.8676   23.6323 H   0  0  0  0  0  0  0  0  0  0  0  0
   13.5043   17.4406   24.0922 H   0  0  0  0  0  0  0  0  0  0  0  0
   13.8656    7.8978   23.4934 H   0  0  0  0  0  0  0  0  0  0  0  0
   10.7615   11.6763   25.4866 H   0  0  0  0  0  0  0  0  0  0  0  0
    6.1135   13.0274   21.5224 H   0  0  0  0  0  0  0  0  0  0  0  0
    5.7986   14.5543   22.4096 H   0  0  0  0  0  0  0  0  0  0  0  0
    6.9913   16.8409   20.7552 H   0  0  0  0  0  0  0  0  0  0  0  0
    7.7259   16.1245   19.2833 H   0  0  0  0  0  0  0  0  0  0  0  0
    9.4600   10.9790   21.6615 H   0  0  0  0  0  0  0  0  0  0  0  0
    8.8709    9.5168   22.4565 H   0  0  0  0  0  0  0  0  0  0  0  0
    6.4670   14.1280   19.4688 H   0  0  0  0  0  0  0  0  0  0  0  0
    5.2682   15.2354   20.1382 H   0  0  0  0  0  0  0  0  0  0  0  0
    6.8240   11.9397   25.9183 H   0  0  0  0  0  0  0  0  0  0  0  0
    8.0159   10.6589   26.1923 H   0  0  0  0  0  0  0  0  0  0  0  0
    7.2785    9.5652   24.2489 H   0  0  0  0  0  0  0  0  0  0  0  0
    6.0013   10.7860   24.1509 H   0  0  0  0  0  0  0  0  0  0  0  0
    8.8375   13.2107   25.5165 H   0  0  0  0  0  0  0  0  0  0  0  0
    7.0994   11.4098   22.1484 H   0  0  0  0  0  0  0  0  0  0  0  0
   12.8529   12.5282   24.5584 H   0  0  0  0  0  0  0  0  0  0  0  0
   13.6602   12.4415   22.9560 H   0  0  0  0  0  0  0  0  0  0  0  0
   11.8924   12.6471   23.0443 H   0  0  0  0  0  0  0  0  0  0  0  0
  1  2  1  0  0  0  0
  1  3  2  0  0  0  0
  2  5  2  0  0  0  0
  3  8  1  0  0  0  0
  4  6  1  0  0  0  0
  4  9  2  0  0  0  0
  5 24  1  0  0  0  0
  6 25  2  0  0  0  0
  7 10  1  0  0  0  0
  7 11  2  0  0  0  0
  7 15  1  0  0  0  0
  8 12  1  0  0  0  0
  8 24  2  0  0  0  0
  9 14  1  0  0  0  0
  9 28  1  0  0  0  0
 10 16  1  0  0  0  0
 10 26  2  0  0  0  0
 11 27  1  0  0  0  0
 11 29  1  0  0  0  0
 12 26  1  0  0  0  0
 12 27  2  0  0  0  0
 13 14  2  0  0  0  0
 13 21  1  0  0  0  0
 14 17  1  0  0  0  0
 15 18  1  0  0  0  0
 16 18  1  0  0  0  0
 17 22  1  0  0  0  0
 19 20  1  0  0  0  0
 19 21  1  0  0  0  0
 20 22  1  0  0  0  0
 21 29  1  0  0  0  0
 22 29  1  0  0  0  0
 23 28  1  0  0  0  0
 25 28  1  0  0  0  0
  1 30  1  0  0  0  0
  2 31  1  0  0  0  0
  3 32  1  0  0  0  0
  4 33  1  0  0  0  0
  5 34  1  0  0  0  0
  6 35  1  0  0  0  0
 13 36  1  0  0  0  0
 15 37  1  0  0  0  0
 15 38  1  0  0  0  0
 16 39  1  0  0  0  0
 16 40  1  0  0  0  0
 17 41  1  0  0  0  0
 17 42  1  0  0  0  0
 18 43  1  0  0  0  0
 18 44  1  0  0  0  0
 19 45  1  0  0  0  0
 19 46  1  0  0  0  0
 20 47  1  0  0  0  0
 20 48  1  0  0  0  0
 21 49  1  0  0  0  0
 22 50  1  0  0  0  0
 23 51  1  0  0  0  0
 23 52  1  0  0  0  0
 23 53  1  0  0  0  0
M  END
> <idnumber>
Z2017205557

> <heavy_atoms>
29

> <LogS>
-3.911

> <LogP>
2.948

> <rotating_bonds>
3

> <PSA>
59.73

> <hb_acceptors>
5

> <hb_donors>
0

> <Collection>
Advanced

> <link>
https://www.enaminestore.com/catalog/Z2017205557

> <ROCS_ShapeQuery>
x0446_0A_x1080_0A_x0929_0A_x0812_0A_x0719_0A_x1140_0A_x0528_0A_x0310_0A

> <ROCS_TanimotoCombo>
0.467 

> <ROCS_ShapeTanimoto>
0.263 

> <ROCS_ColorTanimoto>
0.203 

> <ROCS_RefTversky>
0.243 

> <ROCS_RefColorTversky>
0.239 

> <ROCS_RefTverskyCombo>
0.482 

> <ROCS_FitTversky>
1.482 

> <ROCS_FitColorTversky>
0.574 

> <ROCS_FitTverskyCombo>
2.056 

> <ROCS_ColorScore>
-8.611

> <ROCS_Overlap>
2871.260

> <ROCS_Rank>
129                 

$$$$
untitled-dbase-630433_14
  -OEChem-02092406493D

 39 41  0     0  0  0  0  0  0999 V2000
   12.2810   14.6908   22.6530 C   0  0  0  0  0  0  0  0  0  0  0  0
   11.1329   14.2668   21.9574 C   0  0  0  0  0  0  0  0  0  0  0  0
   10.3385   15.3853   21.8920 C   0  0  0  0  0  0  0  0  0  0  0  0
    7.4920   11.3125   24.7579 C   0  0  0  0  0  0  0  0  0  0  0  0
    6.7242   13.2901   24.2588 C   0  0  0  0  0  0  0  0  0  0  0  0
    8.4201   10.2349   24.7239 C   0  0  0  0  0  0  0  0  0  0  0  0
    9.5386   10.3981   23.9774 C   0  0  0  0  0  0  0  0  0  0  0  0
    9.7247   11.7110   23.2178 C   0  0  0  0  0  0  0  0  0  0  0  0
    8.1717    8.9539   25.4863 C   0  0  0  0  0  0  0  0  0  0  0  0
   10.6367    9.3798   23.8370 C   0  0  0  0  0  0  0  0  0  0  0  0
   10.6168   17.7428   22.7277 C   0  0  0  0  0  0  0  0  0  0  0  0
   10.8485   12.8969   21.4128 C   0  0  0  0  0  0  0  0  0  0  0  0
    6.6338   14.6347   23.6606 C   0  0  0  0  0  0  0  0  0  0  0  0
   12.2250   15.9782   23.0042 N   0  0  0  0  0  0  0  0  0  0  0  0
    6.3390   11.4714   25.3772 N   0  0  0  0  0  0  0  0  0  0  0  0
    5.8540   12.7217   25.0604 N   0  0  0  0  0  0  0  0  0  0  0  0
    8.8489   12.6882   23.2684 N   0  0  0  0  0  0  0  0  0  0  0  0
   11.0322   16.3729   22.5273 N   0  0  0  0  0  0  0  0  0  0  0  0
    7.7724   12.4446   24.0380 N   0  0  0  0  0  0  0  0  0  0  0  0
    9.1217   15.6076   21.3522 N   0  0  0  0  0  0  0  0  0  0  0  0
   10.8480   11.9025   22.4397 N   0  0  0  0  0  0  0  0  0  0  0  0
    5.5023   15.3312   24.0059 F   0  0  0  0  0  0  0  0  0  0  0  0
    7.6665   15.4732   23.9998 F   0  0  0  0  0  0  0  0  0  0  0  0
    6.6309   14.6188   22.2891 F   0  0  0  0  0  0  0  0  0  0  0  0
   13.1563   14.1165   22.9219 H   0  0  0  0  0  0  0  0  0  0  0  0
    7.6299    8.2648   24.8488 H   0  0  0  0  0  0  0  0  0  0  0  0
    7.5894    9.1790   26.3727 H   0  0  0  0  0  0  0  0  0  0  0  0
    9.1250    8.5254   25.7743 H   0  0  0  0  0  0  0  0  0  0  0  0
   10.4178    8.7302   22.9943 H   0  0  0  0  0  0  0  0  0  0  0  0
   10.6997    8.7915   24.7484 H   0  0  0  0  0  0  0  0  0  0  0  0
   11.5812    9.8909   23.6722 H   0  0  0  0  0  0  0  0  0  0  0  0
   10.0746   17.7956   23.6755 H   0  0  0  0  0  0  0  0  0  0  0  0
   11.4978   18.3902   22.7547 H   0  0  0  0  0  0  0  0  0  0  0  0
    9.9720   18.0498   21.8995 H   0  0  0  0  0  0  0  0  0  0  0  0
    9.8706   12.8728   20.9196 H   0  0  0  0  0  0  0  0  0  0  0  0
   11.5962   12.6074   20.6669 H   0  0  0  0  0  0  0  0  0  0  0  0
    8.6121   14.8798   20.8291 H   0  0  0  0  0  0  0  0  0  0  0  0
    8.6831   16.5407   21.3541 H   0  0  0  0  0  0  0  0  0  0  0  0
   11.6185   11.3225   22.6414 H   0  0  0  0  0  0  0  0  0  0  0  0
  1  2  1  0  0  0  0
  1 14  2  0  0  0  0
  2  3  2  0  0  0  0
  2 12  1  0  0  0  0
  3 18  1  0  0  0  0
  3 20  1  0  0  0  0
  4  6  1  0  0  0  0
  4 15  2  0  0  0  0
  4 19  1  0  0  0  0
  5 13  1  0  0  0  0
  5 16  2  0  0  0  0
  5 19  1  0  0  0  0
  6  7  2  0  0  0  0
  6  9  1  0  0  0  0
  7  8  1  0  0  0  0
  7 10  1  0  0  0  0
  8 17  2  0  0  0  0
  8 21  1  0  0  0  0
 11 18  1  0  0  0  0
 12 21  1  0  0  0  0
 13 22  1  0  0  0  0
 13 23  1  0  0  0  0
 13 24  1  0  0  0  0
 14 18  1  0  0  0  0
 15 16  1  0  0  0  0
 17 19  1  0  0  0  0
  1 25  1  0  0  0  0
  9 26  1  0  0  0  0
  9 27  1  0  0  0  0
  9 28  1  0  0  0  0
 10 29  1  0  0  0  0
 10 30  1  0  0  0  0
 10 31  1  0  0  0  0
 11 32  1  0  0  0  0
 11 33  1  0  0  0  0
 11 34  1  0  0  0  0
 12 35  1  0  0  0  0
 12 36  1  0  0  0  0
 20 37  1  0  0  0  0
 20 38  1  0  0  0  0
 21 39  1  0  0  0  0
M  END
> <idnumber>
Z1587654039

> <heavy_atoms>
24

> <LogS>
-3.01

> <LogP>
0.5

> <rotating_bonds>
4

> <PSA>
98.95

> <hb_acceptors>
6

> <hb_donors>
2

> <Collection>
HTS

> <link>
https://www.enaminestore.com/catalog/Z1587654039

> <ROCS_ShapeQuery>
x0446_0A_x1080_0A_x0929_0A_x0812_0A_x0719_0A_x1140_0A_x0528_0A_x0310_0A

> <ROCS_TanimotoCombo>
0.466 

> <ROCS_ShapeTanimoto>
0.275 

> <ROCS_ColorTanimoto>
0.192 

> <ROCS_RefTversky>
0.246 

> <ROCS_RefColorTversky>
0.213 

> <ROCS_RefTverskyCombo>
0.460 

> <ROCS_FitTversky>
1.722 

> <ROCS_FitColorTversky>
0.656 

> <ROCS_FitTverskyCombo>
2.377 

> <ROCS_ColorScore>
-7.649

> <ROCS_Overlap>
2909.842

> <ROCS_Rank>
130                 

$$$$
untitled-dbase-325191_14
  -OEChem-02092406493D

 47 51  0     0  0  0  0  0  0999 V2000
   12.7200   16.3422   22.8111 C   0  0  0  0  0  0  0  0  0  0  0  0
   12.7944   15.1976   23.6106 C   0  0  0  0  0  0  0  0  0  0  0  0
   11.6072   16.5834   21.9946 C   0  0  0  0  0  0  0  0  0  0  0  0
   11.7629   14.2521   23.6254 C   0  0  0  0  0  0  0  0  0  0  0  0
    7.9115   12.5456   23.8519 C   0  0  0  0  0  0  0  0  0  0  0  0
    6.9135   13.4972   24.2323 C   0  0  0  0  0  0  0  0  0  0  0  0
   10.5664   15.6434   22.0003 C   0  0  0  0  0  0  0  0  0  0  0  0
   10.6686   14.5166   22.8046 C   0  0  0  0  0  0  0  0  0  0  0  0
    5.9070   12.9336   24.9861 C   0  0  0  0  0  0  0  0  0  0  0  0
    9.0897   12.6475   23.1054 C   0  0  0  0  0  0  0  0  0  0  0  0
    7.6055   11.2841   24.3459 C   0  0  0  0  0  0  0  0  0  0  0  0
    9.4401   10.3966   23.4382 C   0  0  0  0  0  0  0  0  0  0  0  0
   12.4713   10.2207   22.7905 C   0  0  0  0  0  0  0  0  0  0  0  0
   12.3317    8.1118   23.9445 C   0  0  0  0  0  0  0  0  0  0  0  0
   13.8790   10.4019   23.3511 C   0  0  0  0  0  0  0  0  0  0  0  0
   13.7423    8.3433   24.4787 C   0  0  0  0  0  0  0  0  0  0  0  0
    6.9386   14.9377   23.8686 C   0  0  0  0  0  0  0  0  0  0  0  0
    4.7068   13.5777   25.5658 C   0  0  0  0  0  0  0  0  0  0  0  0
   10.3190    9.2055   23.1876 C   0  0  0  0  0  0  0  0  0  0  0  0
    9.3778   15.6103   21.3202 N   0  0  0  0  0  0  0  0  0  0  0  0
    9.8598   11.5578   22.8989 N   0  0  0  0  0  0  0  0  0  0  0  0
    8.3358   10.1654   24.1705 N   0  0  0  0  0  0  0  0  0  0  0  0
    8.7335   14.5026   21.6709 N   0  0  0  0  0  0  0  0  0  0  0  0
    9.5039   13.8496   22.5566 N   0  0  0  0  0  0  0  0  0  0  0  0
   11.6693    9.4025   23.7108 N   0  0  0  0  0  0  0  0  0  0  0  0
   14.4987    9.1323   23.5597 O   0  0  0  0  0  0  0  0  0  0  0  0
    6.1547   11.2602   25.2397 S   0  0  0  0  0  0  0  0  0  0  0  0
   13.5389   17.0570   22.8220 H   0  0  0  0  0  0  0  0  0  0  0  0
   13.6710   15.0384   24.2340 H   0  0  0  0  0  0  0  0  0  0  0  0
   11.5580   17.4747   21.3777 H   0  0  0  0  0  0  0  0  0  0  0  0
   11.8213   13.3650   24.2453 H   0  0  0  0  0  0  0  0  0  0  0  0
   12.0107   11.2064   22.6586 H   0  0  0  0  0  0  0  0  0  0  0  0
   12.5303    9.7381   21.8062 H   0  0  0  0  0  0  0  0  0  0  0  0
   12.3849    7.5369   23.0107 H   0  0  0  0  0  0  0  0  0  0  0  0
   11.7676    7.5216   24.6756 H   0  0  0  0  0  0  0  0  0  0  0  0
   14.4942   10.9599   22.6378 H   0  0  0  0  0  0  0  0  0  0  0  0
   13.8697   10.9641   24.2927 H   0  0  0  0  0  0  0  0  0  0  0  0
   13.7291    8.8355   25.4590 H   0  0  0  0  0  0  0  0  0  0  0  0
   14.2582    7.3851   24.5970 H   0  0  0  0  0  0  0  0  0  0  0  0
    6.4196   15.1056   22.9148 H   0  0  0  0  0  0  0  0  0  0  0  0
    6.4534   15.5569   24.6371 H   0  0  0  0  0  0  0  0  0  0  0  0
    7.9683   15.3115   23.7698 H   0  0  0  0  0  0  0  0  0  0  0  0
    3.8619   13.5407   24.8613 H   0  0  0  0  0  0  0  0  0  0  0  0
    4.3903   13.0878   26.5005 H   0  0  0  0  0  0  0  0  0  0  0  0
    4.8911   14.6343   25.8187 H   0  0  0  0  0  0  0  0  0  0  0  0
    9.9009    8.3106   23.6613 H   0  0  0  0  0  0  0  0  0  0  0  0
   10.4024    8.9973   22.1157 H   0  0  0  0  0  0  0  0  0  0  0  0
  1  2  1  0  0  0  0
  1  3  2  0  0  0  0
  2  4  2  0  0  0  0
  3  7  1  0  0  0  0
  4  8  1  0  0  0  0
  5  6  1  0  0  0  0
  5 10  1  0  0  0  0
  5 11  2  0  0  0  0
  6  9  2  0  0  0  0
  6 17  1  0  0  0  0
  7  8  2  0  0  0  0
  7 20  1  0  0  0  0
  8 24  1  0  0  0  0
  9 18  1  0  0  0  0
  9 27  1  0  0  0  0
 10 21  2  0  0  0  0
 10 24  1  0  0  0  0
 11 22  1  0  0  0  0
 11 27  1  0  0  0  0
 12 19  1  0  0  0  0
 12 21  1  0  0  0  0
 12 22  2  0  0  0  0
 13 15  1  0  0  0  0
 13 25  1  0  0  0  0
 14 16  1  0  0  0  0
 14 25  1  0  0  0  0
 15 26  1  0  0  0  0
 16 26  1  0  0  0  0
 19 25  1  0  0  0  0
 20 23  2  0  0  0  0
 23 24  1  0  0  0  0
  1 28  1  0  0  0  0
  2 29  1  0  0  0  0
  3 30  1  0  0  0  0
  4 31  1  0  0  0  0
 13 32  1  0  0  0  0
 13 33  1  0  0  0  0
 14 34  1  0  0  0  0
 14 35  1  0  0  0  0
 15 36  1  0  0  0  0
 15 37  1  0  0  0  0
 16 38  1  0  0  0  0
 16 39  1  0  0  0  0
 17 40  1  0  0  0  0
 17 41  1  0  0  0  0
 17 42  1  0  0  0  0
 18 43  1  0  0  0  0
 18 44  1  0  0  0  0
 18 45  1  0  0  0  0
 19 46  1  0  0  0  0
 19 47  1  0  0  0  0
M  END
> <idnumber>
Z31204146

> <heavy_atoms>
27

> <LogS>
-4.61

> <LogP>
3.506

> <rotating_bonds>
3

> <PSA>
68.96

> <hb_acceptors>
6

> <hb_donors>
0

> <Collection>
HTS

> <link>
https://www.enaminestore.com/catalog/Z31204146

> <ROCS_ShapeQuery>
x0446_0A_x1080_0A_x0929_0A_x0812_0A_x0719_0A_x1140_0A_x0528_0A_x0310_0A

> <ROCS_TanimotoCombo>
0.466 

> <ROCS_ShapeTanimoto>
0.282 

> <ROCS_ColorTanimoto>
0.185 

> <ROCS_RefTversky>
0.253 

> <ROCS_RefColorTversky>
0.211 

> <ROCS_RefTverskyCombo>
0.464 

> <ROCS_FitTversky>
1.649 

> <ROCS_FitColorTversky>
0.597 

> <ROCS_FitTverskyCombo>
2.246 

> <ROCS_ColorScore>
-7.573

> <ROCS_Overlap>
2997.865

> <ROCS_Rank>
131                 

$$$$
untitled-dbase-227189_0
  -OEChem-02092406493D

 48 52  0     1  0  0  0  0  0999 V2000
   13.2356   15.4693   22.0337 C   0  0  0  0  0  0  0  0  0  0  0  0
    6.6226   12.1568   26.3665 C   0  0  0  0  0  0  0  0  0  0  0  0
   13.6701   14.6797   23.0855 C   0  0  0  0  0  0  0  0  0  0  0  0
    6.4047   10.7894   26.1145 C   0  0  0  0  0  0  0  0  0  0  0  0
   11.8854   15.4839   21.7062 C   0  0  0  0  0  0  0  0  0  0  0  0
    7.5033   12.9005   25.5761 C   0  0  0  0  0  0  0  0  0  0  0  0
   12.7531   13.9026   23.8008 C   0  0  0  0  0  0  0  0  0  0  0  0
    7.0625   10.1404   25.0678 C   0  0  0  0  0  0  0  0  0  0  0  0
    6.6107   15.2694   22.7325 C   0  0  0  0  0  0  0  0  0  0  0  0
    6.5315   13.0193   21.8564 C   0  0  0  0  0  0  0  0  0  0  0  0
    5.2502   15.4215   22.4650 C   0  0  0  0  0  0  0  0  0  0  0  0
    5.1710   13.1713   21.5889 C   0  0  0  0  0  0  0  0  0  0  0  0
   10.9656   14.7005   22.4292 C   0  0  0  0  0  0  0  0  0  0  0  0
    8.1489   12.2529   24.5357 C   0  0  0  0  0  0  0  0  0  0  0  0
    7.2514   14.0683   22.4281 C   0  0  0  0  0  0  0  0  0  0  0  0
   11.3753   13.8806   23.4894 C   0  0  0  0  0  0  0  0  0  0  0  0
    7.9256   10.8949   24.2997 C   0  0  0  0  0  0  0  0  0  0  0  0
    4.5304   14.3725   21.8932 C   0  0  0  0  0  0  0  0  0  0  0  0
    9.5373   14.7993   22.0667 C   0  0  0  0  0  0  0  0  0  0  0  0
    9.4029   11.5270   22.6382 C   0  0  0  0  0  0  0  0  0  0  0  0
    9.1596   12.7800   23.5311 C   0  0  1  0  0  0  0  0  0  0  0  0
   10.9637   12.2607   25.2841 C   0  0  0  0  0  0  0  0  0  0  0  0
    2.5279   13.4083   21.0469 C   0  0  0  0  0  0  0  0  0  0  0  0
    8.6702   10.4727   23.2023 N   0  0  0  0  0  0  0  0  0  0  0  0
    8.6597   13.9108   22.7050 N   0  0  0  0  0  0  0  0  0  0  0  0
   10.4510   13.0991   24.1943 N   0  0  1  0  0  0  0  0  0  0  0  0
    9.2088   15.6389   21.2291 O   0  0  0  0  0  0  0  0  0  0  0  0
   10.0993   11.4789   21.6352 O   0  0  0  0  0  0  0  0  0  0  0  0
    3.2028   14.5208   21.6321 O   0  0  0  0  0  0  0  0  0  0  0  0
   13.9428   16.0668   21.4676 H   0  0  0  0  0  0  0  0  0  0  0  0
    6.0983   12.6387   27.1872 H   0  0  0  0  0  0  0  0  0  0  0  0
   14.7214   14.6631   23.3576 H   0  0  0  0  0  0  0  0  0  0  0  0
    5.7115   10.2343   26.7418 H   0  0  0  0  0  0  0  0  0  0  0  0
   11.5624   16.1106   20.8780 H   0  0  0  0  0  0  0  0  0  0  0  0
    7.6685   13.9497   25.7841 H   0  0  0  0  0  0  0  0  0  0  0  0
   13.1540   13.3216   24.6290 H   0  0  0  0  0  0  0  0  0  0  0  0
    6.8904    9.0889   24.8706 H   0  0  0  0  0  0  0  0  0  0  0  0
    7.1619   16.0935   23.1783 H   0  0  0  0  0  0  0  0  0  0  0  0
    7.0203   12.0788   21.6149 H   0  0  0  0  0  0  0  0  0  0  0  0
    4.7567   16.3596   22.7043 H   0  0  0  0  0  0  0  0  0  0  0  0
    4.6155   12.3505   21.1433 H   0  0  0  0  0  0  0  0  0  0  0  0
   10.1319   11.7071   25.7441 H   0  0  0  0  0  0  0  0  0  0  0  0
   11.7005   11.5489   24.8834 H   0  0  0  0  0  0  0  0  0  0  0  0
   11.4436   12.8975   26.0418 H   0  0  0  0  0  0  0  0  0  0  0  0
    1.4760   13.6601   20.8912 H   0  0  0  0  0  0  0  0  0  0  0  0
    2.6122   12.5414   21.7072 H   0  0  0  0  0  0  0  0  0  0  0  0
    2.9912   13.1774   20.0848 H   0  0  0  0  0  0  0  0  0  0  0  0
    8.6816    9.5208   22.8537 H   0  0  0  0  0  0  0  0  0  0  0  0
  1  3  1  0  0  0  0
  1  5  2  0  0  0  0
  2  4  1  0  0  0  0
  2  6  2  0  0  0  0
  3  7  2  0  0  0  0
  4  8  2  0  0  0  0
  5 13  1  0  0  0  0
  6 14  1  0  0  0  0
  7 16  1  0  0  0  0
  8 17  1  0  0  0  0
  9 11  2  0  0  0  0
  9 15  1  0  0  0  0
 10 12  1  0  0  0  0
 10 15  2  0  0  0  0
 11 18  1  0  0  0  0
 12 18  2  0  0  0  0
 13 16  2  0  0  0  0
 13 19  1  0  0  0  0
 14 17  2  0  0  0  0
 14 21  1  0  0  0  0
 15 25  1  0  0  0  0
 16 26  1  0  0  0  0
 17 24  1  0  0  0  0
 18 29  1  0  0  0  0
 19 25  1  0  0  0  0
 19 27  2  0  0  0  0
 20 21  1  0  0  0  0
 20 24  1  0  0  0  0
 20 28  2  0  0  0  0
 21 25  1  0  0  0  0
 21 26  1  0  0  0  0
 22 26  1  0  0  0  0
 23 29  1  0  0  0  0
  1 30  1  0  0  0  0
  2 31  1  0  0  0  0
  3 32  1  0  0  0  0
  4 33  1  0  0  0  0
  5 34  1  0  0  0  0
  6 35  1  0  0  0  0
  7 36  1  0  0  0  0
  8 37  1  0  0  0  0
  9 38  1  0  0  0  0
 10 39  1  0  0  0  0
 11 40  1  0  0  0  0
 12 41  1  0  0  0  0
 22 42  1  0  0  0  0
 22 43  1  0  0  0  0
 22 44  1  0  0  0  0
 23 45  1  0  0  0  0
 23 46  1  0  0  0  0
 23 47  1  0  0  0  0
 24 48  1  0  0  0  0
M  END
> <idnumber>
Z238750748

> <heavy_atoms>
29

> <LogS>
-5.99

> <LogP>
4.332

> <rotating_bonds>
2

> <PSA>
61.88

> <hb_acceptors>
4

> <hb_donors>
1

> <Collection>
Legacy

> <link>
https://www.enaminestore.com/catalog/Z238750748

> <ROCS_ShapeQuery>
x0446_0A_x1080_0A_x0929_0A_x0812_0A_x0719_0A_x1140_0A_x0528_0A_x0310_0A

> <ROCS_TanimotoCombo>
0.466 

> <ROCS_ShapeTanimoto>
0.291 

> <ROCS_ColorTanimoto>
0.175 

> <ROCS_RefTversky>
0.262 

> <ROCS_RefColorTversky>
0.192 

> <ROCS_RefTverskyCombo>
0.455 

> <ROCS_FitTversky>
1.609 

> <ROCS_FitColorTversky>
0.660 

> <ROCS_FitTverskyCombo>
2.269 

> <ROCS_ColorScore>
-6.880

> <ROCS_Overlap>
3104.368

> <ROCS_Rank>
132                 

$$$$
untitled-dbase-525925_111
  -OEChem-02092406493D

 60 66  0     0  0  0  0  0  0999 V2000
    3.8740   14.1846   16.6679 C   0  0  0  0  0  0  0  0  0  0  0  0
    3.6058   12.9682   16.0401 C   0  0  0  0  0  0  0  0  0  0  0  0
   12.4359   15.9655   21.2416 C   0  0  0  0  0  0  0  0  0  0  0  0
   12.6960   14.7470   21.8728 C   0  0  0  0  0  0  0  0  0  0  0  0
    4.1577   14.2243   18.0346 C   0  0  0  0  0  0  0  0  0  0  0  0
    3.6202   11.7838   16.7759 C   0  0  0  0  0  0  0  0  0  0  0  0
   11.1225   16.4126   21.0495 C   0  0  0  0  0  0  0  0  0  0  0  0
   11.6569   13.9322   22.3343 C   0  0  0  0  0  0  0  0  0  0  0  0
    4.1718   13.0389   18.7709 C   0  0  0  0  0  0  0  0  0  0  0  0
    3.9044   11.8248   18.1438 C   0  0  0  0  0  0  0  0  0  0  0  0
   10.0663   15.6066   21.5067 C   0  0  0  0  0  0  0  0  0  0  0  0
   10.3571   14.3975   22.1321 C   0  0  0  0  0  0  0  0  0  0  0  0
    8.1765   14.7530   22.0163 C   0  0  0  0  0  0  0  0  0  0  0  0
    4.4604   12.9970   20.2090 C   0  0  0  0  0  0  0  0  0  0  0  0
    3.9266   10.5901   18.9454 C   0  0  0  0  0  0  0  0  0  0  0  0
    4.7468   14.2258   20.9546 C   0  0  0  0  0  0  0  0  0  0  0  0
    9.1853   10.8153   25.4656 C   0  0  0  0  0  0  0  0  0  0  0  0
    9.1515    9.6360   23.2541 C   0  0  0  0  0  0  0  0  0  0  0  0
    7.0266   10.5503   24.2200 C   0  0  0  0  0  0  0  0  0  0  0  0
   10.2300   11.8917   23.4549 C   0  0  0  0  0  0  0  0  0  0  0  0
    8.0805   12.8164   24.4309 C   0  0  0  0  0  0  0  0  0  0  0  0
    8.0647   11.6410   22.2173 C   0  0  0  0  0  0  0  0  0  0  0  0
    9.9716   10.5542   24.1704 C   0  0  0  0  0  0  0  0  0  0  0  0
    7.8343   11.4740   25.1418 C   0  0  0  0  0  0  0  0  0  0  0  0
    7.8073   10.2983   22.9228 C   0  0  0  0  0  0  0  0  0  0  0  0
    8.8929   12.6173   23.1158 C   0  0  0  0  0  0  0  0  0  0  0  0
    6.7325   14.4967   22.1941 C   0  0  0  0  0  0  0  0  0  0  0  0
    8.7069   15.8105   21.4440 N   0  0  0  0  0  0  0  0  0  0  0  0
    4.4792   11.9095   20.9113 N   0  0  0  0  0  0  0  0  0  0  0  0
    9.1299   13.8730   22.4474 N   0  0  0  0  0  0  0  0  0  0  0  0
    4.2173   10.7377   20.2853 N   0  0  0  0  0  0  0  0  0  0  0  0
    3.6955    9.5040   18.4223 O   0  0  0  0  0  0  0  0  0  0  0  0
    3.8881   14.9004   21.5002 O   0  0  0  0  0  0  0  0  0  0  0  0
    6.0855   14.4561   20.9228 O   0  0  0  0  0  0  0  0  0  0  0  0
    3.8632   15.1050   16.0908 H   0  0  0  0  0  0  0  0  0  0  0  0
    3.3861   12.9438   14.9766 H   0  0  0  0  0  0  0  0  0  0  0  0
   13.2646   16.5774   20.8949 H   0  0  0  0  0  0  0  0  0  0  0  0
   13.7256   14.4247   22.0081 H   0  0  0  0  0  0  0  0  0  0  0  0
    4.3670   15.1856   18.4931 H   0  0  0  0  0  0  0  0  0  0  0  0
    3.4092   10.8461   16.2697 H   0  0  0  0  0  0  0  0  0  0  0  0
   10.9313   17.3613   20.5585 H   0  0  0  0  0  0  0  0  0  0  0  0
   11.8597   12.9869   22.8249 H   0  0  0  0  0  0  0  0  0  0  0  0
    9.0213    9.8708   25.9990 H   0  0  0  0  0  0  0  0  0  0  0  0
    9.7672   11.4610   26.1346 H   0  0  0  0  0  0  0  0  0  0  0  0
    9.7078    9.4321   22.3310 H   0  0  0  0  0  0  0  0  0  0  0  0
    8.9829    8.6695   23.7449 H   0  0  0  0  0  0  0  0  0  0  0  0
    6.8229    9.5989   24.7266 H   0  0  0  0  0  0  0  0  0  0  0  0
    6.0543   11.0037   23.9915 H   0  0  0  0  0  0  0  0  0  0  0  0
   10.8505   12.5366   24.0914 H   0  0  0  0  0  0  0  0  0  0  0  0
   10.8079   11.7186   22.5374 H   0  0  0  0  0  0  0  0  0  0  0  0
    7.1220   13.3055   24.2123 H   0  0  0  0  0  0  0  0  0  0  0  0
    8.6243   13.4942   25.1025 H   0  0  0  0  0  0  0  0  0  0  0  0
    8.5945   11.4670   21.2710 H   0  0  0  0  0  0  0  0  0  0  0  0
    7.1072   12.1069   21.9479 H   0  0  0  0  0  0  0  0  0  0  0  0
   10.9281   10.0760   24.4102 H   0  0  0  0  0  0  0  0  0  0  0  0
    7.2773   11.6471   26.0693 H   0  0  0  0  0  0  0  0  0  0  0  0
    7.2260    9.6423   22.2650 H   0  0  0  0  0  0  0  0  0  0  0  0
    6.5412   13.5370   22.7049 H   0  0  0  0  0  0  0  0  0  0  0  0
    6.2477   15.2809   22.8009 H   0  0  0  0  0  0  0  0  0  0  0  0
    4.2479    9.9242   20.8916 H   0  0  0  0  0  0  0  0  0  0  0  0
  1  2  1  0  0  0  0
  1  5  2  0  0  0  0
  2  6  2  0  0  0  0
  3  4  1  0  0  0  0
  3  7  2  0  0  0  0
  4  8  2  0  0  0  0
  5  9  1  0  0  0  0
  6 10  1  0  0  0  0
  7 11  1  0  0  0  0
  8 12  1  0  0  0  0
  9 10  2  0  0  0  0
  9 14  1  0  0  0  0
 10 15  1  0  0  0  0
 11 12  2  0  0  0  0
 11 28  1  0  0  0  0
 12 30  1  0  0  0  0
 13 27  1  0  0  0  0
 13 28  2  0  0  0  0
 13 30  1  0  0  0  0
 14 16  1  0  0  0  0
 14 29  2  0  0  0  0
 15 31  1  0  0  0  0
 15 32  2  0  0  0  0
 16 33  2  0  0  0  0
 16 34  1  0  0  0  0
 17 23  1  0  0  0  0
 17 24  1  0  0  0  0
 18 23  1  0  0  0  0
 18 25  1  0  0  0  0
 19 24  1  0  0  0  0
 19 25  1  0  0  0  0
 20 23  1  0  0  0  0
 20 26  1  0  0  0  0
 21 24  1  0  0  0  0
 21 26  1  0  0  0  0
 22 25  1  0  0  0  0
 22 26  1  0  0  0  0
 26 30  1  0  0  0  0
 27 34  1  0  0  0  0
 29 31  1  0  0  0  0
  1 35  1  0  0  0  0
  2 36  1  0  0  0  0
  3 37  1  0  0  0  0
  4 38  1  0  0  0  0
  5 39  1  0  0  0  0
  6 40  1  0  0  0  0
  7 41  1  0  0  0  0
  8 42  1  0  0  0  0
 17 43  1  0  0  0  0
 17 44  1  0  0  0  0
 18 45  1  0  0  0  0
 18 46  1  0  0  0  0
 19 47  1  0  0  0  0
 19 48  1  0  0  0  0
 20 49  1  0  0  0  0
 20 50  1  0  0  0  0
 21 51  1  0  0  0  0
 21 52  1  0  0  0  0
 22 53  1  0  0  0  0
 22 54  1  0  0  0  0
 23 55  1  0  0  0  0
 24 56  1  0  0  0  0
 25 57  1  0  0  0  0
 27 58  1  0  0  0  0
 27 59  1  0  0  0  0
 31 60  1  0  0  0  0
M  END
> <idnumber>
Z793204136

> <heavy_atoms>
34

> <LogS>
-6.795

> <LogP>
4.05

> <rotating_bonds>
5

> <PSA>
85.58

> <hb_acceptors>
4

> <hb_donors>
1

> <Collection>
Advanced

> <link>
https://www.enaminestore.com/catalog/Z793204136

> <ROCS_ShapeQuery>
x0446_0A_x1080_0A_x0929_0A_x0812_0A_x0719_0A_x1140_0A_x0528_0A_x0310_0A

> <ROCS_TanimotoCombo>
0.466 

> <ROCS_ShapeTanimoto>
0.283 

> <ROCS_ColorTanimoto>
0.183 

> <ROCS_RefTversky>
0.261 

> <ROCS_RefColorTversky>
0.229 

> <ROCS_RefTverskyCombo>
0.491 

> <ROCS_FitTversky>
1.429 

> <ROCS_FitColorTversky>
0.474 

> <ROCS_FitTverskyCombo>
1.903 

> <ROCS_ColorScore>
-8.297

> <ROCS_Overlap>
3091.880

> <ROCS_Rank>
133                 

$$$$
untitled-dbase-960276_74
  -OEChem-02092406493D

 53 57  0     1  0  0  0  0  0999 V2000
    2.5700   11.0526   19.5897 C   0  0  0  0  0  0  0  0  0  0  0  0
    3.4624   10.4873   18.6788 C   0  0  0  0  0  0  0  0  0  0  0  0
    2.9431   12.1777   20.3249 C   0  0  0  0  0  0  0  0  0  0  0  0
    4.7279   11.0471   18.5032 C   0  0  0  0  0  0  0  0  0  0  0  0
    4.2086   12.7375   20.1494 C   0  0  0  0  0  0  0  0  0  0  0  0
   10.3344   15.9723   21.4311 C   0  0  0  0  0  0  0  0  0  0  0  0
   11.5055   14.0148   22.8067 C   0  0  0  0  0  0  0  0  0  0  0  0
    5.1010   12.1722   19.2385 C   0  0  0  0  0  0  0  0  0  0  0  0
   12.1972   15.1268   22.3595 C   0  0  0  0  0  0  0  0  0  0  0  0
   10.1723   13.9522   22.5019 C   0  0  0  0  0  0  0  0  0  0  0  0
    7.6987   12.7084   21.2069 C   0  0  0  0  0  0  0  0  0  0  0  0
   12.3931   13.0547   23.5140 C   0  0  0  0  0  0  0  0  0  0  0  0
   13.6514   15.0255   22.7200 C   0  0  0  0  0  0  0  0  0  0  0  0
   13.6032   13.9540   23.8215 C   0  0  0  0  0  0  0  0  0  0  0  0
    7.1733   11.3636   23.8688 C   0  0  0  0  0  0  0  0  0  0  0  0
    7.9656   12.3189   24.7724 C   0  0  0  0  0  0  0  0  0  0  0  0
   10.0439   10.9638   24.3518 C   0  0  0  0  0  0  0  0  0  0  0  0
    8.7467   11.9520   21.9657 C   0  0  2  0  0  0  0  0  0  0  0  0
    8.0952   10.7983   22.7680 C   0  0  1  0  0  0  0  0  0  0  0  0
    9.4338   12.3838   24.3181 C   0  0  1  0  0  0  0  0  0  0  0  0
    9.2287   10.0287   23.4582 C   0  0  0  0  0  0  0  0  0  0  0  0
    6.4631   12.7751   19.0502 C   0  0  0  0  0  0  0  0  0  0  0  0
   11.6544   16.1340   21.6621 N   0  0  0  0  0  0  0  0  0  0  0  0
    9.5507   14.9327   21.8111 N   0  0  0  0  0  0  0  0  0  0  0  0
    9.4415   12.8445   22.9133 N   0  0  3  0  0  0  0  0  0  0  0  0
    7.4381   12.1998   19.9487 N   0  0  0  0  0  0  0  0  0  0  0  0
    7.1629   13.6818   21.7237 O   0  0  0  0  0  0  0  0  0  0  0  0
   10.0381    9.4613   22.5299 F   0  0  0  0  0  0  0  0  0  0  0  0
    8.7201    9.0107   24.1948 F   0  0  0  0  0  0  0  0  0  0  0  0
    1.5842   10.6174   19.7253 H   0  0  0  0  0  0  0  0  0  0  0  0
    3.1717    9.6119   18.1054 H   0  0  0  0  0  0  0  0  0  0  0  0
    2.2482   12.6187   21.0334 H   0  0  0  0  0  0  0  0  0  0  0  0
    5.4167   10.5998   17.7914 H   0  0  0  0  0  0  0  0  0  0  0  0
    4.4906   13.6140   20.7267 H   0  0  0  0  0  0  0  0  0  0  0  0
    9.8431   16.7619   20.8753 H   0  0  0  0  0  0  0  0  0  0  0  0
   11.9511   12.6609   24.4335 H   0  0  0  0  0  0  0  0  0  0  0  0
   12.6732   12.2320   22.8482 H   0  0  0  0  0  0  0  0  0  0  0  0
   14.2271   14.6802   21.8556 H   0  0  0  0  0  0  0  0  0  0  0  0
   14.0558   15.9719   23.0881 H   0  0  0  0  0  0  0  0  0  0  0  0
   13.4471   14.4455   24.7920 H   0  0  0  0  0  0  0  0  0  0  0  0
   14.5365   13.3873   23.8948 H   0  0  0  0  0  0  0  0  0  0  0  0
    6.7544   10.5471   24.4694 H   0  0  0  0  0  0  0  0  0  0  0  0
    6.3177   11.8887   23.4292 H   0  0  0  0  0  0  0  0  0  0  0  0
    7.5160   13.3189   24.7456 H   0  0  0  0  0  0  0  0  0  0  0  0
    7.9074   11.9770   25.8127 H   0  0  0  0  0  0  0  0  0  0  0  0
   11.0888   10.9948   24.0217 H   0  0  0  0  0  0  0  0  0  0  0  0
   10.0414   10.5908   25.3827 H   0  0  0  0  0  0  0  0  0  0  0  0
    9.4432   11.5279   21.2333 H   0  0  0  0  0  0  0  0  0  0  0  0
    7.5251   10.1360   22.1073 H   0  0  0  0  0  0  0  0  0  0  0  0
    9.9944   13.0673   24.9668 H   0  0  0  0  0  0  0  0  0  0  0  0
    6.8159   12.6191   18.0249 H   0  0  0  0  0  0  0  0  0  0  0  0
    6.4422   13.8557   19.2261 H   0  0  0  0  0  0  0  0  0  0  0  0
    7.9566   11.3828   19.6406 H   0  0  0  0  0  0  0  0  0  0  0  0
  1  2  1  0  0  0  0
  1  3  2  0  0  0  0
  2  4  2  0  0  0  0
  3  5  1  0  0  0  0
  4  8  1  0  0  0  0
  5  8  2  0  0  0  0
  6 23  1  0  0  0  0
  6 24  2  0  0  0  0
  7  9  1  0  0  0  0
  7 10  2  0  0  0  0
  7 12  1  0  0  0  0
  8 22  1  0  0  0  0
  9 13  1  0  0  0  0
  9 23  2  0  0  0  0
 10 24  1  0  0  0  0
 10 25  1  0  0  0  0
 11 18  1  1  0  0  0
 11 26  1  0  0  0  0
 11 27  2  0  0  0  0
 12 14  1  0  0  0  0
 13 14  1  0  0  0  0
 15 16  1  0  0  0  0
 15 19  1  1  0  0  0
 16 20  1  0  0  0  0
 17 20  1  0  0  0  0
 17 21  1  0  0  0  0
 18 19  1  0  0  0  0
 18 25  1  0  0  0  0
 19 21  1  0  0  0  0
 20 25  1  6  0  0  0
 21 28  1  0  0  0  0
 21 29  1  0  0  0  0
 22 26  1  0  0  0  0
  1 30  1  0  0  0  0
  2 31  1  0  0  0  0
  3 32  1  0  0  0  0
  4 33  1  0  0  0  0
  5 34  1  0  0  0  0
  6 35  1  0  0  0  0
 12 36  1  0  0  0  0
 12 37  1  0  0  0  0
 13 38  1  0  0  0  0
 13 39  1  0  0  0  0
 14 40  1  0  0  0  0
 14 41  1  0  0  0  0
 15 42  1  0  0  0  0
 15 43  1  0  0  0  0
 16 44  1  0  0  0  0
 16 45  1  0  0  0  0
 17 46  1  0  0  0  0
 17 47  1  0  0  0  0
 18 48  1  0  0  0  0
 19 49  1  0  0  0  0
 20 50  1  0  0  0  0
 22 51  1  0  0  0  0
 22 52  1  0  0  0  0
 26 53  1  0  0  0  0
M  END
> <idnumber>
Z2803805992

> <heavy_atoms>
29

> <LogS>
-5.43

> <LogP>
2.852

> <rotating_bonds>
4

> <PSA>
58.12

> <hb_acceptors>
4

> <hb_donors>
1

> <Collection>
Advanced

> <link>
https://www.enaminestore.com/catalog/Z2803805992

> <ROCS_ShapeQuery>
x0446_0A_x1080_0A_x0929_0A_x0812_0A_x0719_0A_x1140_0A_x0528_0A_x0310_0A

> <ROCS_TanimotoCombo>
0.466 

> <ROCS_ShapeTanimoto>
0.275 

> <ROCS_ColorTanimoto>
0.191 

> <ROCS_RefTversky>
0.250 

> <ROCS_RefColorTversky>
0.224 

> <ROCS_RefTverskyCombo>
0.474 

> <ROCS_FitTversky>
1.554 

> <ROCS_FitColorTversky>
0.566 

> <ROCS_FitTverskyCombo>
2.120 

> <ROCS_ColorScore>
-8.063

> <ROCS_Overlap>
2962.171

> <ROCS_Rank>
134                 

$$$$
untitled-dbase-323348_7
  -OEChem-02092406493D

 38 41  0     0  0  0  0  0  0999 V2000
   11.9542   13.9758   23.8846 C   0  0  0  0  0  0  0  0  0  0  0  0
   13.2480   14.2203   23.4380 C   0  0  0  0  0  0  0  0  0  0  0  0
    7.9409   12.5209   24.1814 C   0  0  0  0  0  0  0  0  0  0  0  0
    6.7923   13.2425   24.5807 C   0  0  0  0  0  0  0  0  0  0  0  0
   10.8708   14.4465   23.1511 C   0  0  0  0  0  0  0  0  0  0  0  0
    5.7584   12.4245   24.9466 C   0  0  0  0  0  0  0  0  0  0  0  0
   13.4036   14.9347   22.2610 C   0  0  0  0  0  0  0  0  0  0  0  0
   11.1328   15.1509   21.9870 C   0  0  0  0  0  0  0  0  0  0  0  0
    9.2129   12.8868   23.7350 C   0  0  0  0  0  0  0  0  0  0  0  0
    7.6880   11.1498   24.2757 C   0  0  0  0  0  0  0  0  0  0  0  0
    9.7402   10.6503   23.5589 C   0  0  0  0  0  0  0  0  0  0  0  0
    6.4146   14.6719   24.7104 C   0  0  0  0  0  0  0  0  0  0  0  0
    4.5381   13.1471   25.3731 C   0  0  0  0  0  0  0  0  0  0  0  0
    4.8645   14.5907   24.8796 C   0  0  0  0  0  0  0  0  0  0  0  0
   14.7778   15.2154   21.7519 C   0  0  0  0  0  0  0  0  0  0  0  0
   10.7700    9.6300   23.2020 C   0  0  0  0  0  0  0  0  0  0  0  0
   12.3757   15.4079   21.5213 N   0  0  0  0  0  0  0  0  0  0  0  0
   10.1201   11.9368   23.4212 N   0  0  0  0  0  0  0  0  0  0  0  0
    8.5565   10.1644   23.9754 N   0  0  0  0  0  0  0  0  0  0  0  0
    9.9955   15.6220   21.2548 N   0  3  0  0  0  0  0  0  0  0  0  0
   10.1894   16.2617   20.1999 O   0  5  0  0  0  0  0  0  0  0  0  0
    8.8556   15.3743   21.7009 O   0  0  0  0  0  0  0  0  0  0  0  0
    9.5899   14.2003   23.5991 O   0  0  0  0  0  0  0  0  0  0  0  0
    6.1000   10.7923   24.8349 S   0  0  0  0  0  0  0  0  0  0  0  0
   11.7977   13.4184   24.8040 H   0  0  0  0  0  0  0  0  0  0  0  0
   14.1017   13.8586   24.0010 H   0  0  0  0  0  0  0  0  0  0  0  0
    6.8747   15.1097   25.6024 H   0  0  0  0  0  0  0  0  0  0  0  0
    6.6853   15.2650   23.8326 H   0  0  0  0  0  0  0  0  0  0  0  0
    3.6238   12.7672   24.9094 H   0  0  0  0  0  0  0  0  0  0  0  0
    4.4349   13.1282   26.4628 H   0  0  0  0  0  0  0  0  0  0  0  0
    4.4793   15.3586   25.5575 H   0  0  0  0  0  0  0  0  0  0  0  0
    4.3913   14.7479   23.9012 H   0  0  0  0  0  0  0  0  0  0  0  0
   15.1100   14.4094   21.0866 H   0  0  0  0  0  0  0  0  0  0  0  0
   14.8107   16.1615   21.1966 H   0  0  0  0  0  0  0  0  0  0  0  0
   15.4967   15.3054   22.5765 H   0  0  0  0  0  0  0  0  0  0  0  0
   11.3722    9.3736   24.0815 H   0  0  0  0  0  0  0  0  0  0  0  0
   10.3045    8.7136   22.8183 H   0  0  0  0  0  0  0  0  0  0  0  0
   11.4399   10.0005   22.4159 H   0  0  0  0  0  0  0  0  0  0  0  0
  1  2  2  0  0  0  0
  1  5  1  0  0  0  0
  2  7  1  0  0  0  0
  3  4  1  0  0  0  0
  3  9  2  0  0  0  0
  3 10  1  0  0  0  0
  4  6  2  0  0  0  0
  4 12  1  0  0  0  0
  5  8  2  0  0  0  0
  5 23  1  0  0  0  0
  6 13  1  0  0  0  0
  6 24  1  0  0  0  0
  7 15  1  0  0  0  0
  7 17  2  0  0  0  0
  8 17  1  0  0  0  0
  8 20  1  0  0  0  0
  9 18  1  0  0  0  0
  9 23  1  0  0  0  0
 10 19  2  0  0  0  0
 10 24  1  0  0  0  0
 11 16  1  0  0  0  0
 11 18  2  0  0  0  0
 11 19  1  0  0  0  0
 12 14  1  0  0  0  0
 13 14  1  0  0  0  0
 20 21  1  0  0  0  0
 20 22  2  0  0  0  0
  1 25  1  0  0  0  0
  2 26  1  0  0  0  0
 12 27  1  0  0  0  0
 12 28  1  0  0  0  0
 13 29  1  0  0  0  0
 13 30  1  0  0  0  0
 14 31  1  0  0  0  0
 14 32  1  0  0  0  0
 15 33  1  0  0  0  0
 15 34  1  0  0  0  0
 15 35  1  0  0  0  0
 16 36  1  0  0  0  0
 16 37  1  0  0  0  0
 16 38  1  0  0  0  0
M  CHG  2  20   1  21  -1
M  END
> <idnumber>
Z31110920

> <heavy_atoms>
24

> <LogS>
-5.5

> <LogP>
3.141

> <rotating_bonds>
3

> <PSA>
91.04

> <hb_acceptors>
5

> <hb_donors>
0

> <Collection>
Legacy

> <link>
https://www.enaminestore.com/catalog/Z31110920

> <ROCS_ShapeQuery>
x0446_0A_x1080_0A_x0929_0A_x0812_0A_x0719_0A_x1140_0A_x0528_0A_x0310_0A

> <ROCS_TanimotoCombo>
0.466 

> <ROCS_ShapeTanimoto>
0.267 

> <ROCS_ColorTanimoto>
0.199 

> <ROCS_RefTversky>
0.241 

> <ROCS_RefColorTversky>
0.219 

> <ROCS_RefTverskyCombo>
0.460 

> <ROCS_FitTversky>
1.691 

> <ROCS_FitColorTversky>
0.686 

> <ROCS_FitTverskyCombo>
2.377 

> <ROCS_ColorScore>
-7.846

> <ROCS_Overlap>
2845.425

> <ROCS_Rank>
135                 

$$$$
untitled-dbase-322938_7
  -OEChem-02092406493D

 35 38  0     0  0  0  0  0  0999 V2000
   13.2488   14.2211   23.4382 C   0  0  0  0  0  0  0  0  0  0  0  0
   11.9551   13.9761   23.8850 C   0  0  0  0  0  0  0  0  0  0  0  0
   13.4040   14.9360   22.2615 C   0  0  0  0  0  0  0  0  0  0  0  0
    7.9414   12.5214   24.1821 C   0  0  0  0  0  0  0  0  0  0  0  0
    6.7932   13.2431   24.5821 C   0  0  0  0  0  0  0  0  0  0  0  0
   10.8715   14.4468   23.1519 C   0  0  0  0  0  0  0  0  0  0  0  0
    5.7592   12.4252   24.9480 C   0  0  0  0  0  0  0  0  0  0  0  0
   11.1332   15.1518   21.9881 C   0  0  0  0  0  0  0  0  0  0  0  0
    9.2134   12.8872   23.7354 C   0  0  0  0  0  0  0  0  0  0  0  0
    7.6882   11.1503   24.2757 C   0  0  0  0  0  0  0  0  0  0  0  0
    9.7401   10.6507   23.5580 C   0  0  0  0  0  0  0  0  0  0  0  0
    6.4159   14.6725   24.7128 C   0  0  0  0  0  0  0  0  0  0  0  0
    4.5392   13.1478   25.3752 C   0  0  0  0  0  0  0  0  0  0  0  0
    4.8658   14.5916   24.8824 C   0  0  0  0  0  0  0  0  0  0  0  0
   10.7695    9.6303   23.2002 C   0  0  0  0  0  0  0  0  0  0  0  0
   12.3759   15.4094   21.5223 N   0  0  0  0  0  0  0  0  0  0  0  0
   10.1202   11.9372   23.4209 N   0  0  0  0  0  0  0  0  0  0  0  0
    8.5563   10.1649   23.9746 N   0  0  0  0  0  0  0  0  0  0  0  0
    9.9955   15.6218   21.2559 N   0  3  0  0  0  0  0  0  0  0  0  0
   10.1888   16.2620   20.2011 O   0  5  0  0  0  0  0  0  0  0  0  0
    8.8557   15.3728   21.7016 O   0  0  0  0  0  0  0  0  0  0  0  0
    9.5907   14.2007   23.6002 O   0  0  0  0  0  0  0  0  0  0  0  0
    6.1004   10.7930   24.8352 S   0  0  0  0  0  0  0  0  0  0  0  0
   14.1082   13.8630   23.9932 H   0  0  0  0  0  0  0  0  0  0  0  0
   11.7985   13.4184   24.8041 H   0  0  0  0  0  0  0  0  0  0  0  0
   14.3922   15.1531   21.8696 H   0  0  0  0  0  0  0  0  0  0  0  0
    6.8764   15.1097   25.6048 H   0  0  0  0  0  0  0  0  0  0  0  0
    6.6864   15.2660   23.8352 H   0  0  0  0  0  0  0  0  0  0  0  0
    3.6247   12.7684   24.9116 H   0  0  0  0  0  0  0  0  0  0  0  0
    4.4363   13.1284   26.4649 H   0  0  0  0  0  0  0  0  0  0  0  0
    4.4810   15.3592   25.5609 H   0  0  0  0  0  0  0  0  0  0  0  0
    4.3923   14.7495   23.9042 H   0  0  0  0  0  0  0  0  0  0  0  0
   11.3720    9.3733   24.0794 H   0  0  0  0  0  0  0  0  0  0  0  0
   10.3036    8.7142   22.8162 H   0  0  0  0  0  0  0  0  0  0  0  0
   11.4393   10.0011   22.4141 H   0  0  0  0  0  0  0  0  0  0  0  0
  1  2  2  0  0  0  0
  1  3  1  0  0  0  0
  2  6  1  0  0  0  0
  3 16  2  0  0  0  0
  4  5  1  0  0  0  0
  4  9  1  0  0  0  0
  4 10  2  0  0  0  0
  5  7  2  0  0  0  0
  5 12  1  0  0  0  0
  6  8  2  0  0  0  0
  6 22  1  0  0  0  0
  7 13  1  0  0  0  0
  7 23  1  0  0  0  0
  8 16  1  0  0  0  0
  8 19  1  0  0  0  0
  9 17  2  0  0  0  0
  9 22  1  0  0  0  0
 10 18  1  0  0  0  0
 10 23  1  0  0  0  0
 11 15  1  0  0  0  0
 11 17  1  0  0  0  0
 11 18  2  0  0  0  0
 12 14  1  0  0  0  0
 13 14  1  0  0  0  0
 19 20  1  0  0  0  0
 19 21  2  0  0  0  0
  1 24  1  0  0  0  0
  2 25  1  0  0  0  0
  3 26  1  0  0  0  0
 12 27  1  0  0  0  0
 12 28  1  0  0  0  0
 13 29  1  0  0  0  0
 13 30  1  0  0  0  0
 14 31  1  0  0  0  0
 14 32  1  0  0  0  0
 15 33  1  0  0  0  0
 15 34  1  0  0  0  0
 15 35  1  0  0  0  0
M  CHG  2  19   1  20  -1
M  END
> <idnumber>
Z31112422

> <heavy_atoms>
23

> <LogS>
-5.345

> <LogP>
2.642

> <rotating_bonds>
3

> <PSA>
91.04

> <hb_acceptors>
5

> <hb_donors>
0

> <Collection>
Legacy

> <link>
https://www.enaminestore.com/catalog/Z31112422

> <ROCS_ShapeQuery>
x0446_0A_x1080_0A_x0929_0A_x0812_0A_x0719_0A_x1140_0A_x0528_0A_x0310_0A

> <ROCS_TanimotoCombo>
0.466 

> <ROCS_ShapeTanimoto>
0.267 

> <ROCS_ColorTanimoto>
0.199 

> <ROCS_RefTversky>
0.240 

> <ROCS_RefColorTversky>
0.219 

> <ROCS_RefTverskyCombo>
0.459 

> <ROCS_FitTversky>
1.727 

> <ROCS_FitColorTversky>
0.686 

> <ROCS_FitTverskyCombo>
2.413 

> <ROCS_ColorScore>
-7.846

> <ROCS_Overlap>
2835.688

> <ROCS_Rank>
136                 

$$$$
untitled-dbase-848979_11
  -OEChem-02092406493D

 48 52  0     1  0  0  0  0  0999 V2000
   10.7720   15.9643   21.7911 C   0  0  0  0  0  0  0  0  0  0  0  0
   10.0550   13.9017   21.7926 C   0  0  0  0  0  0  0  0  0  0  0  0
   11.7454   17.0778   21.8804 C   0  0  0  0  0  0  0  0  0  0  0  0
    5.3424   12.1325   24.3721 C   0  0  0  0  0  0  0  0  0  0  0  0
    6.0879   10.7836   24.3226 C   0  0  0  0  0  0  0  0  0  0  0  0
    7.2846   13.3007   23.3284 C   0  0  0  0  0  0  0  0  0  0  0  0
   12.4975   14.2790   22.3403 C   0  0  0  0  0  0  0  0  0  0  0  0
   13.4612   15.4288   22.0654 C   0  0  0  0  0  0  0  0  0  0  0  0
    8.5475   10.0972   24.7849 C   0  0  0  0  0  0  0  0  0  0  0  0
    6.4769   13.1528   24.6451 C   0  0  2  0  0  0  0  0  0  0  0  0
    7.9540   11.9265   23.1840 C   0  0  2  0  0  0  0  0  0  0  0  0
    7.5601   11.2187   24.5156 C   0  0  1  0  0  0  0  0  0  0  0  0
    7.4440   12.3709   25.5657 C   0  0  0  0  0  0  0  0  0  0  0  0
    8.7281   13.1455   25.9193 C   0  0  0  0  0  0  0  0  0  0  0  0
    6.8310   11.9551   26.9216 C   0  0  0  0  0  0  0  0  0  0  0  0
   10.0491   12.4058   21.9207 C   0  0  0  0  0  0  0  0  0  0  0  0
    9.4873   15.9904   21.5066 N   0  0  0  0  0  0  0  0  0  0  0  0
    9.0331   14.6811   21.5094 N   0  0  0  0  0  0  0  0  0  0  0  0
   11.1560   14.6666   21.9710 N   0  0  0  0  0  0  0  0  0  0  0  0
    9.4368   11.9618   23.1906 N   0  0  2  0  0  0  0  0  0  0  0  0
   10.2458    9.5048   22.8669 O   0  0  0  0  0  0  0  0  0  0  0  0
   11.1056   10.8391   24.8387 O   0  0  0  0  0  0  0  0  0  0  0  0
   12.9144   16.6440   22.5966 O   0  0  0  0  0  0  0  0  0  0  0  0
   10.0556   10.5039   23.9002 S   0  0  0  0  0  0  0  0  0  0  0  0
   12.0414   17.4204   20.8833 H   0  0  0  0  0  0  0  0  0  0  0  0
   11.3149   17.9238   22.4237 H   0  0  0  0  0  0  0  0  0  0  0  0
    4.8155   12.3385   23.4344 H   0  0  0  0  0  0  0  0  0  0  0  0
    4.5979   12.1356   25.1750 H   0  0  0  0  0  0  0  0  0  0  0  0
    5.7462   10.1091   25.1146 H   0  0  0  0  0  0  0  0  0  0  0  0
    5.9199   10.2698   23.3696 H   0  0  0  0  0  0  0  0  0  0  0  0
    6.6240   13.5092   22.4795 H   0  0  0  0  0  0  0  0  0  0  0  0
    8.0054   14.1224   23.3861 H   0  0  0  0  0  0  0  0  0  0  0  0
   12.7811   13.3821   21.7821 H   0  0  0  0  0  0  0  0  0  0  0  0
   12.4657   14.0516   23.4115 H   0  0  0  0  0  0  0  0  0  0  0  0
   14.4217   15.2414   22.5557 H   0  0  0  0  0  0  0  0  0  0  0  0
   13.6501   15.5535   20.9923 H   0  0  0  0  0  0  0  0  0  0  0  0
    8.7825    9.9792   25.8449 H   0  0  0  0  0  0  0  0  0  0  0  0
    8.1897    9.1445   24.3825 H   0  0  0  0  0  0  0  0  0  0  0  0
    6.1148   14.1062   25.0367 H   0  0  0  0  0  0  0  0  0  0  0  0
    7.6016   11.3893   22.2951 H   0  0  0  0  0  0  0  0  0  0  0  0
    9.3478   12.5316   26.5633 H   0  0  0  0  0  0  0  0  0  0  0  0
    8.4604   14.0622   26.4327 H   0  0  0  0  0  0  0  0  0  0  0  0
    9.2652   13.3790   25.0068 H   0  0  0  0  0  0  0  0  0  0  0  0
    7.5764   11.4170   27.4939 H   0  0  0  0  0  0  0  0  0  0  0  0
    5.9738   11.3191   26.7393 H   0  0  0  0  0  0  0  0  0  0  0  0
    6.5248   12.8455   27.4565 H   0  0  0  0  0  0  0  0  0  0  0  0
    9.4874   11.9500   21.0980 H   0  0  0  0  0  0  0  0  0  0  0  0
   11.0670   12.0040   21.8814 H   0  0  0  0  0  0  0  0  0  0  0  0
  1  3  1  0  0  0  0
  1 17  2  0  0  0  0
  1 19  1  0  0  0  0
  2 16  1  0  0  0  0
  2 18  2  0  0  0  0
  2 19  1  0  0  0  0
  3 23  1  0  0  0  0
  4  5  1  0  0  0  0
  4 10  1  6  0  0  0
  5 12  1  6  0  0  0
  6 10  1  0  0  0  0
  6 11  1  0  0  0  0
  7  8  1  0  0  0  0
  7 19  1  0  0  0  0
  8 23  1  0  0  0  0
  9 12  1  0  0  0  0
  9 24  1  0  0  0  0
 10 13  1  0  0  0  0
 11 12  1  0  0  0  0
 11 20  1  1  0  0  0
 12 13  1  0  0  0  0
 13 14  1  0  0  0  0
 13 15  1  0  0  0  0
 16 20  1  0  0  0  0
 17 18  1  0  0  0  0
 20 24  1  0  0  0  0
 21 24  2  0  0  0  0
 22 24  2  0  0  0  0
  3 25  1  0  0  0  0
  3 26  1  0  0  0  0
  4 27  1  0  0  0  0
  4 28  1  0  0  0  0
  5 29  1  0  0  0  0
  5 30  1  0  0  0  0
  6 31  1  0  0  0  0
  6 32  1  0  0  0  0
  7 33  1  0  0  0  0
  7 34  1  0  0  0  0
  8 35  1  0  0  0  0
  8 36  1  0  0  0  0
  9 37  1  0  0  0  0
  9 38  1  0  0  0  0
 10 39  1  0  0  0  0
 11 40  1  0  0  0  0
 14 41  1  0  0  0  0
 14 42  1  0  0  0  0
 14 43  1  0  0  0  0
 15 44  1  0  0  0  0
 15 45  1  0  0  0  0
 15 46  1  0  0  0  0
 16 47  1  0  0  0  0
 16 48  1  0  0  0  0
M  END
> <idnumber>
Z1973793890

> <heavy_atoms>
24

> <LogS>
-1.928

> <LogP>
-0.537

> <rotating_bonds>
2

> <PSA>
77.32

> <hb_acceptors>
5

> <hb_donors>
0

> <Collection>
HTS

> <link>
https://www.enaminestore.com/catalog/Z1973793890

> <ROCS_ShapeQuery>
x0446_0A_x1080_0A_x0929_0A_x0812_0A_x0719_0A_x1140_0A_x0528_0A_x0310_0A

> <ROCS_TanimotoCombo>
0.466 

> <ROCS_ShapeTanimoto>
0.263 

> <ROCS_ColorTanimoto>
0.203 

> <ROCS_RefTversky>
0.238 

> <ROCS_RefColorTversky>
0.247 

> <ROCS_RefTverskyCombo>
0.484 

> <ROCS_FitTversky>
1.687 

> <ROCS_FitColorTversky>
0.532 

> <ROCS_FitTverskyCombo>
2.219 

> <ROCS_ColorScore>
-8.919

> <ROCS_Overlap>
2807.207

> <ROCS_Rank>
137                 

$$$$
untitled-dbase-449820_0
  -OEChem-02092406493D

 44 48  0     0  0  0  0  0  0999 V2000
    6.5545   15.3767   22.8080 C   0  0  0  0  0  0  0  0  0  0  0  0
    6.7202   14.2367   20.6843 C   0  0  0  0  0  0  0  0  0  0  0  0
    5.1636   15.2926   22.7446 C   0  0  0  0  0  0  0  0  0  0  0  0
    5.3293   14.1525   20.6210 C   0  0  0  0  0  0  0  0  0  0  0  0
   10.8135   14.5992   22.1849 C   0  0  0  0  0  0  0  0  0  0  0  0
    7.3328   14.8488   21.7778 C   0  0  0  0  0  0  0  0  0  0  0  0
    4.5510   14.6805   21.6512 C   0  0  0  0  0  0  0  0  0  0  0  0
    9.5806   14.0331   22.3911 C   0  0  0  0  0  0  0  0  0  0  0  0
    9.0602   10.9650   25.4227 C   0  0  0  0  0  0  0  0  0  0  0  0
    9.2349    9.7823   23.2192 C   0  0  0  0  0  0  0  0  0  0  0  0
    7.0698   10.8431   23.9043 C   0  0  0  0  0  0  0  0  0  0  0  0
   10.4036   11.9723   23.5625 C   0  0  0  0  0  0  0  0  0  0  0  0
    8.2420   13.0320   24.2616 C   0  0  0  0  0  0  0  0  0  0  0  0
    8.4183   11.8384   22.0376 C   0  0  0  0  0  0  0  0  0  0  0  0
    9.9840   10.6543   24.2367 C   0  0  0  0  0  0  0  0  0  0  0  0
    7.8140   11.7137   24.9300 C   0  0  0  0  0  0  0  0  0  0  0  0
    7.9897   10.5244   22.7142 C   0  0  0  0  0  0  0  0  0  0  0  0
    9.1685   12.7660   23.0385 C   0  0  0  0  0  0  0  0  0  0  0  0
   10.6681   15.7922   21.5328 N   0  0  0  0  0  0  0  0  0  0  0  0
    9.3706   15.9885   21.3255 N   0  0  0  0  0  0  0  0  0  0  0  0
    8.7203   14.9328   21.8410 N   0  0  0  0  0  0  0  0  0  0  0  0
    3.1447   14.5954   21.5871 N   0  0  0  0  0  0  0  0  0  0  0  0
    7.0189   15.8563   23.6662 H   0  0  0  0  0  0  0  0  0  0  0  0
    7.3148   13.8211   19.8743 H   0  0  0  0  0  0  0  0  0  0  0  0
    4.5665   15.7071   23.5529 H   0  0  0  0  0  0  0  0  0  0  0  0
    4.8623   13.6735   19.7642 H   0  0  0  0  0  0  0  0  0  0  0  0
   11.7838   14.2186   22.4659 H   0  0  0  0  0  0  0  0  0  0  0  0
    8.7657   10.0342   25.9231 H   0  0  0  0  0  0  0  0  0  0  0  0
    9.5932   11.5707   26.1658 H   0  0  0  0  0  0  0  0  0  0  0  0
    9.8936    9.5372   22.3771 H   0  0  0  0  0  0  0  0  0  0  0  0
    8.9434    8.8315   23.6823 H   0  0  0  0  0  0  0  0  0  0  0  0
    6.7352    9.9117   24.3776 H   0  0  0  0  0  0  0  0  0  0  0  0
    6.1693   11.3628   23.5539 H   0  0  0  0  0  0  0  0  0  0  0  0
   10.9694   12.5865   24.2762 H   0  0  0  0  0  0  0  0  0  0  0  0
   11.0918   11.7583   22.7334 H   0  0  0  0  0  0  0  0  0  0  0  0
    7.3502   13.5878   23.9414 H   0  0  0  0  0  0  0  0  0  0  0  0
    8.7551   13.6695   24.9942 H   0  0  0  0  0  0  0  0  0  0  0  0
    9.0581   11.6182   21.1724 H   0  0  0  0  0  0  0  0  0  0  0  0
    7.5326   12.3537   21.6419 H   0  0  0  0  0  0  0  0  0  0  0  0
   10.8744   10.1235   24.5921 H   0  0  0  0  0  0  0  0  0  0  0  0
    7.1540   11.9291   25.7778 H   0  0  0  0  0  0  0  0  0  0  0  0
    7.4541    9.8975   21.9926 H   0  0  0  0  0  0  0  0  0  0  0  0
    2.5999   14.9353   22.3536 H   0  0  0  0  0  0  0  0  0  0  0  0
    2.7197   14.1127   20.8213 H   0  0  0  0  0  0  0  0  0  0  0  0
  1  3  2  0  0  0  0
  1  6  1  0  0  0  0
  2  4  1  0  0  0  0
  2  6  2  0  0  0  0
  3  7  1  0  0  0  0
  4  7  2  0  0  0  0
  5  8  2  0  0  0  0
  5 19  1  0  0  0  0
  6 21  1  0  0  0  0
  7 22  1  0  0  0  0
  8 18  1  0  0  0  0
  8 21  1  0  0  0  0
  9 15  1  0  0  0  0
  9 16  1  0  0  0  0
 10 15  1  0  0  0  0
 10 17  1  0  0  0  0
 11 16  1  0  0  0  0
 11 17  1  0  0  0  0
 12 15  1  0  0  0  0
 12 18  1  0  0  0  0
 13 16  1  0  0  0  0
 13 18  1  0  0  0  0
 14 17  1  0  0  0  0
 14 18  1  0  0  0  0
 19 20  2  0  0  0  0
 20 21  1  0  0  0  0
  1 23  1  0  0  0  0
  2 24  1  0  0  0  0
  3 25  1  0  0  0  0
  4 26  1  0  0  0  0
  5 27  1  0  0  0  0
  9 28  1  0  0  0  0
  9 29  1  0  0  0  0
 10 30  1  0  0  0  0
 10 31  1  0  0  0  0
 11 32  1  0  0  0  0
 11 33  1  0  0  0  0
 12 34  1  0  0  0  0
 12 35  1  0  0  0  0
 13 36  1  0  0  0  0
 13 37  1  0  0  0  0
 14 38  1  0  0  0  0
 14 39  1  0  0  0  0
 15 40  1  0  0  0  0
 16 41  1  0  0  0  0
 17 42  1  0  0  0  0
 22 43  1  0  0  0  0
 22 44  1  0  0  0  0
M  END
> <idnumber>
Z56821062

> <heavy_atoms>
22

> <LogS>
-4.41

> <LogP>
4.929

> <rotating_bonds>
2

> <PSA>
56.73

> <hb_acceptors>
3

> <hb_donors>
1

> <Collection>
Legacy

> <link>
https://www.enaminestore.com/catalog/Z56821062

> <ROCS_ShapeQuery>
x0446_0A_x1080_0A_x0929_0A_x0812_0A_x0719_0A_x1140_0A_x0528_0A_x0310_0A

> <ROCS_TanimotoCombo>
0.466 

> <ROCS_ShapeTanimoto>
0.247 

> <ROCS_ColorTanimoto>
0.219 

> <ROCS_RefTversky>
0.225 

> <ROCS_RefColorTversky>
0.249 

> <ROCS_RefTverskyCombo>
0.474 

> <ROCS_FitTversky>
1.659 

> <ROCS_FitColorTversky>
0.640 

> <ROCS_FitTverskyCombo>
2.299 

> <ROCS_ColorScore>
-8.970

> <ROCS_Overlap>
2658.614

> <ROCS_Rank>
138                 

$$$$
untitled-dbase-431537_140
  -OEChem-02092406493D

 44 48  0     0  0  0  0  0  0999 V2000
   12.3115   12.2253   22.8663 C   0  0  0  0  0  0  0  0  0  0  0  0
   13.4701   12.9001   22.4743 C   0  0  0  0  0  0  0  0  0  0  0  0
   11.1585   14.3362   23.2443 C   0  0  0  0  0  0  0  0  0  0  0  0
    9.9715   10.8283   23.6578 C   0  0  0  0  0  0  0  0  0  0  0  0
    7.7129   10.9392   24.4202 C   0  0  0  0  0  0  0  0  0  0  0  0
   11.1622   12.9392   23.2490 C   0  0  0  0  0  0  0  0  0  0  0  0
    8.8141   10.1565   24.0516 C   0  0  0  0  0  0  0  0  0  0  0  0
   13.4401   14.2795   22.4784 C   0  0  0  0  0  0  0  0  0  0  0  0
   12.3152   14.9783   22.8530 C   0  0  0  0  0  0  0  0  0  0  0  0
    9.9730   12.2191   23.6513 C   0  0  0  0  0  0  0  0  0  0  0  0
    6.3913   10.7417   24.8673 C   0  0  0  0  0  0  0  0  0  0  0  0
    7.8492   12.3176   24.3681 C   0  0  0  0  0  0  0  0  0  0  0  0
    7.1016   14.8899   22.5681 C   0  0  0  0  0  0  0  0  0  0  0  0
   13.8627   16.3962   22.3268 C   0  0  0  0  0  0  0  0  0  0  0  0
    5.6980    9.4636   25.1074 C   0  0  0  0  0  0  0  0  0  0  0  0
    5.9533   14.8822   23.5466 C   0  0  0  0  0  0  0  0  0  0  0  0
    6.3007   14.2252   24.8867 C   0  0  0  0  0  0  0  0  0  0  0  0
    8.8033    8.6639   24.0609 C   0  0  0  0  0  0  0  0  0  0  0  0
    8.9352   13.0185   23.9982 N   0  0  0  0  0  0  0  0  0  0  0  0
    5.7400   11.8895   25.0822 N   0  0  0  0  0  0  0  0  0  0  0  0
    7.5378   13.9094   21.8113 N   0  0  0  0  0  0  0  0  0  0  0  0
    8.6005   14.4285   21.1070 N   0  0  0  0  0  0  0  0  0  0  0  0
    8.8089   15.7001   21.4262 N   0  0  0  0  0  0  0  0  0  0  0  0
    7.8707   15.9861   22.3397 N   0  0  0  0  0  0  0  0  0  0  0  0
    6.6509   12.8292   24.7705 N   0  0  0  0  0  0  0  0  0  0  0  0
   14.4669   15.1016   22.1293 O   0  0  0  0  0  0  0  0  0  0  0  0
   12.4970   16.3253   22.7855 O   0  0  0  0  0  0  0  0  0  0  0  0
    9.9849    8.1066   23.6637 F   0  0  0  0  0  0  0  0  0  0  0  0
    8.5515    8.1279   25.2912 F   0  0  0  0  0  0  0  0  0  0  0  0
    7.8540    8.1417   23.2316 F   0  0  0  0  0  0  0  0  0  0  0  0
   12.3123   11.1374   22.8707 H   0  0  0  0  0  0  0  0  0  0  0  0
   14.3582   12.3535   22.1783 H   0  0  0  0  0  0  0  0  0  0  0  0
   10.2813   14.9048   23.5362 H   0  0  0  0  0  0  0  0  0  0  0  0
   10.8552   10.2678   23.3636 H   0  0  0  0  0  0  0  0  0  0  0  0
   14.4529   16.9499   23.0661 H   0  0  0  0  0  0  0  0  0  0  0  0
   13.8859   16.9429   21.3770 H   0  0  0  0  0  0  0  0  0  0  0  0
    5.8389    9.1217   26.1468 H   0  0  0  0  0  0  0  0  0  0  0  0
    4.6113    9.5391   24.9260 H   0  0  0  0  0  0  0  0  0  0  0  0
    6.0611    8.6616   24.4407 H   0  0  0  0  0  0  0  0  0  0  0  0
    5.0840   14.3887   23.0939 H   0  0  0  0  0  0  0  0  0  0  0  0
    5.6455   15.9204   23.7260 H   0  0  0  0  0  0  0  0  0  0  0  0
    7.1283   14.7438   25.3853 H   0  0  0  0  0  0  0  0  0  0  0  0
    5.4386   14.2792   25.5629 H   0  0  0  0  0  0  0  0  0  0  0  0
    7.8254   16.9152   22.7420 H   0  0  0  0  0  0  0  0  0  0  0  0
  1  2  2  0  0  0  0
  1  6  1  0  0  0  0
  2  8  1  0  0  0  0
  3  6  2  0  0  0  0
  3  9  1  0  0  0  0
  4  7  2  0  0  0  0
  4 10  1  0  0  0  0
  5  7  1  0  0  0  0
  5 11  1  0  0  0  0
  5 12  2  0  0  0  0
  6 10  1  0  0  0  0
  7 18  1  0  0  0  0
  8  9  2  0  0  0  0
  8 26  1  0  0  0  0
  9 27  1  0  0  0  0
 10 19  2  0  0  0  0
 11 15  1  0  0  0  0
 11 20  2  0  0  0  0
 12 19  1  0  0  0  0
 12 25  1  0  0  0  0
 13 16  1  0  0  0  0
 13 21  2  0  0  0  0
 13 24  1  0  0  0  0
 14 26  1  0  0  0  0
 14 27  1  0  0  0  0
 16 17  1  0  0  0  0
 17 25  1  0  0  0  0
 18 28  1  0  0  0  0
 18 29  1  0  0  0  0
 18 30  1  0  0  0  0
 20 25  1  0  0  0  0
 21 22  1  0  0  0  0
 22 23  2  0  0  0  0
 23 24  1  0  0  0  0
  1 31  1  0  0  0  0
  2 32  1  0  0  0  0
  3 33  1  0  0  0  0
  4 34  1  0  0  0  0
 14 35  1  0  0  0  0
 14 36  1  0  0  0  0
 15 37  1  0  0  0  0
 15 38  1  0  0  0  0
 15 39  1  0  0  0  0
 16 40  1  0  0  0  0
 16 41  1  0  0  0  0
 17 42  1  0  0  0  0
 17 43  1  0  0  0  0
 24 44  1  0  0  0  0
M  END
> <idnumber>
Z55874767

> <heavy_atoms>
30

> <LogS>
-5.65

> <LogP>
3.151

> <rotating_bonds>
5

> <PSA>
103.63

> <hb_acceptors>
7

> <hb_donors>
1

> <Collection>
HTS

> <link>
https://www.enaminestore.com/catalog/Z55874767

> <ROCS_ShapeQuery>
x0446_0A_x1080_0A_x0929_0A_x0812_0A_x0719_0A_x1140_0A_x0528_0A_x0310_0A

> <ROCS_TanimotoCombo>
0.466 

> <ROCS_ShapeTanimoto>
0.290 

> <ROCS_ColorTanimoto>
0.176 

> <ROCS_RefTversky>
0.263 

> <ROCS_RefColorTversky>
0.215 

> <ROCS_RefTverskyCombo>
0.478 

> <ROCS_FitTversky>
1.560 

> <ROCS_FitColorTversky>
0.490 

> <ROCS_FitTverskyCombo>
2.051 

> <ROCS_ColorScore>
-7.760

> <ROCS_Overlap>
3107.178

> <ROCS_Rank>
139                 

$$$$
untitled-dbase-840964_126
  -OEChem-02092406493D

 46 49  0     0  0  0  0  0  0999 V2000
    6.8829   16.9304   20.6785 C   0  0  0  0  0  0  0  0  0  0  0  0
    6.3164   15.6559   20.6702 C   0  0  0  0  0  0  0  0  0  0  0  0
    7.3094   17.4963   21.8800 C   0  0  0  0  0  0  0  0  0  0  0  0
    6.3654   11.2051   24.8561 C   0  0  0  0  0  0  0  0  0  0  0  0
    6.1762   14.9472   21.8634 C   0  0  0  0  0  0  0  0  0  0  0  0
    7.1692   16.7877   23.0732 C   0  0  0  0  0  0  0  0  0  0  0  0
    5.9962   12.5525   24.8545 C   0  0  0  0  0  0  0  0  0  0  0  0
    9.9103    9.9567   23.0825 C   0  0  0  0  0  0  0  0  0  0  0  0
    8.0086   13.0927   23.6566 C   0  0  0  0  0  0  0  0  0  0  0  0
    9.0348    9.0870   23.7006 C   0  0  0  0  0  0  0  0  0  0  0  0
    8.3798   11.7374   23.6583 C   0  0  0  0  0  0  0  0  0  0  0  0
    7.5496   10.7721   24.2659 C   0  0  0  0  0  0  0  0  0  0  0  0
    9.5721   11.3021   23.0642 C   0  0  0  0  0  0  0  0  0  0  0  0
    6.6027   15.5131   23.0649 C   0  0  0  0  0  0  0  0  0  0  0  0
    6.8186   13.4978   24.2541 C   0  0  0  0  0  0  0  0  0  0  0  0
   11.1229   13.2809   23.0042 C   0  0  0  0  0  0  0  0  0  0  0  0
   11.1742   15.0651   21.2772 C   0  0  0  0  0  0  0  0  0  0  0  0
   13.2145   14.5741   22.6915 C   0  0  0  0  0  0  0  0  0  0  0  0
   10.9892   16.3172   22.1282 C   0  0  0  0  0  0  0  0  0  0  0  0
   12.8933   15.8574   23.4503 C   0  0  0  0  0  0  0  0  0  0  0  0
   11.9957   13.9933   21.9838 C   0  0  0  0  0  0  0  0  0  0  0  0
    7.8753    9.4658   24.2853 N   0  0  0  0  0  0  0  0  0  0  0  0
   10.4655   12.1991   22.4322 N   0  0  0  0  0  0  0  0  0  0  0  0
   11.0657   13.6735   24.1650 O   0  0  0  0  0  0  0  0  0  0  0  0
   12.2449   16.8006   22.6000 O   0  0  0  0  0  0  0  0  0  0  0  0
    6.4622   14.8104   24.2504 O   0  0  0  0  0  0  0  0  0  0  0  0
    6.9928   17.4823   19.7495 H   0  0  0  0  0  0  0  0  0  0  0  0
    5.9841   15.2151   19.7347 H   0  0  0  0  0  0  0  0  0  0  0  0
    7.7507   18.4889   21.8856 H   0  0  0  0  0  0  0  0  0  0  0  0
    5.7031   10.4846   25.3326 H   0  0  0  0  0  0  0  0  0  0  0  0
    5.7328   13.9553   21.8503 H   0  0  0  0  0  0  0  0  0  0  0  0
    7.5016   17.2342   24.0064 H   0  0  0  0  0  0  0  0  0  0  0  0
    5.0643   12.8539   25.3252 H   0  0  0  0  0  0  0  0  0  0  0  0
   10.8259    9.5892   22.6317 H   0  0  0  0  0  0  0  0  0  0  0  0
    8.6377   13.8493   23.1926 H   0  0  0  0  0  0  0  0  0  0  0  0
    9.2463    8.0237   23.7459 H   0  0  0  0  0  0  0  0  0  0  0  0
   10.1961   14.6793   20.9675 H   0  0  0  0  0  0  0  0  0  0  0  0
   11.7133   15.3523   20.3651 H   0  0  0  0  0  0  0  0  0  0  0  0
   13.9647   14.8109   21.9261 H   0  0  0  0  0  0  0  0  0  0  0  0
   13.6648   13.8430   23.3727 H   0  0  0  0  0  0  0  0  0  0  0  0
   10.5309   17.1090   21.5270 H   0  0  0  0  0  0  0  0  0  0  0  0
   10.3262   16.1283   22.9806 H   0  0  0  0  0  0  0  0  0  0  0  0
   12.2654   15.6627   24.3273 H   0  0  0  0  0  0  0  0  0  0  0  0
   13.8205   16.3153   23.8097 H   0  0  0  0  0  0  0  0  0  0  0  0
   12.3039   13.2322   21.2784 H   0  0  0  0  0  0  0  0  0  0  0  0
   10.6381   12.0195   21.4452 H   0  0  0  0  0  0  0  0  0  0  0  0
  1  2  1  0  0  0  0
  1  3  2  0  0  0  0
  2  5  2  0  0  0  0
  3  6  1  0  0  0  0
  4  7  2  0  0  0  0
  4 12  1  0  0  0  0
  5 14  1  0  0  0  0
  6 14  2  0  0  0  0
  7 15  1  0  0  0  0
  8 10  2  0  0  0  0
  8 13  1  0  0  0  0
  9 11  1  0  0  0  0
  9 15  2  0  0  0  0
 10 22  1  0  0  0  0
 11 12  1  0  0  0  0
 11 13  2  0  0  0  0
 12 22  2  0  0  0  0
 13 23  1  0  0  0  0
 14 26  1  0  0  0  0
 15 26  1  0  0  0  0
 16 21  1  0  0  0  0
 16 23  1  0  0  0  0
 16 24  2  0  0  0  0
 17 19  1  0  0  0  0
 17 21  1  0  0  0  0
 18 20  1  0  0  0  0
 18 21  1  0  0  0  0
 19 25  1  0  0  0  0
 20 25  1  0  0  0  0
  1 27  1  0  0  0  0
  2 28  1  0  0  0  0
  3 29  1  0  0  0  0
  4 30  1  0  0  0  0
  5 31  1  0  0  0  0
  6 32  1  0  0  0  0
  7 33  1  0  0  0  0
  8 34  1  0  0  0  0
  9 35  1  0  0  0  0
 10 36  1  0  0  0  0
 17 37  1  0  0  0  0
 17 38  1  0  0  0  0
 18 39  1  0  0  0  0
 18 40  1  0  0  0  0
 19 41  1  0  0  0  0
 19 42  1  0  0  0  0
 20 43  1  0  0  0  0
 20 44  1  0  0  0  0
 21 45  1  0  0  0  0
 23 46  1  0  0  0  0
M  END
> <idnumber>
Z1913923284

> <heavy_atoms>
26

> <LogS>
-4.485

> <LogP>
3.606

> <rotating_bonds>
4

> <PSA>
60.45

> <hb_acceptors>
3

> <hb_donors>
1

> <Collection>
HTS

> <link>
https://www.enaminestore.com/catalog/Z1913923284

> <ROCS_ShapeQuery>
x0446_0A_x1080_0A_x0929_0A_x0812_0A_x0719_0A_x1140_0A_x0528_0A_x0310_0A

> <ROCS_TanimotoCombo>
0.466 

> <ROCS_ShapeTanimoto>
0.278 

> <ROCS_ColorTanimoto>
0.188 

> <ROCS_RefTversky>
0.250 

> <ROCS_RefColorTversky>
0.204 

> <ROCS_RefTverskyCombo>
0.454 

> <ROCS_FitTversky>
1.676 

> <ROCS_FitColorTversky>
0.702 

> <ROCS_FitTverskyCombo>
2.379 

> <ROCS_ColorScore>
-7.315

> <ROCS_Overlap>
2950.593

> <ROCS_Rank>
140                 

$$$$
untitled-dbase-412325_48
  -OEChem-02092406493D

 46 50  0     0  0  0  0  0  0999 V2000
   13.5642   14.7212   22.1968 C   0  0  0  0  0  0  0  0  0  0  0  0
   13.3713   13.9390   23.3355 C   0  0  0  0  0  0  0  0  0  0  0  0
   12.7478    8.7573   22.5644 C   0  0  0  0  0  0  0  0  0  0  0  0
   11.9063    9.7587   23.0356 C   0  0  0  0  0  0  0  0  0  0  0  0
   12.4717   15.3170   21.5666 C   0  0  0  0  0  0  0  0  0  0  0  0
   12.0858   13.7526   23.8440 C   0  0  0  0  0  0  0  0  0  0  0  0
   12.1657    7.6196   22.0289 C   0  0  0  0  0  0  0  0  0  0  0  0
   10.0450    8.4193   22.4048 C   0  0  0  0  0  0  0  0  0  0  0  0
    8.0099   12.5469   24.3130 C   0  0  0  0  0  0  0  0  0  0  0  0
   10.5277    9.5943   22.9581 C   0  0  0  0  0  0  0  0  0  0  0  0
   11.1862   15.1306   22.0751 C   0  0  0  0  0  0  0  0  0  0  0  0
    6.9432   13.3105   24.8408 C   0  0  0  0  0  0  0  0  0  0  0  0
   10.9933   14.3484   23.2138 C   0  0  0  0  0  0  0  0  0  0  0  0
    5.8810   12.5368   25.2216 C   0  0  0  0  0  0  0  0  0  0  0  0
    9.2724   12.8611   23.8043 C   0  0  0  0  0  0  0  0  0  0  0  0
    7.6686   11.1919   24.3304 C   0  0  0  0  0  0  0  0  0  0  0  0
    9.6295   10.6140   23.4384 C   0  0  0  0  0  0  0  0  0  0  0  0
   10.0596   15.7615   21.4018 C   0  0  0  0  0  0  0  0  0  0  0  0
    6.6757   14.7480   25.0947 C   0  0  0  0  0  0  0  0  0  0  0  0
    4.7447   13.3040   25.7815 C   0  0  0  0  0  0  0  0  0  0  0  0
    5.1381   14.7556   25.3666 C   0  0  0  0  0  0  0  0  0  0  0  0
    9.4045   17.6462   20.0967 C   0  0  0  0  0  0  0  0  0  0  0  0
   10.8312    7.4241   21.9366 N   0  0  0  0  0  0  0  0  0  0  0  0
   10.0884   11.8797   23.3630 N   0  0  0  0  0  0  0  0  0  0  0  0
    8.4445   10.1768   23.9028 N   0  0  0  0  0  0  0  0  0  0  0  0
    8.9113   15.3016   21.3819 O   0  0  0  0  0  0  0  0  0  0  0  0
    9.7305   14.1538   23.7329 O   0  0  0  0  0  0  0  0  0  0  0  0
   10.4291   16.9293   20.7938 O   0  0  0  0  0  0  0  0  0  0  0  0
    6.0997   10.8985   24.9742 S   0  0  0  0  0  0  0  0  0  0  0  0
   14.5654   14.8662   21.8011 H   0  0  0  0  0  0  0  0  0  0  0  0
   14.2222   13.4750   23.8253 H   0  0  0  0  0  0  0  0  0  0  0  0
   13.8254    8.8634   22.6135 H   0  0  0  0  0  0  0  0  0  0  0  0
   12.3384   10.6613   23.4606 H   0  0  0  0  0  0  0  0  0  0  0  0
   12.6340   15.9249   20.6802 H   0  0  0  0  0  0  0  0  0  0  0  0
   11.9425   13.1422   24.7315 H   0  0  0  0  0  0  0  0  0  0  0  0
   12.7788    6.8091   21.6480 H   0  0  0  0  0  0  0  0  0  0  0  0
    8.9792    8.2300   22.3144 H   0  0  0  0  0  0  0  0  0  0  0  0
    7.2227   15.0885   25.9801 H   0  0  0  0  0  0  0  0  0  0  0  0
    6.9293   15.3849   24.2429 H   0  0  0  0  0  0  0  0  0  0  0  0
    3.7777   13.0192   25.3582 H   0  0  0  0  0  0  0  0  0  0  0  0
    4.7119   13.2121   26.8720 H   0  0  0  0  0  0  0  0  0  0  0  0
    4.8523   15.4953   26.1209 H   0  0  0  0  0  0  0  0  0  0  0  0
    4.6138   15.0138   24.4368 H   0  0  0  0  0  0  0  0  0  0  0  0
    9.8271   18.5540   19.6591 H   0  0  0  0  0  0  0  0  0  0  0  0
    8.6014   17.9038   20.7919 H   0  0  0  0  0  0  0  0  0  0  0  0
    9.0056   17.0125   19.3011 H   0  0  0  0  0  0  0  0  0  0  0  0
  1  2  1  0  0  0  0
  1  5  2  0  0  0  0
  2  6  2  0  0  0  0
  3  4  2  0  0  0  0
  3  7  1  0  0  0  0
  4 10  1  0  0  0  0
  5 11  1  0  0  0  0
  6 13  1  0  0  0  0
  7 23  2  0  0  0  0
  8 10  2  0  0  0  0
  8 23  1  0  0  0  0
  9 12  1  0  0  0  0
  9 15  2  0  0  0  0
  9 16  1  0  0  0  0
 10 17  1  0  0  0  0
 11 13  2  0  0  0  0
 11 18  1  0  0  0  0
 12 14  2  0  0  0  0
 12 19  1  0  0  0  0
 13 27  1  0  0  0  0
 14 20  1  0  0  0  0
 14 29  1  0  0  0  0
 15 24  1  0  0  0  0
 15 27  1  0  0  0  0
 16 25  2  0  0  0  0
 16 29  1  0  0  0  0
 17 24  2  0  0  0  0
 17 25  1  0  0  0  0
 18 26  2  0  0  0  0
 18 28  1  0  0  0  0
 19 21  1  0  0  0  0
 20 21  1  0  0  0  0
 22 28  1  0  0  0  0
  1 30  1  0  0  0  0
  2 31  1  0  0  0  0
  3 32  1  0  0  0  0
  4 33  1  0  0  0  0
  5 34  1  0  0  0  0
  6 35  1  0  0  0  0
  7 36  1  0  0  0  0
  8 37  1  0  0  0  0
 19 38  1  0  0  0  0
 19 39  1  0  0  0  0
 20 40  1  0  0  0  0
 20 41  1  0  0  0  0
 21 42  1  0  0  0  0
 21 43  1  0  0  0  0
 22 44  1  0  0  0  0
 22 45  1  0  0  0  0
 22 46  1  0  0  0  0
M  END
> <idnumber>
Z52589785

> <heavy_atoms>
29

> <LogS>
-6.78

> <LogP>
4.417

> <rotating_bonds>
5

> <PSA>
74.2

> <hb_acceptors>
4

> <hb_donors>
0

> <Collection>
Legacy

> <link>
https://www.enaminestore.com/catalog/Z52589785

> <ROCS_ShapeQuery>
x0446_0A_x1080_0A_x0929_0A_x0812_0A_x0719_0A_x1140_0A_x0528_0A_x0310_0A

> <ROCS_TanimotoCombo>
0.466 

> <ROCS_ShapeTanimoto>
0.280 

> <ROCS_ColorTanimoto>
0.185 

> <ROCS_RefTversky>
0.254 

> <ROCS_RefColorTversky>
0.206 

> <ROCS_RefTverskyCombo>
0.460 

> <ROCS_FitTversky>
1.574 

> <ROCS_FitColorTversky>
0.647 

> <ROCS_FitTverskyCombo>
2.221 

> <ROCS_ColorScore>
-7.386

> <ROCS_Overlap>
3008.729

> <ROCS_Rank>
141                 

$$$$
untitled-dbase-600651_45
  -OEChem-02092406493D

 50 55  0     0  0  0  0  0  0999 V2000
    3.6480   10.5128   18.4191 C   0  0  0  0  0  0  0  0  0  0  0  0
    2.9724   10.6679   19.6295 C   0  0  0  0  0  0  0  0  0  0  0  0
    4.4620   11.5384   17.9383 C   0  0  0  0  0  0  0  0  0  0  0  0
    3.1106   11.8487   20.3590 C   0  0  0  0  0  0  0  0  0  0  0  0
    4.6003   12.7192   18.6678 C   0  0  0  0  0  0  0  0  0  0  0  0
    3.9246   12.8744   19.8782 C   0  0  0  0  0  0  0  0  0  0  0  0
    4.0674   14.0881   20.6289 C   0  0  0  0  0  0  0  0  0  0  0  0
    8.5011   14.2649   22.4145 C   0  0  0  0  0  0  0  0  0  0  0  0
    4.7990   16.0188   21.0198 C   0  0  0  0  0  0  0  0  0  0  0  0
    7.7582   16.1949   22.0415 C   0  0  0  0  0  0  0  0  0  0  0  0
    9.8900   10.8344   24.6901 C   0  0  0  0  0  0  0  0  0  0  0  0
    8.4986    9.9382   22.8072 C   0  0  0  0  0  0  0  0  0  0  0  0
    7.3892   10.8628   24.8557 C   0  0  0  0  0  0  0  0  0  0  0  0
    9.7498   12.0912   22.5267 C   0  0  0  0  0  0  0  0  0  0  0  0
    8.6521   13.0131   24.5832 C   0  0  0  0  0  0  0  0  0  0  0  0
    7.2478   12.1085   22.6828 C   0  0  0  0  0  0  0  0  0  0  0  0
    9.7874   10.6917   23.1650 C   0  0  0  0  0  0  0  0  0  0  0  0
    8.6795   11.6138   25.2229 C   0  0  0  0  0  0  0  0  0  0  0  0
    7.2804   10.7125   23.3294 C   0  0  0  0  0  0  0  0  0  0  0  0
    8.5302   12.9194   23.0335 C   0  0  0  0  0  0  0  0  0  0  0  0
    5.5895   17.2707   20.7561 C   0  0  0  0  0  0  0  0  0  0  0  0
    3.5366   14.4486   21.7739 N   0  0  0  0  0  0  0  0  0  0  0  0
    9.3252   14.8060   21.5480 N   0  0  0  0  0  0  0  0  0  0  0  0
    4.0178   15.7189   22.0310 N   0  0  0  0  0  0  0  0  0  0  0  0
    8.8365   16.0757   21.3027 N   0  0  0  0  0  0  0  0  0  0  0  0
    4.8827   15.0327   20.0853 O   0  0  0  0  0  0  0  0  0  0  0  0
    7.4777   15.0853   22.7783 O   0  0  0  0  0  0  0  0  0  0  0  0
    6.7721   17.6260   22.0848 S   0  0  0  0  0  0  0  0  0  0  0  0
    3.5409    9.5931   17.8514 H   0  0  0  0  0  0  0  0  0  0  0  0
    2.3385    9.8692   20.0036 H   0  0  0  0  0  0  0  0  0  0  0  0
    4.9890   11.4171   16.9963 H   0  0  0  0  0  0  0  0  0  0  0  0
    2.5795   11.9533   21.3021 H   0  0  0  0  0  0  0  0  0  0  0  0
    5.2377   13.5098   18.2790 H   0  0  0  0  0  0  0  0  0  0  0  0
    9.9338    9.8431   25.1579 H   0  0  0  0  0  0  0  0  0  0  0  0
   10.8185   11.3537   24.9574 H   0  0  0  0  0  0  0  0  0  0  0  0
    8.4263    9.8126   21.7199 H   0  0  0  0  0  0  0  0  0  0  0  0
    8.5189    8.9317   23.2430 H   0  0  0  0  0  0  0  0  0  0  0  0
    7.3851    9.8734   25.3296 H   0  0  0  0  0  0  0  0  0  0  0  0
    6.5169   11.4040   25.2426 H   0  0  0  0  0  0  0  0  0  0  0  0
   10.6843   12.6231   22.7514 H   0  0  0  0  0  0  0  0  0  0  0  0
    9.7101   11.9955   21.4330 H   0  0  0  0  0  0  0  0  0  0  0  0
    7.8085   13.5866   24.9907 H   0  0  0  0  0  0  0  0  0  0  0  0
    9.5609   13.5647   24.8593 H   0  0  0  0  0  0  0  0  0  0  0  0
    7.1477   12.0102   21.5935 H   0  0  0  0  0  0  0  0  0  0  0  0
    6.3566   12.6513   23.0258 H   0  0  0  0  0  0  0  0  0  0  0  0
   10.6547   10.1386   22.7875 H   0  0  0  0  0  0  0  0  0  0  0  0
    8.7527   11.7093   26.3120 H   0  0  0  0  0  0  0  0  0  0  0  0
    6.3627   10.1696   23.0775 H   0  0  0  0  0  0  0  0  0  0  0  0
    6.1357   17.1824   19.8104 H   0  0  0  0  0  0  0  0  0  0  0  0
    4.9141   18.1267   20.6478 H   0  0  0  0  0  0  0  0  0  0  0  0
  1  2  1  0  0  0  0
  1  3  2  0  0  0  0
  2  4  2  0  0  0  0
  3  5  1  0  0  0  0
  4  6  1  0  0  0  0
  5  6  2  0  0  0  0
  6  7  1  0  0  0  0
  7 22  2  0  0  0  0
  7 26  1  0  0  0  0
  8 20  1  0  0  0  0
  8 23  2  0  0  0  0
  8 27  1  0  0  0  0
  9 21  1  0  0  0  0
  9 24  2  0  0  0  0
  9 26  1  0  0  0  0
 10 25  2  0  0  0  0
 10 27  1  0  0  0  0
 10 28  1  0  0  0  0
 11 17  1  0  0  0  0
 11 18  1  0  0  0  0
 12 17  1  0  0  0  0
 12 19  1  0  0  0  0
 13 18  1  0  0  0  0
 13 19  1  0  0  0  0
 14 17  1  0  0  0  0
 14 20  1  0  0  0  0
 15 18  1  0  0  0  0
 15 20  1  0  0  0  0
 16 19  1  0  0  0  0
 16 20  1  0  0  0  0
 21 28  1  0  0  0  0
 22 24  1  0  0  0  0
 23 25  1  0  0  0  0
  1 29  1  0  0  0  0
  2 30  1  0  0  0  0
  3 31  1  0  0  0  0
  4 32  1  0  0  0  0
  5 33  1  0  0  0  0
 11 34  1  0  0  0  0
 11 35  1  0  0  0  0
 12 36  1  0  0  0  0
 12 37  1  0  0  0  0
 13 38  1  0  0  0  0
 13 39  1  0  0  0  0
 14 40  1  0  0  0  0
 14 41  1  0  0  0  0
 15 42  1  0  0  0  0
 15 43  1  0  0  0  0
 16 44  1  0  0  0  0
 16 45  1  0  0  0  0
 17 46  1  0  0  0  0
 18 47  1  0  0  0  0
 19 48  1  0  0  0  0
 21 49  1  0  0  0  0
 21 50  1  0  0  0  0
M  END
> <idnumber>
Z152356624

> <heavy_atoms>
28

> <LogS>
-7.06

> <LogP>
3.599

> <rotating_bonds>
5

> <PSA>
77.84

> <hb_acceptors>
4

> <hb_donors>
0

> <Collection>
Legacy

> <link>
https://www.enaminestore.com/catalog/Z152356624

> <ROCS_ShapeQuery>
x0446_0A_x1080_0A_x0929_0A_x0812_0A_x0719_0A_x1140_0A_x0528_0A_x0310_0A

> <ROCS_TanimotoCombo>
0.465 

> <ROCS_ShapeTanimoto>
0.231 

> <ROCS_ColorTanimoto>
0.234 

> <ROCS_RefTversky>
0.217 

> <ROCS_RefColorTversky>
0.270 

> <ROCS_RefTverskyCombo>
0.487 

> <ROCS_FitTversky>
1.380 

> <ROCS_FitColorTversky>
0.640 

> <ROCS_FitTverskyCombo>
2.020 

> <ROCS_ColorScore>
-9.734

> <ROCS_Overlap>
2567.263

> <ROCS_Rank>
142                 

$$$$
untitled-dbase-991390_14
  -OEChem-02092406493D

 43 47  0     1  0  0  0  0  0999 V2000
   13.3016   16.8753   20.8220 C   0  0  0  0  0  0  0  0  0  0  0  0
   13.1190   17.3462   22.1014 C   0  0  0  0  0  0  0  0  0  0  0  0
   12.6425   15.6241   20.7659 C   0  0  0  0  0  0  0  0  0  0  0  0
   12.1044   15.4194   22.0152 C   0  0  0  0  0  0  0  0  0  0  0  0
    8.9460   13.4141   22.2968 C   0  0  0  0  0  0  0  0  0  0  0  0
   10.0765   10.6794   24.4011 C   0  0  0  0  0  0  0  0  0  0  0  0
    9.2976    9.9431   23.3027 C   0  0  0  0  0  0  0  0  0  0  0  0
    8.3746   12.3974   25.1908 C   0  0  0  0  0  0  0  0  0  0  0  0
    7.0620   11.1567   23.3418 C   0  0  0  0  0  0  0  0  0  0  0  0
    6.8143   10.3996   25.8322 C   0  0  0  0  0  0  0  0  0  0  0  0
    9.6134   12.1442   24.3088 C   0  0  2  0  0  0  0  0  0  0  0  0
    8.4263   11.0224   22.6361 C   0  0  1  0  0  0  0  0  0  0  0  0
    7.2164   11.4736   24.8261 C   0  0  0  0  0  0  0  0  0  0  0  0
    5.9638   11.5965   25.6331 C   0  0  0  0  0  0  0  0  0  0  0  0
   12.5535   14.7250   19.6011 C   0  0  0  0  0  0  0  0  0  0  0  0
   11.2938   14.3060   22.6215 C   0  0  0  0  0  0  0  0  0  0  0  0
    7.8525   13.8804   21.7390 N   0  0  0  0  0  0  0  0  0  0  0  0
    8.1815   15.1302   21.2649 N   0  0  0  0  0  0  0  0  0  0  0  0
    9.4494   15.4218   21.5283 N   0  0  0  0  0  0  0  0  0  0  0  0
    9.9252   14.3475   22.1732 N   0  0  0  0  0  0  0  0  0  0  0  0
    9.1822   12.2432   22.9147 N   0  0  0  0  0  0  0  0  0  0  0  0
   12.3904   16.4646   22.8351 O   0  0  0  0  0  0  0  0  0  0  0  0
    4.7253   11.4777   25.0425 F   0  0  0  0  0  0  0  0  0  0  0  0
    5.8510   12.5416   26.6283 F   0  0  0  0  0  0  0  0  0  0  0  0
   13.8427   17.3748   20.0310 H   0  0  0  0  0  0  0  0  0  0  0  0
   13.4276   18.2426   22.6192 H   0  0  0  0  0  0  0  0  0  0  0  0
    9.9038   10.2404   25.3889 H   0  0  0  0  0  0  0  0  0  0  0  0
   11.1504   10.6100   24.1912 H   0  0  0  0  0  0  0  0  0  0  0  0
   10.0045    9.5272   22.5750 H   0  0  0  0  0  0  0  0  0  0  0  0
    8.7096    9.1118   23.7048 H   0  0  0  0  0  0  0  0  0  0  0  0
    8.6504   12.2716   26.2451 H   0  0  0  0  0  0  0  0  0  0  0  0
    8.0460   13.4382   25.0763 H   0  0  0  0  0  0  0  0  0  0  0  0
    6.4785   11.9565   22.8684 H   0  0  0  0  0  0  0  0  0  0  0  0
    6.4910   10.2304   23.2029 H   0  0  0  0  0  0  0  0  0  0  0  0
    6.4467    9.4512   25.4597 H   0  0  0  0  0  0  0  0  0  0  0  0
    7.3690   10.3231   26.7592 H   0  0  0  0  0  0  0  0  0  0  0  0
   10.4242   12.8386   24.5545 H   0  0  0  0  0  0  0  0  0  0  0  0
    8.3019   10.8336   21.5644 H   0  0  0  0  0  0  0  0  0  0  0  0
   13.3951   14.0122   19.5817 H   0  0  0  0  0  0  0  0  0  0  0  0
   11.6187   14.1374   19.5999 H   0  0  0  0  0  0  0  0  0  0  0  0
   12.5639   15.2795   18.6462 H   0  0  0  0  0  0  0  0  0  0  0  0
   11.7106   13.3255   22.3611 H   0  0  0  0  0  0  0  0  0  0  0  0
   11.2975   14.3644   23.7168 H   0  0  0  0  0  0  0  0  0  0  0  0
  1  2  2  0  0  0  0
  1  3  1  0  0  0  0
  2 22  1  0  0  0  0
  3  4  2  0  0  0  0
  3 15  1  0  0  0  0
  4 16  1  0  0  0  0
  4 22  1  0  0  0  0
  5 17  2  0  0  0  0
  5 20  1  0  0  0  0
  5 21  1  0  0  0  0
  6  7  1  0  0  0  0
  6 11  1  0  0  0  0
  7 12  1  0  0  0  0
  8 11  1  0  0  0  0
  8 13  1  0  0  0  0
  9 12  1  0  0  0  0
  9 13  1  0  0  0  0
 10 13  1  0  0  0  0
 10 14  1  0  0  0  0
 11 21  1  0  0  0  0
 12 21  1  0  0  0  0
 13 14  1  0  0  0  0
 14 23  1  0  0  0  0
 14 24  1  0  0  0  0
 16 20  1  0  0  0  0
 17 18  1  0  0  0  0
 18 19  2  0  0  0  0
 19 20  1  0  0  0  0
  1 25  1  0  0  0  0
  2 26  1  0  0  0  0
  6 27  1  0  0  0  0
  6 28  1  0  0  0  0
  7 29  1  0  0  0  0
  7 30  1  0  0  0  0
  8 31  1  0  0  0  0
  8 32  1  0  0  0  0
  9 33  1  0  0  0  0
  9 34  1  0  0  0  0
 10 35  1  0  0  0  0
 10 36  1  0  0  0  0
 11 37  1  0  0  0  0
 12 38  1  0  0  0  0
 15 39  1  0  0  0  0
 15 40  1  0  0  0  0
 15 41  1  0  0  0  0
 16 42  1  0  0  0  0
 16 43  1  0  0  0  0
M  END
> <idnumber>
Z2989409678

> <heavy_atoms>
24

> <LogS>
-3.444

> <LogP>
2.526

> <rotating_bonds>
3

> <PSA>
59.98

> <hb_acceptors>
4

> <hb_donors>
0

> <Collection>
HTS

> <link>
https://www.enaminestore.com/catalog/Z2989409678

> <ROCS_ShapeQuery>
x0446_0A_x1080_0A_x0929_0A_x0812_0A_x0719_0A_x1140_0A_x0528_0A_x0310_0A

> <ROCS_TanimotoCombo>
0.465 

> <ROCS_ShapeTanimoto>
0.251 

> <ROCS_ColorTanimoto>
0.215 

> <ROCS_RefTversky>
0.229 

> <ROCS_RefColorTversky>
0.244 

> <ROCS_RefTverskyCombo>
0.473 

> <ROCS_FitTversky>
1.599 

> <ROCS_FitColorTversky>
0.639 

> <ROCS_FitTverskyCombo>
2.238 

> <ROCS_ColorScore>
-8.777

> <ROCS_Overlap>
2709.964

> <ROCS_Rank>
143                 

$$$$
untitled-dbase-1130968_77
  -OEChem-02092406493D

 53 57  0     1  0  0  0  0  0999 V2000
    3.4360   12.8394   22.4582 C   0  0  0  0  0  0  0  0  0  0  0  0
    4.2215   12.0011   23.2415 C   0  0  0  0  0  0  0  0  0  0  0  0
    3.8842   14.1204   22.1554 C   0  0  0  0  0  0  0  0  0  0  0  0
    5.4375   12.4875   23.6938 C   0  0  0  0  0  0  0  0  0  0  0  0
    5.1152   14.5119   22.6566 C   0  0  0  0  0  0  0  0  0  0  0  0
    6.3098   11.6441   24.5263 C   0  0  0  0  0  0  0  0  0  0  0  0
   10.9671   13.3720   23.8833 C   0  0  0  0  0  0  0  0  0  0  0  0
   10.4466   14.5439   21.7436 C   0  0  0  0  0  0  0  0  0  0  0  0
   12.7793   14.2813   22.4472 C   0  0  0  0  0  0  0  0  0  0  0  0
    9.4870   10.0848   23.7388 C   0  0  0  0  0  0  0  0  0  0  0  0
    8.1717   11.7872   22.7621 C   0  0  0  0  0  0  0  0  0  0  0  0
    9.5594   11.8169   25.3459 C   0  0  0  0  0  0  0  0  0  0  0  0
   11.4086   13.5903   22.4654 C   0  0  0  0  0  0  0  0  0  0  0  0
   11.0406   15.9112   21.9364 C   0  0  1  0  0  0  0  0  0  0  0  0
   12.4699   15.7502   22.3681 C   0  0  2  0  0  0  0  0  0  0  0  0
    9.6471   11.4187   22.9993 C   0  0  1  0  0  0  0  0  0  0  0  0
    8.6195   10.7089   24.8380 C   0  0  1  0  0  0  0  0  0  0  0  0
   12.1528   16.4900   21.0815 C   0  0  0  0  0  0  0  0  0  0  0  0
   12.3164   17.9902   21.1006 C   0  0  0  0  0  0  0  0  0  0  0  0
   12.4867   15.8761   19.7465 C   0  0  0  0  0  0  0  0  0  0  0  0
    5.9063   13.7257   23.4206 N   0  0  0  0  0  0  0  0  0  0  0  0
    7.5709   11.3636   24.0379 N   0  0  0  0  0  0  0  0  0  0  0  0
   10.1441   12.2848   24.0812 N   0  0  0  0  0  0  0  0  0  0  0  0
    5.5725   15.8177   22.3484 N   0  0  0  0  0  0  0  0  0  0  0  0
    5.8662   11.2581   25.6055 O   0  0  0  0  0  0  0  0  0  0  0  0
   11.3386   14.1301   24.7798 O   0  0  0  0  0  0  0  0  0  0  0  0
    3.1188   14.9413   21.3904 O   0  0  0  0  0  0  0  0  0  0  0  0
    2.4770   12.4888   22.0873 H   0  0  0  0  0  0  0  0  0  0  0  0
    3.8824   10.9996   23.4843 H   0  0  0  0  0  0  0  0  0  0  0  0
   10.3799   14.2947   20.6800 H   0  0  0  0  0  0  0  0  0  0  0  0
    9.4328   14.5004   22.1565 H   0  0  0  0  0  0  0  0  0  0  0  0
   13.3677   14.0561   23.3434 H   0  0  0  0  0  0  0  0  0  0  0  0
   13.3639   13.9589   21.5801 H   0  0  0  0  0  0  0  0  0  0  0  0
    8.9612    9.3216   23.1552 H   0  0  0  0  0  0  0  0  0  0  0  0
   10.4351    9.6792   24.1083 H   0  0  0  0  0  0  0  0  0  0  0  0
    8.0043   12.8545   22.5889 H   0  0  0  0  0  0  0  0  0  0  0  0
    7.7197   11.2023   21.9545 H   0  0  0  0  0  0  0  0  0  0  0  0
    9.0444   12.6319   25.8628 H   0  0  0  0  0  0  0  0  0  0  0  0
   10.3633   11.4239   25.9766 H   0  0  0  0  0  0  0  0  0  0  0  0
   11.4443   12.6058   21.9888 H   0  0  0  0  0  0  0  0  0  0  0  0
   10.4074   16.5752   22.5102 H   0  0  0  0  0  0  0  0  0  0  0  0
   12.8043   16.3048   23.2350 H   0  0  0  0  0  0  0  0  0  0  0  0
   10.2772   11.4223   22.1084 H   0  0  0  0  0  0  0  0  0  0  0  0
    8.2298   10.0401   25.6071 H   0  0  0  0  0  0  0  0  0  0  0  0
   13.1435   18.2980   20.4523 H   0  0  0  0  0  0  0  0  0  0  0  0
   12.5274   18.3438   22.1153 H   0  0  0  0  0  0  0  0  0  0  0  0
   11.4042   18.4837   20.7490 H   0  0  0  0  0  0  0  0  0  0  0  0
   13.3103   16.4151   19.2647 H   0  0  0  0  0  0  0  0  0  0  0  0
   11.6208   15.9080   19.0755 H   0  0  0  0  0  0  0  0  0  0  0  0
   12.7879   14.8288   19.8636 H   0  0  0  0  0  0  0  0  0  0  0  0
    5.0216   16.3908   21.7475 H   0  0  0  0  0  0  0  0  0  0  0  0
    6.4763   16.0969   22.6621 H   0  0  0  0  0  0  0  0  0  0  0  0
    2.2950   14.4950   21.1337 H   0  0  0  0  0  0  0  0  0  0  0  0
  1  2  2  0  0  0  0
  1  3  1  0  0  0  0
  2  4  1  0  0  0  0
  3  5  2  0  0  0  0
  3 27  1  0  0  0  0
  4  6  1  0  0  0  0
  4 21  2  0  0  0  0
  5 21  1  0  0  0  0
  5 24  1  0  0  0  0
  6 22  1  0  0  0  0
  6 25  2  0  0  0  0
  7 13  1  6  0  0  0
  7 23  1  0  0  0  0
  7 26  2  0  0  0  0
  8 13  1  0  0  0  0
  8 14  1  1  0  0  0
  9 13  1  0  0  0  0
  9 15  1  1  0  0  0
 10 16  1  1  0  0  0
 10 17  1  1  0  0  0
 11 16  1  0  0  0  0
 11 22  1  0  0  0  0
 12 17  1  0  0  0  0
 12 23  1  0  0  0  0
 14 15  1  0  0  0  0
 14 18  1  0  0  0  0
 15 18  1  0  0  0  0
 16 23  1  0  0  0  0
 17 22  1  0  0  0  0
 18 19  1  0  0  0  0
 18 20  1  0  0  0  0
  1 28  1  0  0  0  0
  2 29  1  0  0  0  0
  8 30  1  0  0  0  0
  8 31  1  0  0  0  0
  9 32  1  0  0  0  0
  9 33  1  0  0  0  0
 10 34  1  0  0  0  0
 10 35  1  0  0  0  0
 11 36  1  0  0  0  0
 11 37  1  0  0  0  0
 12 38  1  0  0  0  0
 12 39  1  0  0  0  0
 13 40  1  0  0  0  0
 14 41  1  0  0  0  0
 15 42  1  0  0  0  0
 16 43  1  0  0  0  0
 17 44  1  0  0  0  0
 19 45  1  0  0  0  0
 19 46  1  0  0  0  0
 19 47  1  0  0  0  0
 20 48  1  0  0  0  0
 20 49  1  0  0  0  0
 20 50  1  0  0  0  0
 24 51  1  0  0  0  0
 24 52  1  0  0  0  0
 27 53  1  0  0  0  0
M  END
> <idnumber>
Z5605962000

> <heavy_atoms>
27

> <LogS>
-4.474

> <LogP>
2.608

> <rotating_bonds>
2

> <PSA>
99.76

> <hb_acceptors>
5

> <hb_donors>
2

> <Collection>
Advanced

> <link>
https://www.enaminestore.com/catalog/Z5605962000

> <ROCS_ShapeQuery>
x0446_0A_x1080_0A_x0929_0A_x0812_0A_x0719_0A_x1140_0A_x0528_0A_x0310_0A

> <ROCS_TanimotoCombo>
0.465 

> <ROCS_ShapeTanimoto>
0.248 

> <ROCS_ColorTanimoto>
0.218 

> <ROCS_RefTversky>
0.229 

> <ROCS_RefColorTversky>
0.278 

> <ROCS_RefTverskyCombo>
0.507 

> <ROCS_FitTversky>
1.496 

> <ROCS_FitColorTversky>
0.501 

> <ROCS_FitTverskyCombo>
1.997 

> <ROCS_ColorScore>
-10.079

> <ROCS_Overlap>
2706.588

> <ROCS_Rank>
144                 

$$$$
untitled-dbase-1090087_169
  -OEChem-02092406493D

 61 67  0     1  0  0  0  0  0999 V2000
   16.7533   13.0206   25.4667 C   0  0  0  0  0  0  0  0  0  0  0  0
   16.2036   13.2964   24.2141 C   0  0  0  0  0  0  0  0  0  0  0  0
   15.6321   10.9650   23.9434 C   0  0  0  0  0  0  0  0  0  0  0  0
   16.7541   11.7116   25.9625 C   0  0  0  0  0  0  0  0  0  0  0  0
   15.6447   12.2709   23.4538 C   0  0  0  0  0  0  0  0  0  0  0  0
   16.1929   10.6745   25.1934 C   0  0  0  0  0  0  0  0  0  0  0  0
   17.3287   11.4175   27.2792 C   0  0  0  0  0  0  0  0  0  0  0  0
   17.5542   10.1503   27.6517 C   0  0  0  0  0  0  0  0  0  0  0  0
   15.0579   12.5679   22.1380 C   0  0  0  0  0  0  0  0  0  0  0  0
    9.7040   13.9149   22.3547 C   0  0  0  0  0  0  0  0  0  0  0  0
   16.1186    9.2761   25.7544 C   0  0  0  0  0  0  0  0  0  0  0  0
   17.2226    8.9780   26.7762 C   0  0  0  0  0  0  0  0  0  0  0  0
   12.0487   17.0814   22.1089 C   0  0  0  0  0  0  0  0  0  0  0  0
   12.9283   16.3151   21.1328 C   0  0  0  0  0  0  0  0  0  0  0  0
   11.6947   16.0881   23.2195 C   0  0  0  0  0  0  0  0  0  0  0  0
    8.0557   13.0747   24.0482 C   0  0  0  0  0  0  0  0  0  0  0  0
    8.5285    9.3134   24.1155 C   0  0  0  0  0  0  0  0  0  0  0  0
   13.3515   13.8078   20.8375 C   0  0  0  0  0  0  0  0  0  0  0  0
   13.3633   14.1333   23.2299 C   0  0  0  0  0  0  0  0  0  0  0  0
    8.7544   12.8138   22.6926 C   0  0  2  0  0  0  0  0  0  0  0  0
   12.3531   14.9011   21.1842 C   0  0  1  0  0  0  0  0  0  0  0  0
    7.8029   10.6144   24.3336 C   0  0  2  0  0  0  0  0  0  0  0  0
    8.5025   10.3667   23.0398 C   0  0  1  0  0  0  0  0  0  0  0  0
    8.4929   11.8509   24.8653 C   0  0  1  0  0  0  0  0  0  0  0  0
    9.5043   11.4990   22.9764 C   0  0  2  0  0  0  0  0  0  0  0  0
   12.0442   14.6947   22.6770 C   0  0  2  0  0  0  0  0  0  0  0  0
   14.0008   13.4648   22.0950 N   0  0  0  0  0  0  0  0  0  0  0  0
   10.9721   13.7496   22.8823 N   0  0  0  0  0  0  0  0  0  0  0  0
   15.5380   11.9927   21.1633 O   0  0  0  0  0  0  0  0  0  0  0  0
    9.3217   14.8515   21.6632 O   0  0  0  0  0  0  0  0  0  0  0  0
    9.8479   11.7035   24.3739 O   0  0  0  0  0  0  0  0  0  0  0  0
   17.1799   13.8357   26.0466 H   0  0  0  0  0  0  0  0  0  0  0  0
   16.2131   14.3184   23.8434 H   0  0  0  0  0  0  0  0  0  0  0  0
   15.1807   10.1688   23.3554 H   0  0  0  0  0  0  0  0  0  0  0  0
   17.5992   12.2426   27.9288 H   0  0  0  0  0  0  0  0  0  0  0  0
   18.0187    9.9515   28.6130 H   0  0  0  0  0  0  0  0  0  0  0  0
   15.1384    9.1611   26.2351 H   0  0  0  0  0  0  0  0  0  0  0  0
   16.1744    8.5358   24.9473 H   0  0  0  0  0  0  0  0  0  0  0  0
   18.1391    8.6698   26.2576 H   0  0  0  0  0  0  0  0  0  0  0  0
   16.9100    8.1307   27.3974 H   0  0  0  0  0  0  0  0  0  0  0  0
   12.5487   17.9673   22.5099 H   0  0  0  0  0  0  0  0  0  0  0  0
   11.1352   17.4178   21.6065 H   0  0  0  0  0  0  0  0  0  0  0  0
   12.8206   16.7317   20.1375 H   0  0  0  0  0  0  0  0  0  0  0  0
   13.9730   16.3455   21.4132 H   0  0  0  0  0  0  0  0  0  0  0  0
   12.2855   16.3264   24.1218 H   0  0  0  0  0  0  0  0  0  0  0  0
   10.6373   16.1743   23.5230 H   0  0  0  0  0  0  0  0  0  0  0  0
    8.4216   13.9982   24.5111 H   0  0  0  0  0  0  0  0  0  0  0  0
    6.9675   13.1395   23.9484 H   0  0  0  0  0  0  0  0  0  0  0  0
    9.4523    9.1342   24.6508 H   0  0  0  0  0  0  0  0  0  0  0  0
    7.9288    8.4242   23.9607 H   0  0  0  0  0  0  0  0  0  0  0  0
   12.8631   12.9231   20.4081 H   0  0  0  0  0  0  0  0  0  0  0  0
   14.1310   14.1383   20.1364 H   0  0  0  0  0  0  0  0  0  0  0  0
   14.0240   14.8984   23.6448 H   0  0  0  0  0  0  0  0  0  0  0  0
   13.1940   13.3641   23.9901 H   0  0  0  0  0  0  0  0  0  0  0  0
    8.0322   12.7173   21.8734 H   0  0  0  0  0  0  0  0  0  0  0  0
   11.4573   14.8079   20.5603 H   0  0  0  0  0  0  0  0  0  0  0  0
    6.7245   10.6309   24.3649 H   0  0  0  0  0  0  0  0  0  0  0  0
    7.9265   10.2029   22.1421 H   0  0  0  0  0  0  0  0  0  0  0  0
    8.4556   11.9693   25.9500 H   0  0  0  0  0  0  0  0  0  0  0  0
   10.3913   11.3022   22.3700 H   0  0  0  0  0  0  0  0  0  0  0  0
   11.1583   12.9216   23.4424 H   0  0  0  0  0  0  0  0  0  0  0  0
  1  2  2  0  0  0  0
  1  4  1  0  0  0  0
  2  5  1  0  0  0  0
  3  5  2  0  0  0  0
  3  6  1  0  0  0  0
  4  6  2  0  0  0  0
  4  7  1  0  0  0  0
  5  9  1  0  0  0  0
  6 11  1  0  0  0  0
  7  8  2  0  0  0  0
  8 12  1  0  0  0  0
  9 27  1  0  0  0  0
  9 29  2  0  0  0  0
 10 20  1  1  0  0  0
 10 28  1  0  0  0  0
 10 30  2  0  0  0  0
 11 12  1  0  0  0  0
 13 14  1  0  0  0  0
 13 15  1  0  0  0  0
 14 21  1  1  0  0  0
 15 26  1  0  0  0  0
 16 20  1  0  0  0  0
 16 24  1  0  0  0  0
 17 22  1  1  0  0  0
 17 23  1  1  0  0  0
 18 21  1  0  0  0  0
 18 27  1  0  0  0  0
 19 26  1  0  0  0  0
 19 27  1  0  0  0  0
 20 25  1  0  0  0  0
 21 26  1  0  0  0  0
 22 23  1  0  0  0  0
 22 24  1  0  0  0  0
 23 25  1  0  0  0  0
 24 31  1  1  0  0  0
 25 31  1  1  0  0  0
 26 28  1  6  0  0  0
  1 32  1  0  0  0  0
  2 33  1  0  0  0  0
  3 34  1  0  0  0  0
  7 35  1  0  0  0  0
  8 36  1  0  0  0  0
 11 37  1  0  0  0  0
 11 38  1  0  0  0  0
 12 39  1  0  0  0  0
 12 40  1  0  0  0  0
 13 41  1  0  0  0  0
 13 42  1  0  0  0  0
 14 43  1  0  0  0  0
 14 44  1  0  0  0  0
 15 45  1  0  0  0  0
 15 46  1  0  0  0  0
 16 47  1  0  0  0  0
 16 48  1  0  0  0  0
 17 49  1  0  0  0  0
 17 50  1  0  0  0  0
 18 51  1  0  0  0  0
 18 52  1  0  0  0  0
 19 53  1  0  0  0  0
 19 54  1  0  0  0  0
 20 55  1  0  0  0  0
 21 56  1  0  0  0  0
 22 57  1  0  0  0  0
 23 58  1  0  0  0  0
 24 59  1  0  0  0  0
 25 60  1  0  0  0  0
 28 61  1  0  0  0  0
M  END
> <idnumber>
Z4475799450

> <heavy_atoms>
31

> <LogS>
-6.706

> <LogP>
3.38

> <rotating_bonds>
3

> <PSA>
58.64

> <hb_acceptors>
3

> <hb_donors>
1

> <Collection>
Advanced

> <link>
https://www.enaminestore.com/catalog/Z4475799450

> <ROCS_ShapeQuery>
x0446_0A_x1080_0A_x0929_0A_x0812_0A_x0719_0A_x1140_0A_x0528_0A_x0310_0A

> <ROCS_TanimotoCombo>
0.465 

> <ROCS_ShapeTanimoto>
0.243 

> <ROCS_ColorTanimoto>
0.222 

> <ROCS_RefTversky>
0.228 

> <ROCS_RefColorTversky>
0.311 

> <ROCS_RefTverskyCombo>
0.539 

> <ROCS_FitTversky>
1.351 

> <ROCS_FitColorTversky>
0.439 

> <ROCS_FitTverskyCombo>
1.791 

> <ROCS_ColorScore>
-11.364

> <ROCS_Overlap>
2703.844

> <ROCS_Rank>
145                 

$$$$
untitled-dbase-326128_134
  -OEChem-02092406493D

 52 55  0     0  0  0  0  0  0999 V2000
   13.1569   14.6102   22.3406 C   0  0  0  0  0  0  0  0  0  0  0  0
   12.7572   15.1580   21.1217 C   0  0  0  0  0  0  0  0  0  0  0  0
   12.2019   14.2676   23.2979 C   0  0  0  0  0  0  0  0  0  0  0  0
   11.4026   15.3633   20.8601 C   0  0  0  0  0  0  0  0  0  0  0  0
    8.0434   12.5831   24.0841 C   0  0  0  0  0  0  0  0  0  0  0  0
    6.8989   13.4183   24.2812 C   0  0  0  0  0  0  0  0  0  0  0  0
   10.8473   14.4730   23.0363 C   0  0  0  0  0  0  0  0  0  0  0  0
   10.4476   15.0208   21.8174 C   0  0  0  0  0  0  0  0  0  0  0  0
    5.7270   12.6976   24.3593 C   0  0  0  0  0  0  0  0  0  0  0  0
    9.4087   12.8543   23.9487 C   0  0  0  0  0  0  0  0  0  0  0  0
    7.6746   11.2456   24.0214 C   0  0  0  0  0  0  0  0  0  0  0  0
    9.7881   10.5943   23.7283 C   0  0  0  0  0  0  0  0  0  0  0  0
   14.8950    9.7446   24.7626 C   0  0  0  0  0  0  0  0  0  0  0  0
   14.5580    9.5517   23.2885 C   0  0  0  0  0  0  0  0  0  0  0  0
   13.8455   10.6193   25.4390 C   0  0  0  0  0  0  0  0  0  0  0  0
   13.1231    9.0542   23.1065 C   0  0  0  0  0  0  0  0  0  0  0  0
   12.4332   10.0883   25.1888 C   0  0  0  0  0  0  0  0  0  0  0  0
    6.9556   14.8983   24.3908 C   0  0  0  0  0  0  0  0  0  0  0  0
    4.3448   13.1895   24.5570 C   0  0  0  0  0  0  0  0  0  0  0  0
    8.5818   16.4918   21.9208 C   0  0  0  0  0  0  0  0  0  0  0  0
   10.7928    9.4970   23.5268 C   0  0  0  0  0  0  0  0  0  0  0  0
   10.2875   11.8451   23.7690 N   0  0  0  0  0  0  0  0  0  0  0  0
    8.5071   10.2011   23.8441 N   0  0  0  0  0  0  0  0  0  0  0  0
   12.1619    9.9608   23.7501 N   0  0  0  0  0  0  0  0  0  0  0  0
    9.9132   14.1312   23.9914 O   0  0  0  0  0  0  0  0  0  0  0  0
    9.1278   15.2273   21.5505 O   0  0  0  0  0  0  0  0  0  0  0  0
    5.9949   11.0161   24.1956 S   0  0  0  0  0  0  0  0  0  0  0  0
   14.2119   14.4501   22.5442 H   0  0  0  0  0  0  0  0  0  0  0  0
   13.5006   15.4247   20.3765 H   0  0  0  0  0  0  0  0  0  0  0  0
   12.5199   13.8411   24.2454 H   0  0  0  0  0  0  0  0  0  0  0  0
   11.0982   15.7920   19.9092 H   0  0  0  0  0  0  0  0  0  0  0  0
   14.9333    8.7679   25.2603 H   0  0  0  0  0  0  0  0  0  0  0  0
   15.8867   10.1987   24.8658 H   0  0  0  0  0  0  0  0  0  0  0  0
   14.6875   10.5024   22.7558 H   0  0  0  0  0  0  0  0  0  0  0  0
   15.2573    8.8368   22.8402 H   0  0  0  0  0  0  0  0  0  0  0  0
   14.0392   10.6622   26.5168 H   0  0  0  0  0  0  0  0  0  0  0  0
   13.9244   11.6460   25.0590 H   0  0  0  0  0  0  0  0  0  0  0  0
   12.9160    8.9968   22.0309 H   0  0  0  0  0  0  0  0  0  0  0  0
   13.0325    8.0372   23.5109 H   0  0  0  0  0  0  0  0  0  0  0  0
   12.3078    9.1231   25.6973 H   0  0  0  0  0  0  0  0  0  0  0  0
   11.7203   10.7892   25.6400 H   0  0  0  0  0  0  0  0  0  0  0  0
    6.8533   15.3651   23.4011 H   0  0  0  0  0  0  0  0  0  0  0  0
    6.1552   15.2872   25.0375 H   0  0  0  0  0  0  0  0  0  0  0  0
    7.9052   15.2352   24.8323 H   0  0  0  0  0  0  0  0  0  0  0  0
    3.8607   13.4002   23.5911 H   0  0  0  0  0  0  0  0  0  0  0  0
    3.7224   12.4567   25.0951 H   0  0  0  0  0  0  0  0  0  0  0  0
    4.3210   14.1136   25.1567 H   0  0  0  0  0  0  0  0  0  0  0  0
    7.5230   16.5249   21.6526 H   0  0  0  0  0  0  0  0  0  0  0  0
    9.1241   17.2888   21.4059 H   0  0  0  0  0  0  0  0  0  0  0  0
    8.6860   16.6215   23.0006 H   0  0  0  0  0  0  0  0  0  0  0  0
   10.6013    8.6670   24.2156 H   0  0  0  0  0  0  0  0  0  0  0  0
   10.7371    9.0951   22.5097 H   0  0  0  0  0  0  0  0  0  0  0  0
  1  2  1  0  0  0  0
  1  3  2  0  0  0  0
  2  4  2  0  0  0  0
  3  7  1  0  0  0  0
  4  8  1  0  0  0  0
  5  6  1  0  0  0  0
  5 10  2  0  0  0  0
  5 11  1  0  0  0  0
  6  9  2  0  0  0  0
  6 18  1  0  0  0  0
  7  8  2  0  0  0  0
  7 25  1  0  0  0  0
  8 26  1  0  0  0  0
  9 19  1  0  0  0  0
  9 27  1  0  0  0  0
 10 22  1  0  0  0  0
 10 25  1  0  0  0  0
 11 23  2  0  0  0  0
 11 27  1  0  0  0  0
 12 21  1  0  0  0  0
 12 22  2  0  0  0  0
 12 23  1  0  0  0  0
 13 14  1  0  0  0  0
 13 15  1  0  0  0  0
 14 16  1  0  0  0  0
 15 17  1  0  0  0  0
 16 24  1  0  0  0  0
 17 24  1  0  0  0  0
 20 26  1  0  0  0  0
 21 24  1  0  0  0  0
  1 28  1  0  0  0  0
  2 29  1  0  0  0  0
  3 30  1  0  0  0  0
  4 31  1  0  0  0  0
 13 32  1  0  0  0  0
 13 33  1  0  0  0  0
 14 34  1  0  0  0  0
 14 35  1  0  0  0  0
 15 36  1  0  0  0  0
 15 37  1  0  0  0  0
 16 38  1  0  0  0  0
 16 39  1  0  0  0  0
 17 40  1  0  0  0  0
 17 41  1  0  0  0  0
 18 42  1  0  0  0  0
 18 43  1  0  0  0  0
 18 44  1  0  0  0  0
 19 45  1  0  0  0  0
 19 46  1  0  0  0  0
 19 47  1  0  0  0  0
 20 48  1  0  0  0  0
 20 49  1  0  0  0  0
 20 50  1  0  0  0  0
 21 51  1  0  0  0  0
 21 52  1  0  0  0  0
M  END
> <idnumber>
Z31211732

> <heavy_atoms>
27

> <LogS>
-5.2

> <LogP>
4.528

> <rotating_bonds>
5

> <PSA>
47.48

> <hb_acceptors>
4

> <hb_donors>
0

> <Collection>
HTS

> <link>
https://www.enaminestore.com/catalog/Z31211732

> <ROCS_ShapeQuery>
x0446_0A_x1080_0A_x0929_0A_x0812_0A_x0719_0A_x1140_0A_x0528_0A_x0310_0A

> <ROCS_TanimotoCombo>
0.465 

> <ROCS_ShapeTanimoto>
0.262 

> <ROCS_ColorTanimoto>
0.204 

> <ROCS_RefTversky>
0.239 

> <ROCS_RefColorTversky>
0.218 

> <ROCS_RefTverskyCombo>
0.457 

> <ROCS_FitTversky>
1.586 

> <ROCS_FitColorTversky>
0.749 

> <ROCS_FitTverskyCombo>
2.335 

> <ROCS_ColorScore>
-7.818

> <ROCS_Overlap>
2821.214

> <ROCS_Rank>
146                 

$$$$
untitled-dbase-324934_16
  -OEChem-02092406493D

 43 47  0     0  0  0  0  0  0999 V2000
   12.9959   15.1028   21.3202 C   0  0  0  0  0  0  0  0  0  0  0  0
   13.3777   14.9598   22.6541 C   0  0  0  0  0  0  0  0  0  0  0  0
   11.8884    9.3958   23.5741 C   0  0  0  0  0  0  0  0  0  0  0  0
   10.0343    8.3766   22.4078 C   0  0  0  0  0  0  0  0  0  0  0  0
   11.6722   14.8727   20.9452 C   0  0  0  0  0  0  0  0  0  0  0  0
   12.4360   14.5866   23.6130 C   0  0  0  0  0  0  0  0  0  0  0  0
   12.7048    8.3240   23.2131 C   0  0  0  0  0  0  0  0  0  0  0  0
   10.8507    7.3048   22.0467 C   0  0  0  0  0  0  0  0  0  0  0  0
    8.1987   12.6184   24.2364 C   0  0  0  0  0  0  0  0  0  0  0  0
   10.5532    9.4221   23.1715 C   0  0  0  0  0  0  0  0  0  0  0  0
    7.1485   13.4948   24.5943 C   0  0  0  0  0  0  0  0  0  0  0  0
   10.7304   14.4994   21.9040 C   0  0  0  0  0  0  0  0  0  0  0  0
   11.1123   14.3564   23.2379 C   0  0  0  0  0  0  0  0  0  0  0  0
   12.1859    7.2785   22.4494 C   0  0  0  0  0  0  0  0  0  0  0  0
    5.9360   12.8640   24.6579 C   0  0  0  0  0  0  0  0  0  0  0  0
    9.5738   12.7746   24.0462 C   0  0  0  0  0  0  0  0  0  0  0  0
    7.6892   11.3313   24.0452 C   0  0  0  0  0  0  0  0  0  0  0  0
    9.7095   10.5294   23.5451 C   0  0  0  0  0  0  0  0  0  0  0  0
    7.0194   14.9357   24.9257 C   0  0  0  0  0  0  0  0  0  0  0  0
    4.8117   13.7523   25.0323 C   0  0  0  0  0  0  0  0  0  0  0  0
    5.4747   15.1538   24.8583 C   0  0  0  0  0  0  0  0  0  0  0  0
   10.3342   11.7147   23.6965 N   0  0  0  0  0  0  0  0  0  0  0  0
    8.4034   10.2432   23.6968 N   0  0  0  0  0  0  0  0  0  0  0  0
    9.3854   14.2689   21.5040 N   0  3  0  0  0  0  0  0  0  0  0  0
    9.0471   13.1139   21.1525 O   0  5  0  0  0  0  0  0  0  0  0  0
    8.5774   15.2277   21.5141 O   0  0  0  0  0  0  0  0  0  0  0  0
   10.2002   13.9865   24.2041 O   0  0  0  0  0  0  0  0  0  0  0  0
    5.9904   11.2319   24.3024 S   0  0  0  0  0  0  0  0  0  0  0  0
   13.1934    5.9556   22.0055 Cl  0  0  0  0  0  0  0  0  0  0  0  0
   13.7292   15.3932   20.5735 H   0  0  0  0  0  0  0  0  0  0  0  0
   14.4083   15.1392   22.9463 H   0  0  0  0  0  0  0  0  0  0  0  0
   12.3074   10.2033   24.1700 H   0  0  0  0  0  0  0  0  0  0  0  0
    8.9952    8.3822   22.0870 H   0  0  0  0  0  0  0  0  0  0  0  0
   11.3888   14.9882   19.9017 H   0  0  0  0  0  0  0  0  0  0  0  0
   12.7403   14.4771   24.6507 H   0  0  0  0  0  0  0  0  0  0  0  0
   13.7431    8.3153   23.5352 H   0  0  0  0  0  0  0  0  0  0  0  0
   10.4327    6.4962   21.4523 H   0  0  0  0  0  0  0  0  0  0  0  0
    7.3896   15.1302   25.9376 H   0  0  0  0  0  0  0  0  0  0  0  0
    7.5411   15.5838   24.2163 H   0  0  0  0  0  0  0  0  0  0  0  0
    3.9380   13.6440   24.3840 H   0  0  0  0  0  0  0  0  0  0  0  0
    4.5195   13.5928   26.0753 H   0  0  0  0  0  0  0  0  0  0  0  0
    5.1232   15.8751   25.6026 H   0  0  0  0  0  0  0  0  0  0  0  0
    5.2143   15.5494   23.8675 H   0  0  0  0  0  0  0  0  0  0  0  0
  1  2  1  0  0  0  0
  1  5  2  0  0  0  0
  2  6  2  0  0  0  0
  3  7  2  0  0  0  0
  3 10  1  0  0  0  0
  4  8  1  0  0  0  0
  4 10  2  0  0  0  0
  5 12  1  0  0  0  0
  6 13  1  0  0  0  0
  7 14  1  0  0  0  0
  8 14  2  0  0  0  0
  9 11  1  0  0  0  0
  9 16  2  0  0  0  0
  9 17  1  0  0  0  0
 10 18  1  0  0  0  0
 11 15  2  0  0  0  0
 11 19  1  0  0  0  0
 12 13  2  0  0  0  0
 12 24  1  0  0  0  0
 13 27  1  0  0  0  0
 14 29  1  0  0  0  0
 15 20  1  0  0  0  0
 15 28  1  0  0  0  0
 16 22  1  0  0  0  0
 16 27  1  0  0  0  0
 17 23  2  0  0  0  0
 17 28  1  0  0  0  0
 18 22  2  0  0  0  0
 18 23  1  0  0  0  0
 19 21  1  0  0  0  0
 20 21  1  0  0  0  0
 24 25  1  0  0  0  0
 24 26  2  0  0  0  0
  1 30  1  0  0  0  0
  2 31  1  0  0  0  0
  3 32  1  0  0  0  0
  4 33  1  0  0  0  0
  5 34  1  0  0  0  0
  6 35  1  0  0  0  0
  7 36  1  0  0  0  0
  8 37  1  0  0  0  0
 19 38  1  0  0  0  0
 19 39  1  0  0  0  0
 20 40  1  0  0  0  0
 20 41  1  0  0  0  0
 21 42  1  0  0  0  0
 21 43  1  0  0  0  0
M  CHG  2  24   1  25  -1
M  END
> <idnumber>
Z31209578

> <heavy_atoms>
29

> <LogS>
-9.05

> <LogP>
6.274

> <rotating_bonds>
4

> <PSA>
78.15

> <hb_acceptors>
4

> <hb_donors>
0

> <Collection>
Legacy

> <link>
https://www.enaminestore.com/catalog/Z31209578

> <ROCS_ShapeQuery>
x0446_0A_x1080_0A_x0929_0A_x0812_0A_x0719_0A_x1140_0A_x0528_0A_x0310_0A

> <ROCS_TanimotoCombo>
0.465 

> <ROCS_ShapeTanimoto>
0.280 

> <ROCS_ColorTanimoto>
0.185 

> <ROCS_RefTversky>
0.254 

> <ROCS_RefColorTversky>
0.206 

> <ROCS_RefTverskyCombo>
0.460 

> <ROCS_FitTversky>
1.577 

> <ROCS_FitColorTversky>
0.646 

> <ROCS_FitTverskyCombo>
2.224 

> <ROCS_ColorScore>
-7.394

> <ROCS_Overlap>
3002.397

> <ROCS_Rank>
147                 

$$$$
untitled-dbase-1170926_83
  -OEChem-02092406493D

 50 54  0     1  0  0  0  0  0999 V2000
    5.5227   15.3610   20.6730 C   0  0  0  0  0  0  0  0  0  0  0  0
   13.4950   13.0451   23.3552 C   0  0  0  0  0  0  0  0  0  0  0  0
   14.7019   13.3610   23.9725 C   0  0  0  0  0  0  0  0  0  0  0  0
    5.7096   15.0064   21.9975 C   0  0  0  0  0  0  0  0  0  0  0  0
   10.6289   14.8015   21.7802 C   0  0  0  0  0  0  0  0  0  0  0  0
   14.2396   15.7045   23.6288 C   0  0  0  0  0  0  0  0  0  0  0  0
    6.3547   14.7938   19.7288 C   0  0  0  0  0  0  0  0  0  0  0  0
   11.0768   16.0948   21.9580 C   0  0  0  0  0  0  0  0  0  0  0  0
   12.6556   14.0632   22.8720 C   0  0  0  0  0  0  0  0  0  0  0  0
   11.4354   13.7735   22.2467 C   0  0  0  0  0  0  0  0  0  0  0  0
   15.0743   14.6925   24.1093 C   0  0  0  0  0  0  0  0  0  0  0  0
   13.0274   15.4173   23.0074 C   0  0  0  0  0  0  0  0  0  0  0  0
    6.7159   14.1078   22.2900 C   0  0  0  0  0  0  0  0  0  0  0  0
   10.9504   12.4015   22.0527 C   0  0  0  0  0  0  0  0  0  0  0  0
    6.9745   13.6858   23.6744 C   0  0  0  0  0  0  0  0  0  0  0  0
    8.3943   10.5964   25.0230 C   0  0  0  0  0  0  0  0  0  0  0  0
    9.6613   10.4628   22.8755 C   0  0  0  0  0  0  0  0  0  0  0  0
    7.2424   11.2214   23.0441 C   0  0  0  0  0  0  0  0  0  0  0  0
    9.8834   12.4809   24.3628 C   0  0  0  0  0  0  0  0  0  0  0  0
    8.2953   10.2209   23.5432 C   0  0  2  0  0  0  0  0  0  0  0  0
    8.4879   12.1139   24.8934 C   0  0  1  0  0  0  0  0  0  0  0  0
   16.3665   15.0417   24.7669 C   0  0  0  0  0  0  0  0  0  0  0  0
   12.2468   16.4170   22.5557 N   0  0  0  0  0  0  0  0  0  0  0  0
    7.3315   13.9170   20.0436 N   0  0  0  0  0  0  0  0  0  0  0  0
    7.5149   13.5682   21.3453 N   0  0  0  0  0  0  0  0  0  0  0  0
   10.1613   11.8360   23.0604 N   0  0  0  0  0  0  0  0  0  0  0  0
    7.4836   12.4121   23.8660 N   0  0  0  0  0  0  0  0  0  0  0  0
   11.2753   11.8507   21.0021 O   0  0  0  0  0  0  0  0  0  0  0  0
    6.7418   14.4989   24.5663 O   0  0  0  0  0  0  0  0  0  0  0  0
    4.7462   16.0611   20.3869 H   0  0  0  0  0  0  0  0  0  0  0  0
   13.2286   11.9950   23.2621 H   0  0  0  0  0  0  0  0  0  0  0  0
   15.3419   12.5641   24.3408 H   0  0  0  0  0  0  0  0  0  0  0  0
    5.0790   15.4272   22.7735 H   0  0  0  0  0  0  0  0  0  0  0  0
    9.6792   14.6104   21.2921 H   0  0  0  0  0  0  0  0  0  0  0  0
   14.5465   16.7431   23.7441 H   0  0  0  0  0  0  0  0  0  0  0  0
    6.2593   15.0315   18.6758 H   0  0  0  0  0  0  0  0  0  0  0  0
   10.4886   16.9391   21.6140 H   0  0  0  0  0  0  0  0  0  0  0  0
    7.4862   10.3038   25.5638 H   0  0  0  0  0  0  0  0  0  0  0  0
    9.2579   10.1478   25.5243 H   0  0  0  0  0  0  0  0  0  0  0  0
   10.4147    9.7921   23.3059 H   0  0  0  0  0  0  0  0  0  0  0  0
    9.6017   10.2392   21.8043 H   0  0  0  0  0  0  0  0  0  0  0  0
    7.3284   11.4581   21.9793 H   0  0  0  0  0  0  0  0  0  0  0  0
    6.2257   10.8718   23.2551 H   0  0  0  0  0  0  0  0  0  0  0  0
    9.9711   13.5680   24.2721 H   0  0  0  0  0  0  0  0  0  0  0  0
   10.6606   12.1440   25.0589 H   0  0  0  0  0  0  0  0  0  0  0  0
    7.9766    9.1841   23.4005 H   0  0  0  0  0  0  0  0  0  0  0  0
    8.2685   12.6426   25.8258 H   0  0  0  0  0  0  0  0  0  0  0  0
   17.1719   15.0921   24.0239 H   0  0  0  0  0  0  0  0  0  0  0  0
   16.3041   16.0109   25.2786 H   0  0  0  0  0  0  0  0  0  0  0  0
   16.6404   14.2984   25.5270 H   0  0  0  0  0  0  0  0  0  0  0  0
  1  4  2  0  0  0  0
  1  7  1  0  0  0  0
  2  3  2  0  0  0  0
  2  9  1  0  0  0  0
  3 11  1  0  0  0  0
  4 13  1  0  0  0  0
  5  8  1  0  0  0  0
  5 10  2  0  0  0  0
  6 11  2  0  0  0  0
  6 12  1  0  0  0  0
  7 24  2  0  0  0  0
  8 23  2  0  0  0  0
  9 10  1  0  0  0  0
  9 12  2  0  0  0  0
 10 14  1  0  0  0  0
 11 22  1  0  0  0  0
 12 23  1  0  0  0  0
 13 15  1  0  0  0  0
 13 25  2  0  0  0  0
 14 26  1  0  0  0  0
 14 28  2  0  0  0  0
 15 27  1  0  0  0  0
 15 29  2  0  0  0  0
 16 20  1  0  0  0  0
 16 21  1  0  0  0  0
 17 20  1  0  0  0  0
 17 26  1  0  0  0  0
 18 20  1  0  0  0  0
 18 27  1  0  0  0  0
 19 21  1  0  0  0  0
 19 26  1  0  0  0  0
 21 27  1  0  0  0  0
 24 25  1  0  0  0  0
  1 30  1  0  0  0  0
  2 31  1  0  0  0  0
  3 32  1  0  0  0  0
  4 33  1  0  0  0  0
  5 34  1  0  0  0  0
  6 35  1  0  0  0  0
  7 36  1  0  0  0  0
  8 37  1  0  0  0  0
 16 38  1  0  0  0  0
 16 39  1  0  0  0  0
 17 40  1  0  0  0  0
 17 41  1  0  0  0  0
 18 42  1  0  0  0  0
 18 43  1  0  0  0  0
 19 44  1  0  0  0  0
 19 45  1  0  0  0  0
 20 46  1  0  0  0  0
 21 47  1  0  0  0  0
 22 48  1  0  0  0  0
 22 49  1  0  0  0  0
 22 50  1  0  0  0  0
M  END
> <idnumber>
Z8485030790

> <heavy_atoms>
29

> <LogS>
-4.901

> <LogP>
0.663

> <rotating_bonds>
2

> <PSA>
79.29

> <hb_acceptors>
5

> <hb_donors>
0

> <Collection>
Advanced

> <link>
https://www.enaminestore.com/catalog/Z8485030790

> <ROCS_ShapeQuery>
x0446_0A_x1080_0A_x0929_0A_x0812_0A_x0719_0A_x1140_0A_x0528_0A_x0310_0A

> <ROCS_TanimotoCombo>
0.465 

> <ROCS_ShapeTanimoto>
0.269 

> <ROCS_ColorTanimoto>
0.196 

> <ROCS_RefTversky>
0.247 

> <ROCS_RefColorTversky>
0.233 

> <ROCS_RefTverskyCombo>
0.480 

> <ROCS_FitTversky>
1.522 

> <ROCS_FitColorTversky>
0.549 

> <ROCS_FitTverskyCombo>
2.071 

> <ROCS_ColorScore>
-8.415

> <ROCS_Overlap>
2916.767

> <ROCS_Rank>
148                 

$$$$
untitled-dbase-708474_90
  -OEChem-02092406493D

 43 45  0     0  0  0  0  0  0999 V2000
   13.1503   16.4093   20.7827 C   0  0  0  0  0  0  0  0  0  0  0  0
   11.7667   16.5841   20.7560 C   0  0  0  0  0  0  0  0  0  0  0  0
   12.8767   14.4572   22.1797 C   0  0  0  0  0  0  0  0  0  0  0  0
   11.4931   14.6320   22.1530 C   0  0  0  0  0  0  0  0  0  0  0  0
   13.7053   15.3458   21.4946 C   0  0  0  0  0  0  0  0  0  0  0  0
   10.9381   15.6955   21.4411 C   0  0  0  0  0  0  0  0  0  0  0  0
    8.1530   11.9564   23.6331 C   0  0  0  0  0  0  0  0  0  0  0  0
    7.7438   10.8361   24.3035 C   0  0  0  0  0  0  0  0  0  0  0  0
    9.5398   10.2781   23.3236 C   0  0  0  0  0  0  0  0  0  0  0  0
    7.4589   13.2033   23.6410 C   0  0  0  0  0  0  0  0  0  0  0  0
    5.7967   11.9943   25.1647 C   0  0  0  0  0  0  0  0  0  0  0  0
   10.6249   13.6699   22.8927 C   0  0  0  0  0  0  0  0  0  0  0  0
   15.1847   15.1600   21.5243 C   0  0  0  0  0  0  0  0  0  0  0  0
    6.1925    9.6016   25.7649 C   0  0  0  0  0  0  0  0  0  0  0  0
    5.5010   14.3691   24.5047 C   0  0  0  0  0  0  0  0  0  0  0  0
    9.1110   16.9967   20.6511 C   0  0  0  0  0  0  0  0  0  0  0  0
   10.1278   12.4358   22.1642 C   0  0  0  0  0  0  0  0  0  0  0  0
    8.6051    9.7892   24.1124 N   0  0  0  0  0  0  0  0  0  0  0  0
    9.3089   11.5914   23.0047 N   0  0  0  0  0  0  0  0  0  0  0  0
    6.5858   10.8209   25.0688 N   0  0  0  0  0  0  0  0  0  0  0  0
    6.2826   13.1385   24.4344 N   0  0  0  0  0  0  0  0  0  0  0  0
    7.8362   14.2037   23.0359 O   0  0  0  0  0  0  0  0  0  0  0  0
    4.7579   12.0321   25.8333 O   0  0  0  0  0  0  0  0  0  0  0  0
   10.3359   13.9019   24.0646 O   0  0  0  0  0  0  0  0  0  0  0  0
    9.5887   15.8836   21.4034 O   0  0  0  0  0  0  0  0  0  0  0  0
   10.8980    9.4487   22.7288 Cl  0  0  0  0  0  0  0  0  0  0  0  0
   13.7887   17.1072   20.2479 H   0  0  0  0  0  0  0  0  0  0  0  0
   11.3407   17.4149   20.2001 H   0  0  0  0  0  0  0  0  0  0  0  0
   13.3127   13.6295   22.7349 H   0  0  0  0  0  0  0  0  0  0  0  0
   15.6211   15.7040   22.3709 H   0  0  0  0  0  0  0  0  0  0  0  0
   15.4514   14.0993   21.6177 H   0  0  0  0  0  0  0  0  0  0  0  0
   15.6507   15.5243   20.5993 H   0  0  0  0  0  0  0  0  0  0  0  0
    6.6383    9.5928   26.7704 H   0  0  0  0  0  0  0  0  0  0  0  0
    5.0964    9.5653   25.8495 H   0  0  0  0  0  0  0  0  0  0  0  0
    6.5458    8.7266   25.1996 H   0  0  0  0  0  0  0  0  0  0  0  0
    4.7603   14.3806   23.6915 H   0  0  0  0  0  0  0  0  0  0  0  0
    4.9824   14.4191   25.4735 H   0  0  0  0  0  0  0  0  0  0  0  0
    6.1711   15.2354   24.4024 H   0  0  0  0  0  0  0  0  0  0  0  0
    8.0200   17.0316   20.7034 H   0  0  0  0  0  0  0  0  0  0  0  0
    9.4336   16.9003   19.6113 H   0  0  0  0  0  0  0  0  0  0  0  0
    9.5234   17.9155   21.0747 H   0  0  0  0  0  0  0  0  0  0  0  0
   10.9753   11.8310   21.8244 H   0  0  0  0  0  0  0  0  0  0  0  0
    9.5171   12.7271   21.3029 H   0  0  0  0  0  0  0  0  0  0  0  0
  1  2  2  0  0  0  0
  1  5  1  0  0  0  0
  2  6  1  0  0  0  0
  3  4  1  0  0  0  0
  3  5  2  0  0  0  0
  4  6  2  0  0  0  0
  4 12  1  0  0  0  0
  5 13  1  0  0  0  0
  6 25  1  0  0  0  0
  7  8  2  0  0  0  0
  7 10  1  0  0  0  0
  7 19  1  0  0  0  0
  8 18  1  0  0  0  0
  8 20  1  0  0  0  0
  9 18  2  0  0  0  0
  9 19  1  0  0  0  0
  9 26  1  0  0  0  0
 10 21  1  0  0  0  0
 10 22  2  0  0  0  0
 11 20  1  0  0  0  0
 11 21  1  0  0  0  0
 11 23  2  0  0  0  0
 12 17  1  0  0  0  0
 12 24  2  0  0  0  0
 14 20  1  0  0  0  0
 15 21  1  0  0  0  0
 16 25  1  0  0  0  0
 17 19  1  0  0  0  0
  1 27  1  0  0  0  0
  2 28  1  0  0  0  0
  3 29  1  0  0  0  0
 13 30  1  0  0  0  0
 13 31  1  0  0  0  0
 13 32  1  0  0  0  0
 14 33  1  0  0  0  0
 14 34  1  0  0  0  0
 14 35  1  0  0  0  0
 15 36  1  0  0  0  0
 15 37  1  0  0  0  0
 15 38  1  0  0  0  0
 16 39  1  0  0  0  0
 16 40  1  0  0  0  0
 16 41  1  0  0  0  0
 17 42  1  0  0  0  0
 17 43  1  0  0  0  0
M  END
> <idnumber>
Z965642156

> <heavy_atoms>
26

> <LogS>
-4.768

> <LogP>
2.482

> <rotating_bonds>
4

> <PSA>
84.74

> <hb_acceptors>
5

> <hb_donors>
0

> <Collection>
Legacy

> <link>
https://www.enaminestore.com/catalog/Z965642156

> <ROCS_ShapeQuery>
x0446_0A_x1080_0A_x0929_0A_x0812_0A_x0719_0A_x1140_0A_x0528_0A_x0310_0A

> <ROCS_TanimotoCombo>
0.465 

> <ROCS_ShapeTanimoto>
0.278 

> <ROCS_ColorTanimoto>
0.187 

> <ROCS_RefTversky>
0.250 

> <ROCS_RefColorTversky>
0.203 

> <ROCS_RefTverskyCombo>
0.453 

> <ROCS_FitTversky>
1.680 

> <ROCS_FitColorTversky>
0.698 

> <ROCS_FitTverskyCombo>
2.378 

> <ROCS_ColorScore>
-7.280

> <ROCS_Overlap>
2955.865

> <ROCS_Rank>
149                 

$$$$
untitled-dbase-1162552_178
  -OEChem-02092406493D

 52 56  0     1  0  0  0  0  0999 V2000
    6.4431   14.0474   28.9319 C   0  0  0  0  0  0  0  0  0  0  0  0
    6.4778   15.3932   28.5670 C   0  0  0  0  0  0  0  0  0  0  0  0
   13.3185   14.2768   22.5305 C   0  0  0  0  0  0  0  0  0  0  0  0
    6.4314   13.0582   27.9486 C   0  0  0  0  0  0  0  0  0  0  0  0
   12.2696   13.3916   22.3080 C   0  0  0  0  0  0  0  0  0  0  0  0
    6.5006   15.7498   27.2187 C   0  0  0  0  0  0  0  0  0  0  0  0
    6.8811   16.2395   23.0522 C   0  0  0  0  0  0  0  0  0  0  0  0
   13.0483   15.6338   22.4581 C   0  0  0  0  0  0  0  0  0  0  0  0
    6.1539   15.0534   22.8372 C   0  0  0  0  0  0  0  0  0  0  0  0
    7.0996   16.2673   24.4079 C   0  0  0  0  0  0  0  0  0  0  0  0
    6.4542   13.4148   26.6003 C   0  0  0  0  0  0  0  0  0  0  0  0
   11.0005   13.8836   22.0239 C   0  0  0  0  0  0  0  0  0  0  0  0
    6.4888   14.7606   26.2353 C   0  0  0  0  0  0  0  0  0  0  0  0
   10.8341   15.2582   21.9743 C   0  0  0  0  0  0  0  0  0  0  0  0
    6.4414   12.3435   25.5945 C   0  0  0  0  0  0  0  0  0  0  0  0
    9.9003   12.9404   21.7852 C   0  0  0  0  0  0  0  0  0  0  0  0
    9.0508    9.9402   23.5854 C   0  0  0  0  0  0  0  0  0  0  0  0
   10.0217   10.6141   24.5736 C   0  0  0  0  0  0  0  0  0  0  0  0
    7.2674   11.7200   23.3536 C   0  0  0  0  0  0  0  0  0  0  0  0
    8.8636   12.8276   24.9783 C   0  0  0  0  0  0  0  0  0  0  0  0
    8.5171   11.0876   22.7202 C   0  0  1  0  0  0  0  0  0  0  0  0
    9.9817   12.1034   24.2068 C   0  0  2  0  0  0  0  0  0  0  0  0
   11.8288   16.1492   22.1848 N   0  0  0  0  0  0  0  0  0  0  0  0
    5.9258   14.3766   23.9659 N   0  0  0  0  0  0  0  0  0  0  0  0
    6.5132   15.1399   24.9032 N   0  0  0  0  0  0  0  0  0  0  0  0
    7.5198   12.2615   24.7045 N   0  0  0  0  0  0  0  0  0  0  0  0
    9.5803   12.0689   22.8087 N   0  0  0  0  0  0  0  0  0  0  0  0
    9.5436   15.7676   21.6827 N   0  0  0  0  0  0  0  0  0  0  0  0
    5.4687   11.5908   25.6096 O   0  0  0  0  0  0  0  0  0  0  0  0
    9.3381   12.9947   20.6938 O   0  0  0  0  0  0  0  0  0  0  0  0
    6.4253   13.7694   29.9817 H   0  0  0  0  0  0  0  0  0  0  0  0
    6.4874   16.1632   29.3328 H   0  0  0  0  0  0  0  0  0  0  0  0
   14.3163   13.9157   22.7519 H   0  0  0  0  0  0  0  0  0  0  0  0
    6.4049   12.0129   28.2461 H   0  0  0  0  0  0  0  0  0  0  0  0
   12.4532   12.3216   22.3582 H   0  0  0  0  0  0  0  0  0  0  0  0
    6.5274   16.8033   26.9499 H   0  0  0  0  0  0  0  0  0  0  0  0
    7.2026   16.9715   22.3262 H   0  0  0  0  0  0  0  0  0  0  0  0
   13.8323   16.3655   22.6237 H   0  0  0  0  0  0  0  0  0  0  0  0
    5.7805   14.6535   21.9052 H   0  0  0  0  0  0  0  0  0  0  0  0
    7.6131   16.9799   25.0398 H   0  0  0  0  0  0  0  0  0  0  0  0
    9.6035    9.2228   22.9675 H   0  0  0  0  0  0  0  0  0  0  0  0
    8.2576    9.3935   24.1055 H   0  0  0  0  0  0  0  0  0  0  0  0
    9.7393   10.4228   25.6139 H   0  0  0  0  0  0  0  0  0  0  0  0
   11.0299   10.2116   24.4206 H   0  0  0  0  0  0  0  0  0  0  0  0
    6.9155   12.5584   22.7398 H   0  0  0  0  0  0  0  0  0  0  0  0
    6.4511   10.9903   23.4027 H   0  0  0  0  0  0  0  0  0  0  0  0
    9.0708   12.7887   26.0525 H   0  0  0  0  0  0  0  0  0  0  0  0
    8.8242   13.8847   24.6885 H   0  0  0  0  0  0  0  0  0  0  0  0
    8.3208   10.7859   21.6870 H   0  0  0  0  0  0  0  0  0  0  0  0
   10.9450   12.5971   24.3602 H   0  0  0  0  0  0  0  0  0  0  0  0
    8.8092   15.1266   21.4764 H   0  0  0  0  0  0  0  0  0  0  0  0
    9.4240   16.7533   21.5983 H   0  0  0  0  0  0  0  0  0  0  0  0
  1  2  1  0  0  0  0
  1  4  2  0  0  0  0
  2  6  2  0  0  0  0
  3  5  2  0  0  0  0
  3  8  1  0  0  0  0
  4 11  1  0  0  0  0
  5 12  1  0  0  0  0
  6 13  1  0  0  0  0
  7  9  1  0  0  0  0
  7 10  2  0  0  0  0
  8 23  2  0  0  0  0
  9 24  2  0  0  0  0
 10 25  1  0  0  0  0
 11 13  2  0  0  0  0
 11 15  1  0  0  0  0
 12 14  2  0  0  0  0
 12 16  1  0  0  0  0
 13 25  1  0  0  0  0
 14 23  1  0  0  0  0
 14 28  1  0  0  0  0
 15 26  1  0  0  0  0
 15 29  2  0  0  0  0
 16 27  1  0  0  0  0
 16 30  2  0  0  0  0
 17 18  1  0  0  0  0
 17 21  1  0  0  0  0
 18 22  1  0  0  0  0
 19 21  1  0  0  0  0
 19 26  1  0  0  0  0
 20 22  1  0  0  0  0
 20 26  1  0  0  0  0
 21 27  1  6  0  0  0
 22 27  1  6  0  0  0
 24 25  1  0  0  0  0
  1 31  1  0  0  0  0
  2 32  1  0  0  0  0
  3 33  1  0  0  0  0
  4 34  1  0  0  0  0
  5 35  1  0  0  0  0
  6 36  1  0  0  0  0
  7 37  1  0  0  0  0
  8 38  1  0  0  0  0
  9 39  1  0  0  0  0
 10 40  1  0  0  0  0
 17 41  1  0  0  0  0
 17 42  1  0  0  0  0
 18 43  1  0  0  0  0
 18 44  1  0  0  0  0
 19 45  1  0  0  0  0
 19 46  1  0  0  0  0
 20 47  1  0  0  0  0
 20 48  1  0  0  0  0
 21 49  1  0  0  0  0
 22 50  1  0  0  0  0
 28 51  1  0  0  0  0
 28 52  1  0  0  0  0
M  END
> <idnumber>
Z8102217780

> <heavy_atoms>
30

> <LogS>
-4.173

> <LogP>
1.216

> <rotating_bonds>
3

> <PSA>
97.35

> <hb_acceptors>
5

> <hb_donors>
1

> <Collection>
Advanced

> <link>
https://www.enaminestore.com/catalog/Z8102217780

> <ROCS_ShapeQuery>
x0446_0A_x1080_0A_x0929_0A_x0812_0A_x0719_0A_x1140_0A_x0528_0A_x0310_0A

> <ROCS_TanimotoCombo>
0.465 

> <ROCS_ShapeTanimoto>
0.267 

> <ROCS_ColorTanimoto>
0.198 

> <ROCS_RefTversky>
0.246 

> <ROCS_RefColorTversky>
0.238 

> <ROCS_RefTverskyCombo>
0.484 

> <ROCS_FitTversky>
1.479 

> <ROCS_FitColorTversky>
0.538 

> <ROCS_FitTverskyCombo>
2.017 

> <ROCS_ColorScore>
-8.594

> <ROCS_Overlap>
2910.857

> <ROCS_Rank>
150                 

$$$$
untitled-dbase-1113825_48
  -OEChem-02092406493D

 57 62  0     1  0  0  0  0  0999 V2000
    4.4217   10.3880   19.5546 C   0  0  0  0  0  0  0  0  0  0  0  0
    3.4638   10.7426   18.5999 C   0  0  0  0  0  0  0  0  0  0  0  0
    9.5943   17.3020   21.9095 C   0  0  0  0  0  0  0  0  0  0  0  0
    8.2676   17.3928   21.4248 C   0  0  0  0  0  0  0  0  0  0  0  0
    2.8690   12.7556   19.8372 C   0  0  0  0  0  0  0  0  0  0  0  0
   12.8022   13.9928   22.8997 C   0  0  0  0  0  0  0  0  0  0  0  0
    3.8269   12.4187   20.8094 C   0  0  0  0  0  0  0  0  0  0  0  0
   11.5138   14.0232   22.4246 C   0  0  0  0  0  0  0  0  0  0  0  0
    4.2860   12.9914   22.0248 C   0  0  0  0  0  0  0  0  0  0  0  0
    4.5670   11.2534   20.6374 C   0  0  0  0  0  0  0  0  0  0  0  0
    2.7002   11.9046   18.7364 C   0  0  0  0  0  0  0  0  0  0  0  0
   11.1855   15.3916   22.3851 C   0  0  0  0  0  0  0  0  0  0  0  0
    9.8982   15.9609   21.9415 C   0  0  0  0  0  0  0  0  0  0  0  0
    5.2618   12.1495   22.5060 C   0  0  0  0  0  0  0  0  0  0  0  0
    7.8556   16.1008   21.1949 C   0  0  0  0  0  0  0  0  0  0  0  0
   10.7136   12.8445   22.0567 C   0  0  0  0  0  0  0  0  0  0  0  0
    6.0965   12.2112   23.7162 C   0  0  0  0  0  0  0  0  0  0  0  0
    9.2427   10.5670   24.4679 C   0  0  0  0  0  0  0  0  0  0  0  0
    9.3346   12.9150   24.2228 C   0  0  0  0  0  0  0  0  0  0  0  0
    7.9819   10.9531   22.5076 C   0  0  0  0  0  0  0  0  0  0  0  0
    8.3736   11.8091   24.6953 C   0  0  1  0  0  0  0  0  0  0  0  0
    9.4448   10.8850   22.9820 C   0  0  1  0  0  0  0  0  0  0  0  0
    3.8107   14.2424   22.6472 C   0  0  0  0  0  0  0  0  0  0  0  0
    6.6011   15.5187   20.6976 C   0  0  0  0  0  0  0  0  0  0  0  0
   14.4218   15.7700   23.6058 C   0  0  0  0  0  0  0  0  0  0  0  0
   12.1847   16.1738   22.8021 N   0  0  0  0  0  0  0  0  0  0  0  0
   13.1534   15.2941   23.1082 N   0  0  0  0  0  0  0  0  0  0  0  0
    9.9442   12.2685   23.0487 N   0  0  0  0  0  0  0  0  0  0  0  0
    7.3537   11.6434   23.6463 N   0  0  0  0  0  0  0  0  0  0  0  0
   10.7693   12.4602   20.8908 O   0  0  0  0  0  0  0  0  0  0  0  0
    5.6285   12.7762   24.7022 O   0  0  0  0  0  0  0  0  0  0  0  0
    5.4396   11.0921   21.6717 O   0  0  0  0  0  0  0  0  0  0  0  0
    8.8437   15.2219   21.5074 O   0  0  0  0  0  0  0  0  0  0  0  0
    1.7922   12.2122   17.7996 F   0  0  0  0  0  0  0  0  0  0  0  0
    5.0181    9.4888   19.4552 H   0  0  0  0  0  0  0  0  0  0  0  0
    3.3111   10.1019   17.7349 H   0  0  0  0  0  0  0  0  0  0  0  0
   10.2411   18.1194   22.1962 H   0  0  0  0  0  0  0  0  0  0  0  0
    7.6869   18.2898   21.2627 H   0  0  0  0  0  0  0  0  0  0  0  0
    2.2677   13.6551   19.9279 H   0  0  0  0  0  0  0  0  0  0  0  0
   13.4832   13.1774   23.1030 H   0  0  0  0  0  0  0  0  0  0  0  0
   10.1758   10.5749   25.0416 H   0  0  0  0  0  0  0  0  0  0  0  0
    8.7077    9.6278   24.6454 H   0  0  0  0  0  0  0  0  0  0  0  0
    8.8325   13.8447   23.9386 H   0  0  0  0  0  0  0  0  0  0  0  0
   10.1227   13.1235   24.9538 H   0  0  0  0  0  0  0  0  0  0  0  0
    7.8434   11.5215   21.5829 H   0  0  0  0  0  0  0  0  0  0  0  0
    7.5286    9.9612   22.4086 H   0  0  0  0  0  0  0  0  0  0  0  0
    7.9578   11.9502   25.6942 H   0  0  0  0  0  0  0  0  0  0  0  0
   10.0878   10.2131   22.4112 H   0  0  0  0  0  0  0  0  0  0  0  0
    2.9696   14.0503   23.3334 H   0  0  0  0  0  0  0  0  0  0  0  0
    4.6054   14.7458   23.2239 H   0  0  0  0  0  0  0  0  0  0  0  0
    3.4694   14.9749   21.8956 H   0  0  0  0  0  0  0  0  0  0  0  0
    6.6115   15.4170   19.5976 H   0  0  0  0  0  0  0  0  0  0  0  0
    6.4071   14.5152   21.1196 H   0  0  0  0  0  0  0  0  0  0  0  0
    5.7193   16.1308   20.9638 H   0  0  0  0  0  0  0  0  0  0  0  0
   15.0782   15.9401   22.7483 H   0  0  0  0  0  0  0  0  0  0  0  0
   14.2694   16.6997   24.1610 H   0  0  0  0  0  0  0  0  0  0  0  0
   14.8520   15.0197   24.2751 H   0  0  0  0  0  0  0  0  0  0  0  0
  1  2  2  0  0  0  0
  1 10  1  0  0  0  0
  2 11  1  0  0  0  0
  3  4  1  0  0  0  0
  3 13  2  0  0  0  0
  4 15  2  0  0  0  0
  5  7  1  0  0  0  0
  5 11  2  0  0  0  0
  6  8  2  0  0  0  0
  6 27  1  0  0  0  0
  7  9  1  0  0  0  0
  7 10  2  0  0  0  0
  8 12  1  0  0  0  0
  8 16  1  0  0  0  0
  9 14  2  0  0  0  0
  9 23  1  0  0  0  0
 10 32  1  0  0  0  0
 11 34  1  0  0  0  0
 12 13  1  0  0  0  0
 12 26  2  0  0  0  0
 13 33  1  0  0  0  0
 14 17  1  0  0  0  0
 14 32  1  0  0  0  0
 15 24  1  0  0  0  0
 15 33  1  0  0  0  0
 16 28  1  0  0  0  0
 16 30  2  0  0  0  0
 17 29  1  0  0  0  0
 17 31  2  0  0  0  0
 18 21  1  1  0  0  0
 18 22  1  1  0  0  0
 19 21  1  0  0  0  0
 19 28  1  0  0  0  0
 20 22  1  0  0  0  0
 20 29  1  0  0  0  0
 21 29  1  0  0  0  0
 22 28  1  0  0  0  0
 25 27  1  0  0  0  0
 26 27  1  0  0  0  0
  1 35  1  0  0  0  0
  2 36  1  0  0  0  0
  3 37  1  0  0  0  0
  4 38  1  0  0  0  0
  5 39  1  0  0  0  0
  6 40  1  0  0  0  0
 18 41  1  0  0  0  0
 18 42  1  0  0  0  0
 19 43  1  0  0  0  0
 19 44  1  0  0  0  0
 20 45  1  0  0  0  0
 20 46  1  0  0  0  0
 21 47  1  0  0  0  0
 22 48  1  0  0  0  0
 23 49  1  0  0  0  0
 23 50  1  0  0  0  0
 23 51  1  0  0  0  0
 24 52  1  0  0  0  0
 24 53  1  0  0  0  0
 24 54  1  0  0  0  0
 25 55  1  0  0  0  0
 25 56  1  0  0  0  0
 25 57  1  0  0  0  0
M  END
> <idnumber>
Z5129502667

> <heavy_atoms>
34

> <LogS>
-5.784

> <LogP>
3.902

> <rotating_bonds>
3

> <PSA>
84.72

> <hb_acceptors>
3

> <hb_donors>
0

> <Collection>
Advanced

> <link>
https://www.enaminestore.com/catalog/Z5129502667

> <ROCS_ShapeQuery>
x0446_0A_x1080_0A_x0929_0A_x0812_0A_x0719_0A_x1140_0A_x0528_0A_x0310_0A

> <ROCS_TanimotoCombo>
0.465 

> <ROCS_ShapeTanimoto>
0.265 

> <ROCS_ColorTanimoto>
0.200 

> <ROCS_RefTversky>
0.248 

> <ROCS_RefColorTversky>
0.242 

> <ROCS_RefTverskyCombo>
0.491 

> <ROCS_FitTversky>
1.357 

> <ROCS_FitColorTversky>
0.530 

> <ROCS_FitTverskyCombo>
1.887 

> <ROCS_ColorScore>
-8.754

> <ROCS_Overlap>
2939.073

> <ROCS_Rank>
151                 

$$$$
untitled-dbase-543942_161
  -OEChem-02092406493D

 58 64  0     0  0  0  0  0  0999 V2000
   12.5287   15.9362   21.2979 C   0  0  0  0  0  0  0  0  0  0  0  0
   12.7645   14.7064   21.9167 C   0  0  0  0  0  0  0  0  0  0  0  0
   11.2243   16.4084   21.1051 C   0  0  0  0  0  0  0  0  0  0  0  0
   11.7091   13.9050   22.3646 C   0  0  0  0  0  0  0  0  0  0  0  0
   10.1520   15.6162   21.5487 C   0  0  0  0  0  0  0  0  0  0  0  0
   10.4187   14.3953   22.1619 C   0  0  0  0  0  0  0  0  0  0  0  0
    8.2453   14.7904   22.0405 C   0  0  0  0  0  0  0  0  0  0  0  0
    5.3337   12.7020   19.0799 C   0  0  0  0  0  0  0  0  0  0  0  0
    5.0576   11.5884   18.3810 C   0  0  0  0  0  0  0  0  0  0  0  0
    3.4385   12.3918   20.5569 C   0  0  0  0  0  0  0  0  0  0  0  0
    4.5072   13.1202   20.1974 C   0  0  0  0  0  0  0  0  0  0  0  0
    3.8756   10.7988   18.7924 C   0  0  0  0  0  0  0  0  0  0  0  0
    2.1221   10.3571   20.0275 C   0  0  0  0  0  0  0  0  0  0  0  0
    4.8117   14.3354   20.9579 C   0  0  0  0  0  0  0  0  0  0  0  0
    9.1689   10.7977   25.4502 C   0  0  0  0  0  0  0  0  0  0  0  0
    9.1245    9.6437   23.2256 C   0  0  0  0  0  0  0  0  0  0  0  0
    7.0116   10.5846   24.1922 C   0  0  0  0  0  0  0  0  0  0  0  0
   10.2416   11.8777   23.4562 C   0  0  0  0  0  0  0  0  0  0  0  0
    8.1041   12.8293   24.4330 C   0  0  0  0  0  0  0  0  0  0  0  0
    8.0779   11.6789   22.2064 C   0  0  0  0  0  0  0  0  0  0  0  0
    9.9564   10.5371   24.1556 C   0  0  0  0  0  0  0  0  0  0  0  0
    7.8312   11.4836   25.1278 C   0  0  0  0  0  0  0  0  0  0  0  0
    7.7937   10.3332   22.8958 C   0  0  0  0  0  0  0  0  0  0  0  0
    8.9190   12.6305   23.1193 C   0  0  0  0  0  0  0  0  0  0  0  0
    6.7961   14.5576   22.2091 C   0  0  0  0  0  0  0  0  0  0  0  0
    8.7967   15.8446   21.4823 N   0  0  0  0  0  0  0  0  0  0  0  0
    3.4273    9.7019   18.2662 N   0  0  0  0  0  0  0  0  0  0  0  0
    9.1810   13.8890   22.4659 N   0  0  0  0  0  0  0  0  0  0  0  0
    2.3240    9.3963   19.0194 N   0  0  0  0  0  0  0  0  0  0  0  0
    3.1507   11.2569   19.8508 N   0  0  0  0  0  0  0  0  0  0  0  0
    1.2271   10.3657   20.8592 O   0  0  0  0  0  0  0  0  0  0  0  0
    3.9624   15.0190   21.5072 O   0  0  0  0  0  0  0  0  0  0  0  0
    6.1544   14.5424   20.9345 O   0  0  0  0  0  0  0  0  0  0  0  0
   13.3697   16.5372   20.9618 H   0  0  0  0  0  0  0  0  0  0  0  0
   13.7877   14.3645   22.0529 H   0  0  0  0  0  0  0  0  0  0  0  0
   11.0521   17.3657   20.6238 H   0  0  0  0  0  0  0  0  0  0  0  0
   11.8931   12.9509   22.8456 H   0  0  0  0  0  0  0  0  0  0  0  0
    6.1908   13.3118   18.8138 H   0  0  0  0  0  0  0  0  0  0  0  0
    5.6581   11.2559   17.5446 H   0  0  0  0  0  0  0  0  0  0  0  0
    2.7788   12.6429   21.3786 H   0  0  0  0  0  0  0  0  0  0  0  0
    8.9859    9.8504   25.9723 H   0  0  0  0  0  0  0  0  0  0  0  0
    9.7590   11.4257   26.1288 H   0  0  0  0  0  0  0  0  0  0  0  0
    9.6813    9.4402   22.3028 H   0  0  0  0  0  0  0  0  0  0  0  0
    8.9368    8.6750   23.7049 H   0  0  0  0  0  0  0  0  0  0  0  0
    6.7890    9.6313   24.6873 H   0  0  0  0  0  0  0  0  0  0  0  0
    6.0485   11.0575   23.9646 H   0  0  0  0  0  0  0  0  0  0  0  0
   10.8703   12.5045   24.1025 H   0  0  0  0  0  0  0  0  0  0  0  0
   10.8205   11.7046   22.5393 H   0  0  0  0  0  0  0  0  0  0  0  0
    7.1554   13.3376   24.2156 H   0  0  0  0  0  0  0  0  0  0  0  0
    8.6567   13.4900   25.1144 H   0  0  0  0  0  0  0  0  0  0  0  0
    8.6089   11.5059   21.2605 H   0  0  0  0  0  0  0  0  0  0  0  0
    7.1300   12.1645   21.9380 H   0  0  0  0  0  0  0  0  0  0  0  0
   10.9032   10.0395   24.3943 H   0  0  0  0  0  0  0  0  0  0  0  0
    7.2730   11.6563   26.0548 H   0  0  0  0  0  0  0  0  0  0  0  0
    7.2040    9.6949   22.2282 H   0  0  0  0  0  0  0  0  0  0  0  0
    6.5857   13.5959   22.7083 H   0  0  0  0  0  0  0  0  0  0  0  0
    6.3224   15.3435   22.8224 H   0  0  0  0  0  0  0  0  0  0  0  0
    1.7758    8.5700   18.8170 H   0  0  0  0  0  0  0  0  0  0  0  0
  1  2  1  0  0  0  0
  1  3  2  0  0  0  0
  2  4  2  0  0  0  0
  3  5  1  0  0  0  0
  4  6  1  0  0  0  0
  5  6  2  0  0  0  0
  5 26  1  0  0  0  0
  6 28  1  0  0  0  0
  7 25  1  0  0  0  0
  7 26  2  0  0  0  0
  7 28  1  0  0  0  0
  8  9  2  0  0  0  0
  8 11  1  0  0  0  0
  9 12  1  0  0  0  0
 10 11  2  0  0  0  0
 10 30  1  0  0  0  0
 11 14  1  0  0  0  0
 12 27  2  0  0  0  0
 12 30  1  0  0  0  0
 13 29  1  0  0  0  0
 13 30  1  0  0  0  0
 13 31  2  0  0  0  0
 14 32  2  0  0  0  0
 14 33  1  0  0  0  0
 15 21  1  0  0  0  0
 15 22  1  0  0  0  0
 16 21  1  0  0  0  0
 16 23  1  0  0  0  0
 17 22  1  0  0  0  0
 17 23  1  0  0  0  0
 18 21  1  0  0  0  0
 18 24  1  0  0  0  0
 19 22  1  0  0  0  0
 19 24  1  0  0  0  0
 20 23  1  0  0  0  0
 20 24  1  0  0  0  0
 24 28  1  0  0  0  0
 25 33  1  0  0  0  0
 27 29  1  0  0  0  0
  1 34  1  0  0  0  0
  2 35  1  0  0  0  0
  3 36  1  0  0  0  0
  4 37  1  0  0  0  0
  8 38  1  0  0  0  0
  9 39  1  0  0  0  0
 10 40  1  0  0  0  0
 15 41  1  0  0  0  0
 15 42  1  0  0  0  0
 16 43  1  0  0  0  0
 16 44  1  0  0  0  0
 17 45  1  0  0  0  0
 17 46  1  0  0  0  0
 18 47  1  0  0  0  0
 18 48  1  0  0  0  0
 19 49  1  0  0  0  0
 19 50  1  0  0  0  0
 20 51  1  0  0  0  0
 20 52  1  0  0  0  0
 21 53  1  0  0  0  0
 22 54  1  0  0  0  0
 23 55  1  0  0  0  0
 25 56  1  0  0  0  0
 25 57  1  0  0  0  0
 29 58  1  0  0  0  0
M  END
> <idnumber>
Z1559957199

> <heavy_atoms>
33

> <LogS>
-5.872

> <LogP>
4.008

> <rotating_bonds>
5

> <PSA>
88.82

> <hb_acceptors>
4

> <hb_donors>
1

> <Collection>
Advanced

> <link>
https://www.enaminestore.com/catalog/Z1559957199

> <ROCS_ShapeQuery>
x0446_0A_x1080_0A_x0929_0A_x0812_0A_x0719_0A_x1140_0A_x0528_0A_x0310_0A

> <ROCS_TanimotoCombo>
0.465 

> <ROCS_ShapeTanimoto>
0.280 

> <ROCS_ColorTanimoto>
0.185 

> <ROCS_RefTversky>
0.258 

> <ROCS_RefColorTversky>
0.232 

> <ROCS_RefTverskyCombo>
0.490 

> <ROCS_FitTversky>
1.434 

> <ROCS_FitColorTversky>
0.478 

> <ROCS_FitTverskyCombo>
1.912 

> <ROCS_ColorScore>
-8.387

> <ROCS_Overlap>
3054.472

> <ROCS_Rank>
152                 

$$$$
untitled-dbase-299967_179
  -OEChem-02092406493D

 58 63  0     1  0  0  0  0  0999 V2000
    3.9238   17.4114   19.0205 C   0  0  0  0  0  0  0  0  0  0  0  0
    5.1088   17.9635   19.5124 C   0  0  0  0  0  0  0  0  0  0  0  0
   11.9570   13.8094   22.4135 C   0  0  0  0  0  0  0  0  0  0  0  0
    9.9765   15.1317   22.8212 C   0  0  0  0  0  0  0  0  0  0  0  0
   12.6541   14.9636   22.0563 C   0  0  0  0  0  0  0  0  0  0  0  0
   10.6736   16.2859   22.4641 C   0  0  0  0  0  0  0  0  0  0  0  0
    3.3267   16.3100   19.6466 C   0  0  0  0  0  0  0  0  0  0  0  0
    5.7394   17.4375   20.6447 C   0  0  0  0  0  0  0  0  0  0  0  0
   10.6181   13.8935   22.7959 C   0  0  0  0  0  0  0  0  0  0  0  0
   12.0124   16.2018   22.0817 C   0  0  0  0  0  0  0  0  0  0  0  0
    3.9468   15.7686   20.7853 C   0  0  0  0  0  0  0  0  0  0  0  0
    5.1270   16.3407   21.2518 C   0  0  0  0  0  0  0  0  0  0  0  0
    4.5008   14.6263   22.5022 C   0  0  0  0  0  0  0  0  0  0  0  0
    6.1990   12.1097   24.4044 C   0  0  0  0  0  0  0  0  0  0  0  0
    9.6970    9.6811   23.7154 C   0  0  0  0  0  0  0  0  0  0  0  0
    9.7729   11.5548   22.0542 C   0  0  0  0  0  0  0  0  0  0  0  0
   10.5312   11.9422   24.4134 C   0  0  0  0  0  0  0  0  0  0  0  0
    7.5657   10.7096   22.8864 C   0  0  0  0  0  0  0  0  0  0  0  0
    8.3183   11.1059   25.2478 C   0  0  0  0  0  0  0  0  0  0  0  0
    8.3843   12.9821   23.5779 C   0  0  0  0  0  0  0  0  0  0  0  0
    8.9956   10.3050   22.5011 C   0  0  2  0  0  0  0  0  0  0  0  0
    9.7497   10.6962   24.8655 C   0  0  1  0  0  0  0  0  0  0  0  0
    9.8492   12.6222   23.1895 C   0  0  0  0  0  0  0  0  0  0  0  0
    7.6052   11.7318   24.0343 C   0  0  0  0  0  0  0  0  0  0  0  0
   12.7590   17.4357   21.7013 C   0  0  0  0  0  0  0  0  0  0  0  0
    4.5679   13.6302   23.6224 C   0  0  0  0  0  0  0  0  0  0  0  0
    3.5732   14.7052   21.5747 N   0  0  0  0  0  0  0  0  0  0  0  0
    5.4586   15.5900   22.3505 N   0  0  0  0  0  0  0  0  0  0  0  0
    5.7133   11.9395   25.5145 O   0  0  0  0  0  0  0  0  0  0  0  0
    5.5748   12.6582   23.3234 O   0  0  0  0  0  0  0  0  0  0  0  0
    3.4570   17.8429   18.1386 H   0  0  0  0  0  0  0  0  0  0  0  0
    5.5508   18.8177   19.0051 H   0  0  0  0  0  0  0  0  0  0  0  0
   12.4647   12.8488   22.3902 H   0  0  0  0  0  0  0  0  0  0  0  0
    8.9339   15.2064   23.1191 H   0  0  0  0  0  0  0  0  0  0  0  0
   13.6973   14.8888   21.7612 H   0  0  0  0  0  0  0  0  0  0  0  0
   10.1660   17.2467   22.4864 H   0  0  0  0  0  0  0  0  0  0  0  0
    2.4054   15.8893   19.2568 H   0  0  0  0  0  0  0  0  0  0  0  0
    6.6586   17.8654   21.0284 H   0  0  0  0  0  0  0  0  0  0  0  0
    9.1618    8.7788   24.0353 H   0  0  0  0  0  0  0  0  0  0  0  0
   10.7128    9.3691   23.4431 H   0  0  0  0  0  0  0  0  0  0  0  0
   10.7863   11.2659   21.7436 H   0  0  0  0  0  0  0  0  0  0  0  0
    9.2940   11.9875   21.1653 H   0  0  0  0  0  0  0  0  0  0  0  0
   10.6006   12.6547   25.2463 H   0  0  0  0  0  0  0  0  0  0  0  0
   11.5630   11.6610   24.1630 H   0  0  0  0  0  0  0  0  0  0  0  0
    7.0475   11.1313   22.0150 H   0  0  0  0  0  0  0  0  0  0  0  0
    6.9922    9.8214   23.1831 H   0  0  0  0  0  0  0  0  0  0  0  0
    7.7648   10.2282   25.6071 H   0  0  0  0  0  0  0  0  0  0  0  0
    8.3422   11.8159   26.0850 H   0  0  0  0  0  0  0  0  0  0  0  0
    8.3840   13.7366   24.3776 H   0  0  0  0  0  0  0  0  0  0  0  0
    7.8759   13.4559   22.7258 H   0  0  0  0  0  0  0  0  0  0  0  0
    8.9641    9.5789   21.6809 H   0  0  0  0  0  0  0  0  0  0  0  0
   10.2473   10.2456   25.7317 H   0  0  0  0  0  0  0  0  0  0  0  0
   12.6636   17.6232   20.6248 H   0  0  0  0  0  0  0  0  0  0  0  0
   12.3808   18.3128   22.2421 H   0  0  0  0  0  0  0  0  0  0  0  0
   13.8256   17.3473   21.9460 H   0  0  0  0  0  0  0  0  0  0  0  0
    4.8160   14.1217   24.5693 H   0  0  0  0  0  0  0  0  0  0  0  0
    3.6053   13.1232   23.7486 H   0  0  0  0  0  0  0  0  0  0  0  0
    6.2676   15.7279   22.9418 H   0  0  0  0  0  0  0  0  0  0  0  0
  1  2  1  0  0  0  0
  1  7  2  0  0  0  0
  2  8  2  0  0  0  0
  3  5  2  0  0  0  0
  3  9  1  0  0  0  0
  4  6  1  0  0  0  0
  4  9  2  0  0  0  0
  5 10  1  0  0  0  0
  6 10  2  0  0  0  0
  7 11  1  0  0  0  0
  8 12  1  0  0  0  0
  9 23  1  0  0  0  0
 10 25  1  0  0  0  0
 11 12  2  0  0  0  0
 11 27  1  0  0  0  0
 12 28  1  0  0  0  0
 13 26  1  0  0  0  0
 13 27  2  0  0  0  0
 13 28  1  0  0  0  0
 14 24  1  0  0  0  0
 14 29  2  0  0  0  0
 14 30  1  0  0  0  0
 15 21  1  0  0  0  0
 15 22  1  0  0  0  0
 16 21  1  0  0  0  0
 16 23  1  0  0  0  0
 17 22  1  0  0  0  0
 17 23  1  0  0  0  0
 18 21  1  0  0  0  0
 18 24  1  0  0  0  0
 19 22  1  0  0  0  0
 19 24  1  0  0  0  0
 20 23  1  0  0  0  0
 20 24  1  0  0  0  0
 26 30  1  0  0  0  0
  1 31  1  0  0  0  0
  2 32  1  0  0  0  0
  3 33  1  0  0  0  0
  4 34  1  0  0  0  0
  5 35  1  0  0  0  0
  6 36  1  0  0  0  0
  7 37  1  0  0  0  0
  8 38  1  0  0  0  0
 15 39  1  0  0  0  0
 15 40  1  0  0  0  0
 16 41  1  0  0  0  0
 16 42  1  0  0  0  0
 17 43  1  0  0  0  0
 17 44  1  0  0  0  0
 18 45  1  0  0  0  0
 18 46  1  0  0  0  0
 19 47  1  0  0  0  0
 19 48  1  0  0  0  0
 20 49  1  0  0  0  0
 20 50  1  0  0  0  0
 21 51  1  0  0  0  0
 22 52  1  0  0  0  0
 25 53  1  0  0  0  0
 25 54  1  0  0  0  0
 25 55  1  0  0  0  0
 26 56  1  0  0  0  0
 26 57  1  0  0  0  0
 28 58  1  0  0  0  0
M  END
> <idnumber>
Z28975724

> <heavy_atoms>
30

> <LogS>
-6.77

> <LogP>
5.949

> <rotating_bonds>
5

> <PSA>
54.98

> <hb_acceptors>
2

> <hb_donors>
1

> <Collection>
Legacy

> <link>
https://www.enaminestore.com/catalog/Z28975724

> <ROCS_ShapeQuery>
x0446_0A_x1080_0A_x0929_0A_x0812_0A_x0719_0A_x1140_0A_x0528_0A_x0310_0A

> <ROCS_TanimotoCombo>
0.465 

> <ROCS_ShapeTanimoto>
0.263 

> <ROCS_ColorTanimoto>
0.202 

> <ROCS_RefTversky>
0.243 

> <ROCS_RefColorTversky>
0.236 

> <ROCS_RefTverskyCombo>
0.479 

> <ROCS_FitTversky>
1.469 

> <ROCS_FitColorTversky>
0.580 

> <ROCS_FitTverskyCombo>
2.050 

> <ROCS_ColorScore>
-8.511

> <ROCS_Overlap>
2870.329

> <ROCS_Rank>
153                 

$$$$
untitled-dbase-886688_18
  -OEChem-02092406493D

 59 63  0     1  0  0  0  0  0999 V2000
    7.3302   14.1684   23.7584 C   0  0  0  0  0  0  0  0  0  0  0  0
   12.0045   12.9419   22.2884 C   0  0  0  0  0  0  0  0  0  0  0  0
    7.7682   17.3253   21.9939 C   0  0  0  0  0  0  0  0  0  0  0  0
   13.6281   15.1634   24.7537 C   0  0  0  0  0  0  0  0  0  0  0  0
    7.8872    9.8828   23.8292 C   0  0  0  0  0  0  0  0  0  0  0  0
    7.4509   11.9978   22.5546 C   0  0  0  0  0  0  0  0  0  0  0  0
    7.7710   12.0730   25.0448 C   0  0  0  0  0  0  0  0  0  0  0  0
    9.6487   10.8164   22.3071 C   0  0  0  0  0  0  0  0  0  0  0  0
    9.9690   10.8916   24.7986 C   0  0  0  0  0  0  0  0  0  0  0  0
    9.5340   13.0136   23.5230 C   0  0  0  0  0  0  0  0  0  0  0  0
    6.8275   16.2840   22.5872 C   0  0  0  0  0  0  0  0  0  0  0  0
   13.7582   13.9788   23.8024 C   0  0  0  0  0  0  0  0  0  0  0  0
    8.3855   16.8125   20.7006 C   0  0  0  0  0  0  0  0  0  0  0  0
   13.4802   16.4648   23.9787 C   0  0  0  0  0  0  0  0  0  0  0  0
    8.1068   14.5570   21.3733 C   0  0  0  0  0  0  0  0  0  0  0  0
   12.5873   15.3339   22.1020 C   0  0  0  0  0  0  0  0  0  0  0  0
    8.1353   10.6218   22.5041 C   0  0  1  0  0  0  0  0  0  0  0  0
    8.4564   10.6973   25.0024 C   0  0  2  0  0  0  0  0  0  0  0  0
    8.0172   12.8265   23.7235 C   0  0  0  0  0  0  0  0  0  0  0  0
   10.2449   11.6401   23.4731 C   0  0  0  0  0  0  0  0  0  0  0  0
   11.7512   11.8288   23.2739 C   0  0  0  0  0  0  0  0  0  0  0  0
    7.4643   14.9682   22.6237 N   0  0  0  0  0  0  0  0  0  0  0  0
   12.7315   14.0361   22.7572 N   0  0  0  0  0  0  0  0  0  0  0  0
    6.6960   14.4959   24.7647 O   0  0  0  0  0  0  0  0  0  0  0  0
   11.5672   12.8420   21.1393 O   0  0  0  0  0  0  0  0  0  0  0  0
    9.0259   15.5579   20.9305 O   0  0  0  0  0  0  0  0  0  0  0  0
   12.3863   16.3661   23.0675 O   0  0  0  0  0  0  0  0  0  0  0  0
    7.1922   18.2335   21.7814 H   0  0  0  0  0  0  0  0  0  0  0  0
    8.5511   17.5867   22.7119 H   0  0  0  0  0  0  0  0  0  0  0  0
   12.7374   15.0126   25.3762 H   0  0  0  0  0  0  0  0  0  0  0  0
   14.4947   15.2138   25.4211 H   0  0  0  0  0  0  0  0  0  0  0  0
    6.8117    9.7216   23.9724 H   0  0  0  0  0  0  0  0  0  0  0  0
    8.3563    8.8917   23.7988 H   0  0  0  0  0  0  0  0  0  0  0  0
    7.6012   12.5255   21.6035 H   0  0  0  0  0  0  0  0  0  0  0  0
    6.3659   11.8714   22.6662 H   0  0  0  0  0  0  0  0  0  0  0  0
    6.6944   11.9463   25.2192 H   0  0  0  0  0  0  0  0  0  0  0  0
    8.1523   12.6561   25.8934 H   0  0  0  0  0  0  0  0  0  0  0  0
   10.1404    9.8370   22.2442 H   0  0  0  0  0  0  0  0  0  0  0  0
    9.8335   11.3233   21.3511 H   0  0  0  0  0  0  0  0  0  0  0  0
   10.3855   11.4531   25.6449 H   0  0  0  0  0  0  0  0  0  0  0  0
   10.4683    9.9141   24.7932 H   0  0  0  0  0  0  0  0  0  0  0  0
    9.7266   13.5709   22.5959 H   0  0  0  0  0  0  0  0  0  0  0  0
    9.9477   13.6259   24.3360 H   0  0  0  0  0  0  0  0  0  0  0  0
    6.5801   16.5456   23.6238 H   0  0  0  0  0  0  0  0  0  0  0  0
    5.8918   16.2737   22.0231 H   0  0  0  0  0  0  0  0  0  0  0  0
   14.7290   14.0075   23.2934 H   0  0  0  0  0  0  0  0  0  0  0  0
   13.7148   13.0475   24.3703 H   0  0  0  0  0  0  0  0  0  0  0  0
    7.6066   16.6604   19.9466 H   0  0  0  0  0  0  0  0  0  0  0  0
    9.1112   17.5255   20.2915 H   0  0  0  0  0  0  0  0  0  0  0  0
   13.2728   17.2905   24.6665 H   0  0  0  0  0  0  0  0  0  0  0  0
   14.3957   16.7108   23.4279 H   0  0  0  0  0  0  0  0  0  0  0  0
    8.6291   13.6091   21.5405 H   0  0  0  0  0  0  0  0  0  0  0  0
    7.3673   14.4061   20.5838 H   0  0  0  0  0  0  0  0  0  0  0  0
   13.4903   15.5353   21.5137 H   0  0  0  0  0  0  0  0  0  0  0  0
   11.7310   15.3382   21.4220 H   0  0  0  0  0  0  0  0  0  0  0  0
    7.7270   10.0364   21.6727 H   0  0  0  0  0  0  0  0  0  0  0  0
    8.2760   10.1657   25.9434 H   0  0  0  0  0  0  0  0  0  0  0  0
   12.1915   10.9079   22.8958 H   0  0  0  0  0  0  0  0  0  0  0  0
   12.2170   12.0864   24.2234 H   0  0  0  0  0  0  0  0  0  0  0  0
  1 19  1  0  0  0  0
  1 22  1  0  0  0  0
  1 24  2  0  0  0  0
  2 21  1  0  0  0  0
  2 23  1  0  0  0  0
  2 25  2  0  0  0  0
  3 11  1  0  0  0  0
  3 13  1  0  0  0  0
  4 12  1  0  0  0  0
  4 14  1  0  0  0  0
  5 17  1  0  0  0  0
  5 18  1  0  0  0  0
  6 17  1  0  0  0  0
  6 19  1  0  0  0  0
  7 18  1  0  0  0  0
  7 19  1  0  0  0  0
  8 17  1  0  0  0  0
  8 20  1  0  0  0  0
  9 18  1  0  0  0  0
  9 20  1  0  0  0  0
 10 19  1  0  0  0  0
 10 20  1  0  0  0  0
 11 22  1  0  0  0  0
 12 23  1  0  0  0  0
 13 26  1  0  0  0  0
 14 27  1  0  0  0  0
 15 22  1  0  0  0  0
 15 26  1  0  0  0  0
 16 23  1  0  0  0  0
 16 27  1  0  0  0  0
 20 21  1  0  0  0  0
  3 28  1  0  0  0  0
  3 29  1  0  0  0  0
  4 30  1  0  0  0  0
  4 31  1  0  0  0  0
  5 32  1  0  0  0  0
  5 33  1  0  0  0  0
  6 34  1  0  0  0  0
  6 35  1  0  0  0  0
  7 36  1  0  0  0  0
  7 37  1  0  0  0  0
  8 38  1  0  0  0  0
  8 39  1  0  0  0  0
  9 40  1  0  0  0  0
  9 41  1  0  0  0  0
 10 42  1  0  0  0  0
 10 43  1  0  0  0  0
 11 44  1  0  0  0  0
 11 45  1  0  0  0  0
 12 46  1  0  0  0  0
 12 47  1  0  0  0  0
 13 48  1  0  0  0  0
 13 49  1  0  0  0  0
 14 50  1  0  0  0  0
 14 51  1  0  0  0  0
 15 52  1  0  0  0  0
 15 53  1  0  0  0  0
 16 54  1  0  0  0  0
 16 55  1  0  0  0  0
 17 56  1  0  0  0  0
 18 57  1  0  0  0  0
 21 58  1  0  0  0  0
 21 59  1  0  0  0  0
M  END
> <idnumber>
Z2303544722

> <heavy_atoms>
27

> <LogS>
-3.749

> <LogP>
0.543

> <rotating_bonds>
3

> <PSA>
59.08

> <hb_acceptors>
4

> <hb_donors>
0

> <Collection>
HTS

> <link>
https://www.enaminestore.com/catalog/Z2303544722

> <ROCS_ShapeQuery>
x0446_0A_x1080_0A_x0929_0A_x0812_0A_x0719_0A_x1140_0A_x0528_0A_x0310_0A

> <ROCS_TanimotoCombo>
0.465 

> <ROCS_ShapeTanimoto>
0.271 

> <ROCS_ColorTanimoto>
0.194 

> <ROCS_RefTversky>
0.245 

> <ROCS_RefColorTversky>
0.224 

> <ROCS_RefTverskyCombo>
0.470 

> <ROCS_FitTversky>
1.622 

> <ROCS_FitColorTversky>
0.589 

> <ROCS_FitTverskyCombo>
2.211 

> <ROCS_ColorScore>
-8.071

> <ROCS_Overlap>
2900.187

> <ROCS_Rank>
154                 

$$$$
untitled-dbase-1154219_187
  -OEChem-02092406493D

 50 54  0     1  0  0  0  0  0999 V2000
    3.9290   12.1902   23.2705 C   0  0  0  0  0  0  0  0  0  0  0  0
    3.1325   12.9091   22.3764 C   0  0  0  0  0  0  0  0  0  0  0  0
    5.6382   13.8903   23.1271 C   0  0  0  0  0  0  0  0  0  0  0  0
    5.1800   12.6802   23.6448 C   0  0  0  0  0  0  0  0  0  0  0  0
    3.5798   14.1245   21.8489 C   0  0  0  0  0  0  0  0  0  0  0  0
    4.8363   14.6035   22.2340 C   0  0  0  0  0  0  0  0  0  0  0  0
    3.1943   15.9526   20.4768 C   0  0  0  0  0  0  0  0  0  0  0  0
    4.5221   16.5508   20.8268 C   0  0  0  0  0  0  0  0  0  0  0  0
   10.7673   15.5726   21.6437 C   0  0  0  0  0  0  0  0  0  0  0  0
    6.0146   11.9211   24.5852 C   0  0  0  0  0  0  0  0  0  0  0  0
   10.8836   12.9529   23.5530 C   0  0  0  0  0  0  0  0  0  0  0  0
   11.6213   16.8003   21.4293 C   0  0  0  0  0  0  0  0  0  0  0  0
   12.9477   16.4243   22.0789 C   0  0  0  0  0  0  0  0  0  0  0  0
    8.8850    9.9231   23.6777 C   0  0  0  0  0  0  0  0  0  0  0  0
   13.0203   14.9195   21.9140 C   0  0  0  0  0  0  0  0  0  0  0  0
    7.7419   11.7863   22.7835 C   0  0  0  0  0  0  0  0  0  0  0  0
    9.4557   11.6692   25.1587 C   0  0  0  0  0  0  0  0  0  0  0  0
    9.1556   11.1847   22.8475 C   0  0  1  0  0  0  0  0  0  0  0  0
    8.2860   10.7204   24.8444 C   0  0  1  0  0  0  0  0  0  0  0  0
   11.2443   13.1371   22.1022 C   0  0  0  0  0  0  0  0  0  0  0  0
    2.7623   14.8312   20.9513 N   0  0  0  0  0  0  0  0  0  0  0  0
    5.2844   15.8212   21.7075 N   0  0  0  0  0  0  0  0  0  0  0  0
   11.6329   14.5205   21.9333 N   0  0  0  0  0  0  0  0  0  0  0  0
    7.2537   11.5096   24.1380 N   0  0  0  0  0  0  0  0  0  0  0  0
    9.9287   11.9938   23.8100 N   0  0  0  0  0  0  0  0  0  0  0  0
    4.8191   17.6189   20.3123 O   0  0  0  0  0  0  0  0  0  0  0  0
    9.5512   15.5424   21.5280 O   0  0  0  0  0  0  0  0  0  0  0  0
    5.5607   11.7146   25.7083 O   0  0  0  0  0  0  0  0  0  0  0  0
   11.4315   13.6288   24.4252 O   0  0  0  0  0  0  0  0  0  0  0  0
    3.5624   11.2475   23.6695 H   0  0  0  0  0  0  0  0  0  0  0  0
    2.1600   12.5133   22.0939 H   0  0  0  0  0  0  0  0  0  0  0  0
    6.6131   14.2753   23.4168 H   0  0  0  0  0  0  0  0  0  0  0  0
    2.5838   16.5373   19.7706 H   0  0  0  0  0  0  0  0  0  0  0  0
   11.7369   17.0172   20.3647 H   0  0  0  0  0  0  0  0  0  0  0  0
   11.1522   17.6483   21.9379 H   0  0  0  0  0  0  0  0  0  0  0  0
   13.7744   16.9016   21.5385 H   0  0  0  0  0  0  0  0  0  0  0  0
   13.0002   16.7370   23.1256 H   0  0  0  0  0  0  0  0  0  0  0  0
    8.1687    9.2380   23.2113 H   0  0  0  0  0  0  0  0  0  0  0  0
    9.7970    9.3780   23.9448 H   0  0  0  0  0  0  0  0  0  0  0  0
   13.4913   14.6307   20.9714 H   0  0  0  0  0  0  0  0  0  0  0  0
   13.5314   14.4409   22.7542 H   0  0  0  0  0  0  0  0  0  0  0  0
    7.7285   12.8625   22.5748 H   0  0  0  0  0  0  0  0  0  0  0  0
    7.0979   11.2635   22.0660 H   0  0  0  0  0  0  0  0  0  0  0  0
    9.1576   12.5753   25.6981 H   0  0  0  0  0  0  0  0  0  0  0  0
   10.2648   11.1662   25.7015 H   0  0  0  0  0  0  0  0  0  0  0  0
    9.6523   11.0532   21.8867 H   0  0  0  0  0  0  0  0  0  0  0  0
    7.9004   10.1539   25.6896 H   0  0  0  0  0  0  0  0  0  0  0  0
   10.3712   12.8976   21.5022 H   0  0  0  0  0  0  0  0  0  0  0  0
   12.0659   12.4661   21.8685 H   0  0  0  0  0  0  0  0  0  0  0  0
    6.1964   16.1692   21.9875 H   0  0  0  0  0  0  0  0  0  0  0  0
  1  2  2  0  0  0  0
  1  4  1  0  0  0  0
  2  5  1  0  0  0  0
  3  4  2  0  0  0  0
  3  6  1  0  0  0  0
  4 10  1  0  0  0  0
  5  6  2  0  0  0  0
  5 21  1  0  0  0  0
  6 22  1  0  0  0  0
  7  8  1  0  0  0  0
  7 21  2  0  0  0  0
  8 22  1  0  0  0  0
  8 26  2  0  0  0  0
  9 12  1  0  0  0  0
  9 23  1  0  0  0  0
  9 27  2  0  0  0  0
 10 24  1  0  0  0  0
 10 28  2  0  0  0  0
 11 20  1  0  0  0  0
 11 25  1  0  0  0  0
 11 29  2  0  0  0  0
 12 13  1  0  0  0  0
 13 15  1  0  0  0  0
 14 18  1  1  0  0  0
 14 19  1  1  0  0  0
 15 23  1  0  0  0  0
 16 18  1  0  0  0  0
 16 24  1  0  0  0  0
 17 19  1  0  0  0  0
 17 25  1  0  0  0  0
 18 25  1  0  0  0  0
 19 24  1  0  0  0  0
 20 23  1  0  0  0  0
  1 30  1  0  0  0  0
  2 31  1  0  0  0  0
  3 32  1  0  0  0  0
  7 33  1  0  0  0  0
 12 34  1  0  0  0  0
 12 35  1  0  0  0  0
 13 36  1  0  0  0  0
 13 37  1  0  0  0  0
 14 38  1  0  0  0  0
 14 39  1  0  0  0  0
 15 40  1  0  0  0  0
 15 41  1  0  0  0  0
 16 42  1  0  0  0  0
 16 43  1  0  0  0  0
 17 44  1  0  0  0  0
 17 45  1  0  0  0  0
 18 46  1  0  0  0  0
 19 47  1  0  0  0  0
 20 48  1  0  0  0  0
 20 49  1  0  0  0  0
 22 50  1  0  0  0  0
M  END
> <idnumber>
Z7371499622

> <heavy_atoms>
29

> <LogS>
-3.303

> <LogP>
-0.316

> <rotating_bonds>
3

> <PSA>
102.39

> <hb_acceptors>
5

> <hb_donors>
1

> <Collection>
Advanced

> <link>
https://www.enaminestore.com/catalog/Z7371499622

> <ROCS_ShapeQuery>
x0446_0A_x1080_0A_x0929_0A_x0812_0A_x0719_0A_x1140_0A_x0528_0A_x0310_0A

> <ROCS_TanimotoCombo>
0.465 

> <ROCS_ShapeTanimoto>
0.245 

> <ROCS_ColorTanimoto>
0.220 

> <ROCS_RefTversky>
0.228 

> <ROCS_RefColorTversky>
0.263 

> <ROCS_RefTverskyCombo>
0.491 

> <ROCS_FitTversky>
1.412 

> <ROCS_FitColorTversky>
0.575 

> <ROCS_FitTverskyCombo>
1.987 

> <ROCS_ColorScore>
-9.489

> <ROCS_Overlap>
2702.348

> <ROCS_Rank>
155                 

$$$$
untitled-dbase-325531_24
  -OEChem-02092406493D

 46 50  0     0  0  0  0  0  0999 V2000
   13.0840   15.9045   21.9676 C   0  0  0  0  0  0  0  0  0  0  0  0
   13.2241   14.6924   22.6505 C   0  0  0  0  0  0  0  0  0  0  0  0
    7.0618   15.7476   24.1811 C   0  0  0  0  0  0  0  0  0  0  0  0
   11.8313   16.3399   21.5159 C   0  0  0  0  0  0  0  0  0  0  0  0
   12.1211   13.8706   22.9079 C   0  0  0  0  0  0  0  0  0  0  0  0
    6.9498   17.0714   23.7562 C   0  0  0  0  0  0  0  0  0  0  0  0
    6.2304   14.9909   22.0426 C   0  0  0  0  0  0  0  0  0  0  0  0
    5.7493   12.7396   24.3918 C   0  0  0  0  0  0  0  0  0  0  0  0
    7.9430   12.4628   23.6395 C   0  0  0  0  0  0  0  0  0  0  0  0
    6.7022   14.7073   23.3242 C   0  0  0  0  0  0  0  0  0  0  0  0
    6.8191   13.3391   23.7631 C   0  0  0  0  0  0  0  0  0  0  0  0
   10.7176   15.5253   21.7675 C   0  0  0  0  0  0  0  0  0  0  0  0
   10.8879   14.3274   22.4479 C   0  0  0  0  0  0  0  0  0  0  0  0
    6.4780   17.3550   22.4745 C   0  0  0  0  0  0  0  0  0  0  0  0
    6.1183   16.3147   21.6177 C   0  0  0  0  0  0  0  0  0  0  0  0
    9.2185   12.6214   23.0884 C   0  0  0  0  0  0  0  0  0  0  0  0
    7.6634   11.2193   24.1912 C   0  0  0  0  0  0  0  0  0  0  0  0
    9.6932   10.4477   23.6798 C   0  0  0  0  0  0  0  0  0  0  0  0
   10.6929    9.3392   23.6877 C   0  0  0  0  0  0  0  0  0  0  0  0
    7.5093   19.2274   21.4323 C   0  0  0  0  0  0  0  0  0  0  0  0
    5.3104   15.4599   19.5507 C   0  0  0  0  0  0  0  0  0  0  0  0
    9.3940   15.6856   21.4531 N   0  0  0  0  0  0  0  0  0  0  0  0
   10.1006   11.5994   23.1112 N   0  0  0  0  0  0  0  0  0  0  0  0
    8.5035   10.1670   24.2408 N   0  0  0  0  0  0  0  0  0  0  0  0
    8.7309   14.6302   21.9131 N   0  0  0  0  0  0  0  0  0  0  0  0
    9.6223   13.8193   22.5066 N   0  0  0  0  0  0  0  0  0  0  0  0
    6.3718   18.6520   22.0719 O   0  0  0  0  0  0  0  0  0  0  0  0
    5.6565   16.5794   20.3637 O   0  0  0  0  0  0  0  0  0  0  0  0
    6.0887   11.1229   24.8354 S   0  0  0  0  0  0  0  0  0  0  0  0
   13.9612   16.5195   21.7831 H   0  0  0  0  0  0  0  0  0  0  0  0
   14.2095   14.3818   22.9891 H   0  0  0  0  0  0  0  0  0  0  0  0
    7.4318   15.5427   25.1828 H   0  0  0  0  0  0  0  0  0  0  0  0
   11.7320   17.2821   20.9871 H   0  0  0  0  0  0  0  0  0  0  0  0
   12.2305   12.9312   23.4371 H   0  0  0  0  0  0  0  0  0  0  0  0
    7.2326   17.8773   24.4285 H   0  0  0  0  0  0  0  0  0  0  0  0
    5.9477   14.1863   21.3666 H   0  0  0  0  0  0  0  0  0  0  0  0
    4.7804   13.1646   24.6180 H   0  0  0  0  0  0  0  0  0  0  0  0
   11.3004    9.3810   24.5995 H   0  0  0  0  0  0  0  0  0  0  0  0
   10.2003    8.3599   23.6411 H   0  0  0  0  0  0  0  0  0  0  0  0
   11.3614    9.4012   22.8197 H   0  0  0  0  0  0  0  0  0  0  0  0
    7.2913   20.2637   21.1625 H   0  0  0  0  0  0  0  0  0  0  0  0
    7.7557   18.6508   20.5372 H   0  0  0  0  0  0  0  0  0  0  0  0
    8.3555   19.2035   22.1230 H   0  0  0  0  0  0  0  0  0  0  0  0
    4.9573   15.8104   18.5778 H   0  0  0  0  0  0  0  0  0  0  0  0
    4.5294   14.8768   20.0453 H   0  0  0  0  0  0  0  0  0  0  0  0
    6.1956   14.8349   19.4110 H   0  0  0  0  0  0  0  0  0  0  0  0
  1  2  1  0  0  0  0
  1  4  2  0  0  0  0
  2  5  2  0  0  0  0
  3  6  2  0  0  0  0
  3 10  1  0  0  0  0
  4 12  1  0  0  0  0
  5 13  1  0  0  0  0
  6 14  1  0  0  0  0
  7 10  2  0  0  0  0
  7 15  1  0  0  0  0
  8 11  2  0  0  0  0
  8 29  1  0  0  0  0
  9 11  1  0  0  0  0
  9 16  1  0  0  0  0
  9 17  2  0  0  0  0
 10 11  1  0  0  0  0
 12 13  2  0  0  0  0
 12 22  1  0  0  0  0
 13 26  1  0  0  0  0
 14 15  2  0  0  0  0
 14 27  1  0  0  0  0
 15 28  1  0  0  0  0
 16 23  2  0  0  0  0
 16 26  1  0  0  0  0
 17 24  1  0  0  0  0
 17 29  1  0  0  0  0
 18 19  1  0  0  0  0
 18 23  1  0  0  0  0
 18 24  2  0  0  0  0
 20 27  1  0  0  0  0
 21 28  1  0  0  0  0
 22 25  2  0  0  0  0
 25 26  1  0  0  0  0
  1 30  1  0  0  0  0
  2 31  1  0  0  0  0
  3 32  1  0  0  0  0
  4 33  1  0  0  0  0
  5 34  1  0  0  0  0
  6 35  1  0  0  0  0
  7 36  1  0  0  0  0
  8 37  1  0  0  0  0
 19 38  1  0  0  0  0
 19 39  1  0  0  0  0
 19 40  1  0  0  0  0
 20 41  1  0  0  0  0
 20 42  1  0  0  0  0
 20 43  1  0  0  0  0
 21 44  1  0  0  0  0
 21 45  1  0  0  0  0
 21 46  1  0  0  0  0
M  END
> <idnumber>
Z31204224

> <heavy_atoms>
29

> <LogS>
-6.47

> <LogP>
4.87

> <rotating_bonds>
4

> <PSA>
74.95

> <hb_acceptors>
6

> <hb_donors>
0

> <Collection>
Legacy

> <link>
https://www.enaminestore.com/catalog/Z31204224

> <ROCS_ShapeQuery>
x0446_0A_x1080_0A_x0929_0A_x0812_0A_x0719_0A_x1140_0A_x0528_0A_x0310_0A

> <ROCS_TanimotoCombo>
0.465 

> <ROCS_ShapeTanimoto>
0.282 

> <ROCS_ColorTanimoto>
0.182 

> <ROCS_RefTversky>
0.256 

> <ROCS_RefColorTversky>
0.209 

> <ROCS_RefTverskyCombo>
0.465 

> <ROCS_FitTversky>
1.574 

> <ROCS_FitColorTversky>
0.591 

> <ROCS_FitTverskyCombo>
2.165 

> <ROCS_ColorScore>
-7.489

> <ROCS_Overlap>
3029.112

> <ROCS_Rank>
156                 

$$$$
untitled-dbase-858984_132
  -OEChem-02092406493D

 58 62  0     1  0  0  0  0  0999 V2000
   11.6339   14.2085   22.3281 C   0  0  0  0  0  0  0  0  0  0  0  0
    9.3750   15.0587   22.2209 C   0  0  0  0  0  0  0  0  0  0  0  0
   12.1119   15.4135   21.8133 C   0  0  0  0  0  0  0  0  0  0  0  0
    9.8530   16.2638   21.7061 C   0  0  0  0  0  0  0  0  0  0  0  0
    4.2130   10.9873   20.1780 C   0  0  0  0  0  0  0  0  0  0  0  0
    2.8167   11.9616   18.4639 C   0  0  0  0  0  0  0  0  0  0  0  0
    4.1085   12.1582   20.9287 C   0  0  0  0  0  0  0  0  0  0  0  0
   10.2654   14.0311   22.5319 C   0  0  0  0  0  0  0  0  0  0  0  0
   11.2215   16.4411   21.5023 C   0  0  0  0  0  0  0  0  0  0  0  0
    2.7122   13.1326   19.2146 C   0  0  0  0  0  0  0  0  0  0  0  0
    3.3581   13.2309   20.4470 C   0  0  0  0  0  0  0  0  0  0  0  0
    3.5671   10.8890   18.9455 C   0  0  0  0  0  0  0  0  0  0  0  0
    4.8006   12.2392   22.2261 C   0  0  0  0  0  0  0  0  0  0  0  0
   10.1467    9.9608   24.2188 C   0  0  0  0  0  0  0  0  0  0  0  0
   10.0756   11.4637   22.2161 C   0  0  0  0  0  0  0  0  0  0  0  0
   10.3484   12.4440   24.5074 C   0  0  0  0  0  0  0  0  0  0  0  0
    8.0024   10.2685   22.9570 C   0  0  0  0  0  0  0  0  0  0  0  0
    8.2666   11.2580   25.2500 C   0  0  0  0  0  0  0  0  0  0  0  0
    8.1870   12.7602   23.2363 C   0  0  0  0  0  0  0  0  0  0  0  0
    9.5285   10.1649   22.8299 C   0  0  2  0  0  0  0  0  0  0  0  0
    9.7947   11.1483   25.1236 C   0  0  1  0  0  0  0  0  0  0  0  0
    9.7377   12.7033   23.0993 C   0  0  0  0  0  0  0  0  0  0  0  0
    7.6221   11.4611   23.8599 C   0  0  0  0  0  0  0  0  0  0  0  0
   11.7335   17.7299   20.9535 C   0  0  0  0  0  0  0  0  0  0  0  0
    6.0988   11.5573   23.9924 C   0  0  0  0  0  0  0  0  0  0  0  0
    5.5040   11.2638   22.6952 N   0  0  0  0  0  0  0  0  0  0  0  0
    1.9419   14.2150   18.7069 N   0  3  0  0  0  0  0  0  0  0  0  0
    0.7220   14.2756   18.9895 O   0  5  0  0  0  0  0  0  0  0  0  0
    2.5057   15.0765   17.9913 O   0  0  0  0  0  0  0  0  0  0  0  0
    3.2583   14.3753   21.1855 O   0  0  0  0  0  0  0  0  0  0  0  0
    3.6960    9.4439   18.0194 Cl  0  0  0  0  0  0  0  0  0  0  0  0
   12.3349   13.4130   22.5670 H   0  0  0  0  0  0  0  0  0  0  0  0
    8.3072   14.9294   22.3777 H   0  0  0  0  0  0  0  0  0  0  0  0
   13.1797   15.5434   21.6592 H   0  0  0  0  0  0  0  0  0  0  0  0
    9.1523   17.0592   21.4663 H   0  0  0  0  0  0  0  0  0  0  0  0
    4.7988   10.1520   20.5561 H   0  0  0  0  0  0  0  0  0  0  0  0
    2.3125   11.8850   17.5024 H   0  0  0  0  0  0  0  0  0  0  0  0
    4.6913   13.1853   22.7883 H   0  0  0  0  0  0  0  0  0  0  0  0
    9.7761    9.0281   24.6617 H   0  0  0  0  0  0  0  0  0  0  0  0
   11.2359    9.8621   24.1349 H   0  0  0  0  0  0  0  0  0  0  0  0
   11.1636   11.3803   22.0886 H   0  0  0  0  0  0  0  0  0  0  0  0
    9.6608   11.5978   21.2076 H   0  0  0  0  0  0  0  0  0  0  0  0
   10.1287   13.2904   25.1720 H   0  0  0  0  0  0  0  0  0  0  0  0
   11.4430   12.3829   24.4392 H   0  0  0  0  0  0  0  0  0  0  0  0
    7.5557   10.3873   21.9614 H   0  0  0  0  0  0  0  0  0  0  0  0
    7.6025    9.3343   23.3719 H   0  0  0  0  0  0  0  0  0  0  0  0
    7.8712   10.3489   25.7215 H   0  0  0  0  0  0  0  0  0  0  0  0
    8.0098   12.0937   25.9138 H   0  0  0  0  0  0  0  0  0  0  0  0
    7.9043   13.6238   23.8546 H   0  0  0  0  0  0  0  0  0  0  0  0
    7.7326   12.9311   22.2503 H   0  0  0  0  0  0  0  0  0  0  0  0
    9.7862    9.3173   22.1849 H   0  0  0  0  0  0  0  0  0  0  0  0
   10.2349   10.9976   26.1158 H   0  0  0  0  0  0  0  0  0  0  0  0
   11.7715   17.6903   19.8580 H   0  0  0  0  0  0  0  0  0  0  0  0
   11.0935   18.5713   21.2492 H   0  0  0  0  0  0  0  0  0  0  0  0
   12.7414   17.9504   21.3289 H   0  0  0  0  0  0  0  0  0  0  0  0
    5.8251   12.5610   24.3127 H   0  0  0  0  0  0  0  0  0  0  0  0
    5.7530   10.8400   24.7348 H   0  0  0  0  0  0  0  0  0  0  0  0
    2.7078   15.0231   20.7207 H   0  0  0  0  0  0  0  0  0  0  0  0
  1  3  2  0  0  0  0
  1  8  1  0  0  0  0
  2  4  1  0  0  0  0
  2  8  2  0  0  0  0
  3  9  1  0  0  0  0
  4  9  2  0  0  0  0
  5  7  1  0  0  0  0
  5 12  2  0  0  0  0
  6 10  2  0  0  0  0
  6 12  1  0  0  0  0
  7 11  2  0  0  0  0
  7 13  1  0  0  0  0
  8 22  1  0  0  0  0
  9 24  1  0  0  0  0
 10 11  1  0  0  0  0
 10 27  1  0  0  0  0
 11 30  1  0  0  0  0
 12 31  1  0  0  0  0
 13 26  2  0  0  0  0
 14 20  1  0  0  0  0
 14 21  1  0  0  0  0
 15 20  1  0  0  0  0
 15 22  1  0  0  0  0
 16 21  1  0  0  0  0
 16 22  1  0  0  0  0
 17 20  1  0  0  0  0
 17 23  1  0  0  0  0
 18 21  1  0  0  0  0
 18 23  1  0  0  0  0
 19 22  1  0  0  0  0
 19 23  1  0  0  0  0
 23 25  1  0  0  0  0
 25 26  1  4  0  0  0
 27 28  1  0  0  0  0
 27 29  2  0  0  0  0
  1 32  1  0  0  0  0
  2 33  1  0  0  0  0
  3 34  1  0  0  0  0
  4 35  1  0  0  0  0
  5 36  1  0  0  0  0
  6 37  1  0  0  0  0
 13 38  1  0  0  0  0
 14 39  1  0  0  0  0
 14 40  1  0  0  0  0
 15 41  1  0  0  0  0
 15 42  1  0  0  0  0
 16 43  1  0  0  0  0
 16 44  1  0  0  0  0
 17 45  1  0  0  0  0
 17 46  1  0  0  0  0
 18 47  1  0  0  0  0
 18 48  1  0  0  0  0
 19 49  1  0  0  0  0
 19 50  1  0  0  0  0
 20 51  1  0  0  0  0
 21 52  1  0  0  0  0
 24 53  1  0  0  0  0
 24 54  1  0  0  0  0
 24 55  1  0  0  0  0
 25 56  1  0  0  0  0
 25 57  1  0  0  0  0
 30 58  1  0  0  0  0
M  CHG  2  27   1  28  -1
M  END
> <idnumber>
Z56852696

> <heavy_atoms>
31

> <LogS>
-7.86

> <LogP>
8.815

> <rotating_bonds>
5

> <PSA>
75.73

> <hb_acceptors>
4

> <hb_donors>
1

> <Collection>
Legacy

> <link>
https://www.enaminestore.com/catalog/Z56852696

> <ROCS_ShapeQuery>
x0446_0A_x1080_0A_x0929_0A_x0812_0A_x0719_0A_x1140_0A_x0528_0A_x0310_0A

> <ROCS_TanimotoCombo>
0.465 

> <ROCS_ShapeTanimoto>
0.267 

> <ROCS_ColorTanimoto>
0.197 

> <ROCS_RefTversky>
0.246 

> <ROCS_RefColorTversky>
0.232 

> <ROCS_RefTverskyCombo>
0.478 

> <ROCS_FitTversky>
1.484 

> <ROCS_FitColorTversky>
0.570 

> <ROCS_FitTverskyCombo>
2.054 

> <ROCS_ColorScore>
-8.349

> <ROCS_Overlap>
2908.998

> <ROCS_Rank>
157                 

$$$$
untitled-dbase-326105_122
  -OEChem-02092406493D

 50 54  0     0  0  0  0  0  0999 V2000
   13.1664   14.6048   22.3889 C   0  0  0  0  0  0  0  0  0  0  0  0
    9.6744   16.0935   19.3788 C   0  0  0  0  0  0  0  0  0  0  0  0
   12.7885   15.1452   21.1632 C   0  0  0  0  0  0  0  0  0  0  0  0
   11.0228   15.8980   19.6410 C   0  0  0  0  0  0  0  0  0  0  0  0
   12.1918   14.2729   23.3218 C   0  0  0  0  0  0  0  0  0  0  0  0
    8.7747   15.7358   20.3623 C   0  0  0  0  0  0  0  0  0  0  0  0
   11.4310   15.3556   20.8670 C   0  0  0  0  0  0  0  0  0  0  0  0
    8.0423   12.5866   24.0703 C   0  0  0  0  0  0  0  0  0  0  0  0
    6.8961   13.4217   24.2575 C   0  0  0  0  0  0  0  0  0  0  0  0
   10.4361   15.0212   21.8094 C   0  0  0  0  0  0  0  0  0  0  0  0
   10.8422   14.4822   23.0271 C   0  0  0  0  0  0  0  0  0  0  0  0
    5.7249   12.7001   24.3376 C   0  0  0  0  0  0  0  0  0  0  0  0
    9.4076   12.8585   23.9369 C   0  0  0  0  0  0  0  0  0  0  0  0
    7.6753   11.2481   24.0168 C   0  0  0  0  0  0  0  0  0  0  0  0
    9.7906   10.5974   23.7351 C   0  0  0  0  0  0  0  0  0  0  0  0
   14.4372    9.4211   23.7882 C   0  0  0  0  0  0  0  0  0  0  0  0
   14.2092   10.5733   22.8145 C   0  0  0  0  0  0  0  0  0  0  0  0
   13.0555    8.8378   24.0452 C   0  0  0  0  0  0  0  0  0  0  0  0
   12.7093   10.5876   22.5594 C   0  0  0  0  0  0  0  0  0  0  0  0
    6.9506   14.9026   24.3559 C   0  0  0  0  0  0  0  0  0  0  0  0
    4.3415   13.1917   24.5274 C   0  0  0  0  0  0  0  0  0  0  0  0
   10.7915    9.5063   23.5462 C   0  0  0  0  0  0  0  0  0  0  0  0
    9.1269   15.2098   21.5578 N   0  0  0  0  0  0  0  0  0  0  0  0
   10.2883   11.8491   23.7677 N   0  0  0  0  0  0  0  0  0  0  0  0
    8.5097   10.2034   23.8501 N   0  0  0  0  0  0  0  0  0  0  0  0
   12.1667    9.9675   23.7691 N   0  0  0  0  0  0  0  0  0  0  0  0
    9.9134   14.1441   23.9715 O   0  0  0  0  0  0  0  0  0  0  0  0
    5.9955   11.0178   24.1877 S   0  0  0  0  0  0  0  0  0  0  0  0
   14.2162   14.4428   22.6137 H   0  0  0  0  0  0  0  0  0  0  0  0
    9.3413   16.5121   18.4364 H   0  0  0  0  0  0  0  0  0  0  0  0
   13.5594   15.3998   20.4392 H   0  0  0  0  0  0  0  0  0  0  0  0
   11.7537   16.1711   18.8834 H   0  0  0  0  0  0  0  0  0  0  0  0
   12.4852   13.8515   24.2795 H   0  0  0  0  0  0  0  0  0  0  0  0
    7.7078   15.8666   20.2141 H   0  0  0  0  0  0  0  0  0  0  0  0
   15.1191    8.6703   23.3758 H   0  0  0  0  0  0  0  0  0  0  0  0
   14.8786    9.8019   24.7168 H   0  0  0  0  0  0  0  0  0  0  0  0
   14.5358   11.5149   23.2711 H   0  0  0  0  0  0  0  0  0  0  0  0
   14.7728   10.4370   21.8857 H   0  0  0  0  0  0  0  0  0  0  0  0
   12.8729    8.0043   23.3566 H   0  0  0  0  0  0  0  0  0  0  0  0
   12.9564    8.4751   25.0717 H   0  0  0  0  0  0  0  0  0  0  0  0
   12.3357   11.6045   22.4128 H   0  0  0  0  0  0  0  0  0  0  0  0
   12.4808    9.9951   21.6656 H   0  0  0  0  0  0  0  0  0  0  0  0
    6.8507   15.3616   23.3623 H   0  0  0  0  0  0  0  0  0  0  0  0
    6.1477   15.2954   24.9972 H   0  0  0  0  0  0  0  0  0  0  0  0
    7.8984   15.2442   24.7977 H   0  0  0  0  0  0  0  0  0  0  0  0
    3.8601   13.3944   23.5585 H   0  0  0  0  0  0  0  0  0  0  0  0
    3.7184   12.4623   25.0693 H   0  0  0  0  0  0  0  0  0  0  0  0
    4.3147   14.1204   25.1199 H   0  0  0  0  0  0  0  0  0  0  0  0
   10.6048    8.6749   24.2397 H   0  0  0  0  0  0  0  0  0  0  0  0
   10.7453    9.0901   22.5309 H   0  0  0  0  0  0  0  0  0  0  0  0
  1  3  1  0  0  0  0
  1  5  2  0  0  0  0
  2  4  2  0  0  0  0
  2  6  1  0  0  0  0
  3  7  2  0  0  0  0
  4  7  1  0  0  0  0
  5 11  1  0  0  0  0
  6 23  2  0  0  0  0
  7 10  1  0  0  0  0
  8  9  1  0  0  0  0
  8 13  1  0  0  0  0
  8 14  2  0  0  0  0
  9 12  2  0  0  0  0
  9 20  1  0  0  0  0
 10 11  2  0  0  0  0
 10 23  1  0  0  0  0
 11 27  1  0  0  0  0
 12 21  1  0  0  0  0
 12 28  1  0  0  0  0
 13 24  2  0  0  0  0
 13 27  1  0  0  0  0
 14 25  1  0  0  0  0
 14 28  1  0  0  0  0
 15 22  1  0  0  0  0
 15 24  1  0  0  0  0
 15 25  2  0  0  0  0
 16 17  1  0  0  0  0
 16 18  1  0  0  0  0
 17 19  1  0  0  0  0
 18 26  1  0  0  0  0
 19 26  1  0  0  0  0
 22 26  1  0  0  0  0
  1 29  1  0  0  0  0
  2 30  1  0  0  0  0
  3 31  1  0  0  0  0
  4 32  1  0  0  0  0
  5 33  1  0  0  0  0
  6 34  1  0  0  0  0
 16 35  1  0  0  0  0
 16 36  1  0  0  0  0
 17 37  1  0  0  0  0
 17 38  1  0  0  0  0
 18 39  1  0  0  0  0
 18 40  1  0  0  0  0
 19 41  1  0  0  0  0
 19 42  1  0  0  0  0
 20 43  1  0  0  0  0
 20 44  1  0  0  0  0
 20 45  1  0  0  0  0
 21 46  1  0  0  0  0
 21 47  1  0  0  0  0
 21 48  1  0  0  0  0
 22 49  1  0  0  0  0
 22 50  1  0  0  0  0
M  END
> <idnumber>
Z31203811

> <heavy_atoms>
28

> <LogS>
-5.52

> <LogP>
4.287

> <rotating_bonds>
4

> <PSA>
51.14

> <hb_acceptors>
4

> <hb_donors>
0

> <Collection>
Legacy

> <link>
https://www.enaminestore.com/catalog/Z31203811

> <ROCS_ShapeQuery>
x0446_0A_x1080_0A_x0929_0A_x0812_0A_x0719_0A_x1140_0A_x0528_0A_x0310_0A

> <ROCS_TanimotoCombo>
0.465 

> <ROCS_ShapeTanimoto>
0.266 

> <ROCS_ColorTanimoto>
0.198 

> <ROCS_RefTversky>
0.243 

> <ROCS_RefColorTversky>
0.218 

> <ROCS_RefTverskyCombo>
0.461 

> <ROCS_FitTversky>
1.550 

> <ROCS_FitColorTversky>
0.686 

> <ROCS_FitTverskyCombo>
2.236 

> <ROCS_ColorScore>
-7.821

> <ROCS_Overlap>
2876.077

> <ROCS_Rank>
158                 

$$$$
untitled-dbase-1153811_96
  -OEChem-02092406493D

 49 52  0     1  0  0  0  0  0999 V2000
   12.3319   13.8040   23.3036 C   0  0  0  0  0  0  0  0  0  0  0  0
   13.1532   14.8724   23.6633 C   0  0  0  0  0  0  0  0  0  0  0  0
   11.8158   16.3575   22.3058 C   0  0  0  0  0  0  0  0  0  0  0  0
   11.2525   14.0123   22.4450 C   0  0  0  0  0  0  0  0  0  0  0  0
   12.8952   16.1492   23.1644 C   0  0  0  0  0  0  0  0  0  0  0  0
   10.9945   15.2891   21.9461 C   0  0  0  0  0  0  0  0  0  0  0  0
   10.3991   12.8712   22.0779 C   0  0  0  0  0  0  0  0  0  0  0  0
    5.9877   11.9713   24.2733 C   0  0  0  0  0  0  0  0  0  0  0  0
    5.9365   13.7232   22.5030 C   0  0  0  0  0  0  0  0  0  0  0  0
    5.1755   14.9413   23.0162 C   0  0  0  0  0  0  0  0  0  0  0  0
    3.8418   13.0276   23.5818 C   0  0  0  0  0  0  0  0  0  0  0  0
    9.2260   10.3901   24.4475 C   0  0  0  0  0  0  0  0  0  0  0  0
    9.2983   12.7512   24.3960 C   0  0  0  0  0  0  0  0  0  0  0  0
    7.7261   10.9418   22.7056 C   0  0  0  0  0  0  0  0  0  0  0  0
    5.2140   12.5207   23.1141 C   0  0  2  0  0  0  0  0  0  0  0  0
    8.4004   11.6036   24.8920 C   0  0  1  0  0  0  0  0  0  0  0  0
    9.2368   10.8364   22.9809 C   0  0  1  0  0  0  0  0  0  0  0  0
    3.7346   14.4595   23.0647 C   0  0  2  0  0  0  0  0  0  0  0  0
   13.7732   17.2915   23.5495 C   0  0  0  0  0  0  0  0  0  0  0  0
    9.7515   12.2105   23.1035 N   0  0  0  0  0  0  0  0  0  0  0  0
    7.2538   11.5187   23.9724 N   0  0  0  0  0  0  0  0  0  0  0  0
   10.3064   12.5906   20.8850 O   0  0  0  0  0  0  0  0  0  0  0  0
    5.4947   11.9468   25.4015 O   0  0  0  0  0  0  0  0  0  0  0  0
    9.9448   15.5130   21.1062 O   0  0  0  0  0  0  0  0  0  0  0  0
    3.1944   14.4653   21.7478 O   0  0  0  0  0  0  0  0  0  0  0  0
   12.5432   12.8134   23.6985 H   0  0  0  0  0  0  0  0  0  0  0  0
   13.9920   14.7005   24.3327 H   0  0  0  0  0  0  0  0  0  0  0  0
   11.6126   17.3521   21.9160 H   0  0  0  0  0  0  0  0  0  0  0  0
    5.8551   13.6737   21.4102 H   0  0  0  0  0  0  0  0  0  0  0  0
    7.0008   13.7780   22.7534 H   0  0  0  0  0  0  0  0  0  0  0  0
    5.5249   15.2034   24.0215 H   0  0  0  0  0  0  0  0  0  0  0  0
    5.3160   15.8015   22.3547 H   0  0  0  0  0  0  0  0  0  0  0  0
    3.0441   12.3888   23.1862 H   0  0  0  0  0  0  0  0  0  0  0  0
    3.7669   13.0193   24.6763 H   0  0  0  0  0  0  0  0  0  0  0  0
   10.2252   10.3534   24.8948 H   0  0  0  0  0  0  0  0  0  0  0  0
    8.7132    9.4359   24.6099 H   0  0  0  0  0  0  0  0  0  0  0  0
    8.7692   13.6988   24.2571 H   0  0  0  0  0  0  0  0  0  0  0  0
   10.1741   12.9025   25.0352 H   0  0  0  0  0  0  0  0  0  0  0  0
    7.4739   11.5919   21.8628 H   0  0  0  0  0  0  0  0  0  0  0  0
    7.2577    9.9611   22.5739 H   0  0  0  0  0  0  0  0  0  0  0  0
    5.1117   11.7149   22.3800 H   0  0  0  0  0  0  0  0  0  0  0  0
    8.1172   11.6554   25.9445 H   0  0  0  0  0  0  0  0  0  0  0  0
    9.7968   10.2206   22.2752 H   0  0  0  0  0  0  0  0  0  0  0  0
    3.1056   15.0917   23.6981 H   0  0  0  0  0  0  0  0  0  0  0  0
   14.6040   17.3908   22.8401 H   0  0  0  0  0  0  0  0  0  0  0  0
   13.2143   18.2362   23.5651 H   0  0  0  0  0  0  0  0  0  0  0  0
   14.1897   17.1524   24.5557 H   0  0  0  0  0  0  0  0  0  0  0  0
    9.4640   14.6865   20.9438 H   0  0  0  0  0  0  0  0  0  0  0  0
    2.2786   14.1531   21.8216 H   0  0  0  0  0  0  0  0  0  0  0  0
  1  2  2  0  0  0  0
  1  4  1  0  0  0  0
  2  5  1  0  0  0  0
  3  5  2  0  0  0  0
  3  6  1  0  0  0  0
  4  6  2  0  0  0  0
  4  7  1  0  0  0  0
  5 19  1  0  0  0  0
  6 24  1  0  0  0  0
  7 20  1  0  0  0  0
  7 22  2  0  0  0  0
  8 15  1  6  0  0  0
  8 21  1  0  0  0  0
  8 23  2  0  0  0  0
  9 10  1  0  0  0  0
  9 15  1  0  0  0  0
 10 18  1  0  0  0  0
 11 15  1  0  0  0  0
 11 18  1  0  0  0  0
 12 16  1  1  0  0  0
 12 17  1  1  0  0  0
 13 16  1  0  0  0  0
 13 20  1  0  0  0  0
 14 17  1  0  0  0  0
 14 21  1  0  0  0  0
 16 21  1  0  0  0  0
 17 20  1  0  0  0  0
 18 25  1  1  0  0  0
  1 26  1  0  0  0  0
  2 27  1  0  0  0  0
  3 28  1  0  0  0  0
  9 29  1  0  0  0  0
  9 30  1  0  0  0  0
 10 31  1  0  0  0  0
 10 32  1  0  0  0  0
 11 33  1  0  0  0  0
 11 34  1  0  0  0  0
 12 35  1  0  0  0  0
 12 36  1  0  0  0  0
 13 37  1  0  0  0  0
 13 38  1  0  0  0  0
 14 39  1  0  0  0  0
 14 40  1  0  0  0  0
 15 41  1  0  0  0  0
 16 42  1  0  0  0  0
 17 43  1  0  0  0  0
 18 44  1  0  0  0  0
 19 45  1  0  0  0  0
 19 46  1  0  0  0  0
 19 47  1  0  0  0  0
 24 48  1  0  0  0  0
 25 49  1  0  0  0  0
M  END
> <idnumber>
Z7371350643

> <heavy_atoms>
25

> <LogS>
-3.589

> <LogP>
1.556

> <rotating_bonds>
2

> <PSA>
81.08

> <hb_acceptors>
4

> <hb_donors>
2

> <Collection>
Advanced

> <link>
https://www.enaminestore.com/catalog/Z7371350643

> <ROCS_ShapeQuery>
x0446_0A_x1080_0A_x0929_0A_x0812_0A_x0719_0A_x1140_0A_x0528_0A_x0310_0A

> <ROCS_TanimotoCombo>
0.465 

> <ROCS_ShapeTanimoto>
0.242 

> <ROCS_ColorTanimoto>
0.222 

> <ROCS_RefTversky>
0.223 

> <ROCS_RefColorTversky>
0.260 

> <ROCS_RefTverskyCombo>
0.483 

> <ROCS_FitTversky>
1.544 

> <ROCS_FitColorTversky>
0.603 

> <ROCS_FitTverskyCombo>
2.147 

> <ROCS_ColorScore>
-9.379

> <ROCS_Overlap>
2640.051

> <ROCS_Rank>
159                 

$$$$
untitled-dbase-1070794_58
  -OEChem-02092406493D

 49 51  0     1  0  0  0  0  0999 V2000
    6.7534   15.2502   21.4106 C   0  0  0  0  0  0  0  0  0  0  0  0
    7.7985   16.1444   21.4077 C   0  0  0  0  0  0  0  0  0  0  0  0
    8.1749   12.2438   24.4164 C   0  0  0  0  0  0  0  0  0  0  0  0
    7.3349   13.9656   21.2888 C   0  0  0  0  0  0  0  0  0  0  0  0
    9.3827   12.0932   23.7852 C   0  0  0  0  0  0  0  0  0  0  0  0
    7.5775   10.9661   24.3638 C   0  0  0  0  0  0  0  0  0  0  0  0
    8.6939   14.1664   21.2199 C   0  0  0  0  0  0  0  0  0  0  0  0
   10.3999   13.0658   23.5402 C   0  0  0  0  0  0  0  0  0  0  0  0
    7.4988   13.3984   25.0509 C   0  0  0  0  0  0  0  0  0  0  0  0
    6.2478   10.6888   24.9778 C   0  0  2  0  0  0  0  0  0  0  0  0
    6.3935   12.8766   25.9986 C   0  0  1  0  0  0  0  0  0  0  0  0
    6.6231   12.6754   21.2449 C   0  0  0  0  0  0  0  0  0  0  0  0
    5.3190    9.9011   24.0625 C   0  0  0  0  0  0  0  0  0  0  0  0
    5.5029   14.0160   26.4733 C   0  0  0  0  0  0  0  0  0  0  0  0
   12.2435   15.2940   21.9267 C   0  0  0  0  0  0  0  0  0  0  0  0
   10.5214   10.1219   22.7193 C   0  0  0  0  0  0  0  0  0  0  0  0
    9.8676   13.2398   21.0860 C   0  0  0  0  0  0  0  0  0  0  0  0
   12.1390   13.8079   21.8715 C   0  0  0  0  0  0  0  0  0  0  0  0
    8.3534   10.0591   23.7664 N   0  0  0  0  0  0  0  0  0  0  0  0
    9.4388   10.7777   23.4161 N   0  0  0  0  0  0  0  0  0  0  0  0
   10.7886   13.3615   22.2073 N   0  0  0  0  0  0  0  0  0  0  0  0
   10.9116   13.6414   24.5249 O   0  0  0  0  0  0  0  0  0  0  0  0
    8.9848   15.4918   21.2916 O   0  0  0  0  0  0  0  0  0  0  0  0
    5.5574   11.9205   25.3127 O   0  0  0  0  0  0  0  0  0  0  0  0
    5.7044   15.4975   21.4908 H   0  0  0  0  0  0  0  0  0  0  0  0
    7.8619   17.2205   21.4766 H   0  0  0  0  0  0  0  0  0  0  0  0
    8.2103   14.0205   25.6045 H   0  0  0  0  0  0  0  0  0  0  0  0
    7.0541   14.0117   24.2574 H   0  0  0  0  0  0  0  0  0  0  0  0
    6.3903   10.1301   25.9110 H   0  0  0  0  0  0  0  0  0  0  0  0
    6.8370   12.3848   26.8743 H   0  0  0  0  0  0  0  0  0  0  0  0
    6.3684   12.3950   20.2090 H   0  0  0  0  0  0  0  0  0  0  0  0
    7.2237   11.8545   21.6745 H   0  0  0  0  0  0  0  0  0  0  0  0
    5.6837   12.6990   21.8247 H   0  0  0  0  0  0  0  0  0  0  0  0
    5.1668   10.4435   23.1292 H   0  0  0  0  0  0  0  0  0  0  0  0
    4.3538    9.7543   24.5475 H   0  0  0  0  0  0  0  0  0  0  0  0
    5.7541    8.9270   23.8385 H   0  0  0  0  0  0  0  0  0  0  0  0
    5.0511   14.5196   25.6179 H   0  0  0  0  0  0  0  0  0  0  0  0
    6.0907   14.7402   27.0384 H   0  0  0  0  0  0  0  0  0  0  0  0
    4.7095   13.6291   27.1139 H   0  0  0  0  0  0  0  0  0  0  0  0
   11.9967   15.6421   22.9406 H   0  0  0  0  0  0  0  0  0  0  0  0
   13.2699   15.5989   21.6743 H   0  0  0  0  0  0  0  0  0  0  0  0
   11.5413   15.7379   21.2057 H   0  0  0  0  0  0  0  0  0  0  0  0
   11.2168    9.7322   23.4673 H   0  0  0  0  0  0  0  0  0  0  0  0
   10.1211    9.3078   22.1086 H   0  0  0  0  0  0  0  0  0  0  0  0
   11.0228   10.8442   22.0691 H   0  0  0  0  0  0  0  0  0  0  0  0
    9.5332   12.1978   21.0359 H   0  0  0  0  0  0  0  0  0  0  0  0
   10.4283   13.4459   20.1683 H   0  0  0  0  0  0  0  0  0  0  0  0
   12.3871   13.4680   20.8552 H   0  0  0  0  0  0  0  0  0  0  0  0
   12.8501   13.3711   22.5881 H   0  0  0  0  0  0  0  0  0  0  0  0
  1  2  2  0  0  0  0
  1  4  1  0  0  0  0
  2 23  1  0  0  0  0
  3  5  2  0  0  0  0
  3  6  1  0  0  0  0
  3  9  1  0  0  0  0
  4  7  2  0  0  0  0
  4 12  1  0  0  0  0
  5  8  1  0  0  0  0
  5 20  1  0  0  0  0
  6 10  1  0  0  0  0
  6 19  2  0  0  0  0
  7 17  1  0  0  0  0
  7 23  1  0  0  0  0
  8 21  1  0  0  0  0
  8 22  2  0  0  0  0
  9 11  1  0  0  0  0
 10 13  1  1  0  0  0
 10 24  1  0  0  0  0
 11 14  1  1  0  0  0
 11 24  1  0  0  0  0
 15 18  1  0  0  0  0
 16 20  1  0  0  0  0
 17 21  1  0  0  0  0
 18 21  1  0  0  0  0
 19 20  1  0  0  0  0
  1 25  1  0  0  0  0
  2 26  1  0  0  0  0
  9 27  1  0  0  0  0
  9 28  1  0  0  0  0
 10 29  1  0  0  0  0
 11 30  1  0  0  0  0
 12 31  1  0  0  0  0
 12 32  1  0  0  0  0
 12 33  1  0  0  0  0
 13 34  1  0  0  0  0
 13 35  1  0  0  0  0
 13 36  1  0  0  0  0
 14 37  1  0  0  0  0
 14 38  1  0  0  0  0
 14 39  1  0  0  0  0
 15 40  1  0  0  0  0
 15 41  1  0  0  0  0
 15 42  1  0  0  0  0
 16 43  1  0  0  0  0
 16 44  1  0  0  0  0
 16 45  1  0  0  0  0
 17 46  1  0  0  0  0
 17 47  1  0  0  0  0
 18 48  1  0  0  0  0
 18 49  1  0  0  0  0
M  END
> <idnumber>
Z4107122336

> <heavy_atoms>
24

> <LogS>
-2.457

> <LogP>
1.633

> <rotating_bonds>
4

> <PSA>
60.5

> <hb_acceptors>
3

> <hb_donors>
0

> <Collection>
HTS

> <link>
https://www.enaminestore.com/catalog/Z4107122336

> <ROCS_ShapeQuery>
x0446_0A_x1080_0A_x0929_0A_x0812_0A_x0719_0A_x1140_0A_x0528_0A_x0310_0A

> <ROCS_TanimotoCombo>
0.464 

> <ROCS_ShapeTanimoto>
0.273 

> <ROCS_ColorTanimoto>
0.192 

> <ROCS_RefTversky>
0.244 

> <ROCS_RefColorTversky>
0.199 

> <ROCS_RefTverskyCombo>
0.444 

> <ROCS_FitTversky>
1.746 

> <ROCS_FitColorTversky>
0.834 

> <ROCS_FitTverskyCombo>
2.580 

> <ROCS_ColorScore>
-7.116

> <ROCS_Overlap>
2885.670

> <ROCS_Rank>
160                 

$$$$
untitled-dbase-323036_148
  -OEChem-02092406493D

 52 55  0     0  0  0  0  0  0999 V2000
   13.2627   14.0293   22.9598 C   0  0  0  0  0  0  0  0  0  0  0  0
   12.0196   13.8341   23.5513 C   0  0  0  0  0  0  0  0  0  0  0  0
   13.3144   14.7653   21.7870 C   0  0  0  0  0  0  0  0  0  0  0  0
    8.0012   12.5553   24.2915 C   0  0  0  0  0  0  0  0  0  0  0  0
    6.9443   13.3481   24.8398 C   0  0  0  0  0  0  0  0  0  0  0  0
   10.8823   14.3733   22.9604 C   0  0  0  0  0  0  0  0  0  0  0  0
    5.9030   12.5819   25.3170 C   0  0  0  0  0  0  0  0  0  0  0  0
   11.0407   15.0940   21.7877 C   0  0  0  0  0  0  0  0  0  0  0  0
    9.2291   12.8786   23.7053 C   0  0  0  0  0  0  0  0  0  0  0  0
    7.7024   11.2020   24.3823 C   0  0  0  0  0  0  0  0  0  0  0  0
    9.6312   10.6301   23.4182 C   0  0  0  0  0  0  0  0  0  0  0  0
   13.1332    9.0787   25.6428 C   0  0  0  0  0  0  0  0  0  0  0  0
   14.2820    9.1127   23.4139 C   0  0  0  0  0  0  0  0  0  0  0  0
   11.7950    8.9812   24.9055 C   0  0  0  0  0  0  0  0  0  0  0  0
   12.9064    9.0142   22.7494 C   0  0  0  0  0  0  0  0  0  0  0  0
   14.3017    8.5136   24.8257 C   0  0  0  0  0  0  0  0  0  0  0  0
    6.9570   14.8322   24.8938 C   0  0  0  0  0  0  0  0  0  0  0  0
    4.6402   13.0220   25.9518 C   0  0  0  0  0  0  0  0  0  0  0  0
   14.2834    6.9832   24.7931 C   0  0  0  0  0  0  0  0  0  0  0  0
   10.5686    9.5695   22.9176 C   0  0  0  0  0  0  0  0  0  0  0  0
   12.2316   15.3046   21.1835 N   0  0  0  0  0  0  0  0  0  0  0  0
   10.0504   11.9015   23.2651 N   0  0  0  0  0  0  0  0  0  0  0  0
    8.4826   10.1877   23.9605 N   0  0  0  0  0  0  0  0  0  0  0  0
   11.8674    9.6261   23.5880 N   0  0  0  0  0  0  0  0  0  0  0  0
    9.8498   15.6349   21.2040 N   0  3  0  0  0  0  0  0  0  0  0  0
    9.9498   16.2916   20.1464 O   0  5  0  0  0  0  0  0  0  0  0  0
    8.7591   15.4286   21.7764 O   0  0  0  0  0  0  0  0  0  0  0  0
    9.6523   14.1764   23.5519 O   0  0  0  0  0  0  0  0  0  0  0  0
    6.1888   10.9084   25.1084 S   0  0  0  0  0  0  0  0  0  0  0  0
   14.1623   13.6176   23.4024 H   0  0  0  0  0  0  0  0  0  0  0  0
   11.9442   13.2616   24.4716 H   0  0  0  0  0  0  0  0  0  0  0  0
   14.2595   14.9456   21.2854 H   0  0  0  0  0  0  0  0  0  0  0  0
   13.3313   10.1333   25.8959 H   0  0  0  0  0  0  0  0  0  0  0  0
   13.0564    8.5440   26.6054 H   0  0  0  0  0  0  0  0  0  0  0  0
   15.0281    8.6023   22.7803 H   0  0  0  0  0  0  0  0  0  0  0  0
   14.5900   10.1705   23.4539 H   0  0  0  0  0  0  0  0  0  0  0  0
   11.5494    7.9189   24.7860 H   0  0  0  0  0  0  0  0  0  0  0  0
   11.0035    9.4313   25.5192 H   0  0  0  0  0  0  0  0  0  0  0  0
   12.9411    9.4887   21.7597 H   0  0  0  0  0  0  0  0  0  0  0  0
   12.6796    7.9524   22.5931 H   0  0  0  0  0  0  0  0  0  0  0  0
   15.2429    8.8271   25.3157 H   0  0  0  0  0  0  0  0  0  0  0  0
    6.5095   15.2576   23.9846 H   0  0  0  0  0  0  0  0  0  0  0  0
    6.3961   15.2104   25.7612 H   0  0  0  0  0  0  0  0  0  0  0  0
    7.9804   15.2248   24.9883 H   0  0  0  0  0  0  0  0  0  0  0  0
    3.8540   13.1766   25.1971 H   0  0  0  0  0  0  0  0  0  0  0  0
    4.2694   12.2839   26.6809 H   0  0  0  0  0  0  0  0  0  0  0  0
    4.7678   13.9657   26.5063 H   0  0  0  0  0  0  0  0  0  0  0  0
   13.3685    6.6341   24.3162 H   0  0  0  0  0  0  0  0  0  0  0  0
   14.3276    6.5908   25.8081 H   0  0  0  0  0  0  0  0  0  0  0  0
   15.1406    6.6147   24.2312 H   0  0  0  0  0  0  0  0  0  0  0  0
   10.1468    8.5721   23.0830 H   0  0  0  0  0  0  0  0  0  0  0  0
   10.7424    9.6748   21.8415 H   0  0  0  0  0  0  0  0  0  0  0  0
  1  2  2  0  0  0  0
  1  3  1  0  0  0  0
  2  6  1  0  0  0  0
  3 21  2  0  0  0  0
  4  5  1  0  0  0  0
  4  9  1  0  0  0  0
  4 10  2  0  0  0  0
  5  7  2  0  0  0  0
  5 17  1  0  0  0  0
  6  8  2  0  0  0  0
  6 28  1  0  0  0  0
  7 18  1  0  0  0  0
  7 29  1  0  0  0  0
  8 21  1  0  0  0  0
  8 25  1  0  0  0  0
  9 22  2  0  0  0  0
  9 28  1  0  0  0  0
 10 23  1  0  0  0  0
 10 29  1  0  0  0  0
 11 20  1  0  0  0  0
 11 22  1  0  0  0  0
 11 23  2  0  0  0  0
 12 14  1  0  0  0  0
 12 16  1  0  0  0  0
 13 15  1  0  0  0  0
 13 16  1  0  0  0  0
 14 24  1  0  0  0  0
 15 24  1  0  0  0  0
 16 19  1  0  0  0  0
 20 24  1  0  0  0  0
 25 26  1  0  0  0  0
 25 27  2  0  0  0  0
  1 30  1  0  0  0  0
  2 31  1  0  0  0  0
  3 32  1  0  0  0  0
 12 33  1  0  0  0  0
 12 34  1  0  0  0  0
 13 35  1  0  0  0  0
 13 36  1  0  0  0  0
 14 37  1  0  0  0  0
 14 38  1  0  0  0  0
 15 39  1  0  0  0  0
 15 40  1  0  0  0  0
 16 41  1  0  0  0  0
 17 42  1  0  0  0  0
 17 43  1  0  0  0  0
 17 44  1  0  0  0  0
 18 45  1  0  0  0  0
 18 46  1  0  0  0  0
 18 47  1  0  0  0  0
 19 48  1  0  0  0  0
 19 49  1  0  0  0  0
 19 50  1  0  0  0  0
 20 51  1  0  0  0  0
 20 52  1  0  0  0  0
M  CHG  2  25   1  26  -1
M  END
> <idnumber>
Z31112516

> <heavy_atoms>
29

> <LogS>
-5.69

> <LogP>
3.624

> <rotating_bonds>
5

> <PSA>
94.28

> <hb_acceptors>
6

> <hb_donors>
0

> <Collection>
Legacy

> <link>
https://www.enaminestore.com/catalog/Z31112516

> <ROCS_ShapeQuery>
x0446_0A_x1080_0A_x0929_0A_x0812_0A_x0719_0A_x1140_0A_x0528_0A_x0310_0A

> <ROCS_TanimotoCombo>
0.464 

> <ROCS_ShapeTanimoto>
0.276 

> <ROCS_ColorTanimoto>
0.189 

> <ROCS_RefTversky>
0.250 

> <ROCS_RefColorTversky>
0.213 

> <ROCS_RefTverskyCombo>
0.464 

> <ROCS_FitTversky>
1.581 

> <ROCS_FitColorTversky>
0.619 

> <ROCS_FitTverskyCombo>
2.200 

> <ROCS_ColorScore>
-7.653

> <ROCS_Overlap>
2962.681

> <ROCS_Rank>
161                 

$$$$
untitled-dbase-1070417_152
  -OEChem-02092406493D

 47 49  0     1  0  0  0  0  0999 V2000
    8.1189   12.2274   24.4538 C   0  0  0  0  0  0  0  0  0  0  0  0
    9.3920   12.0635   23.9720 C   0  0  0  0  0  0  0  0  0  0  0  0
    7.4971   10.9742   24.2668 C   0  0  0  0  0  0  0  0  0  0  0  0
   10.4643   13.0061   23.9181 C   0  0  0  0  0  0  0  0  0  0  0  0
   10.0311   15.9005   20.7140 C   0  0  0  0  0  0  0  0  0  0  0  0
    7.4052   13.3719   25.0648 C   0  0  0  0  0  0  0  0  0  0  0  0
   11.7550   15.7325   22.7016 C   0  0  0  0  0  0  0  0  0  0  0  0
   12.3324   14.6346   20.9551 C   0  0  0  0  0  0  0  0  0  0  0  0
    6.0726   10.7353   24.6352 C   0  0  1  0  0  0  0  0  0  0  0  0
   11.4915   15.9142   21.1865 C   0  0  0  0  0  0  0  0  0  0  0  0
   12.1060   14.2552   22.4325 C   0  0  0  0  0  0  0  0  0  0  0  0
    5.8815   13.1223   24.9741 C   0  0  2  0  0  0  0  0  0  0  0  0
    5.8639    9.4387   25.4073 C   0  0  0  0  0  0  0  0  0  0  0  0
    5.1147   14.1349   25.8127 C   0  0  0  0  0  0  0  0  0  0  0  0
   11.2958    9.1857   23.8993 C   0  0  0  0  0  0  0  0  0  0  0  0
   10.5877   10.1144   22.9279 C   0  0  0  0  0  0  0  0  0  0  0  0
    8.3019   10.0818   23.6861 N   0  0  0  0  0  0  0  0  0  0  0  0
    9.4500   10.7708   23.5296 N   0  0  0  0  0  0  0  0  0  0  0  0
    9.8394   16.4922   19.4879 N   0  0  0  0  0  0  0  0  0  0  0  0
   10.9969   13.3297   22.6516 N   0  0  0  0  0  0  0  0  0  0  0  0
   10.9395   13.5209   24.9618 O   0  0  0  0  0  0  0  0  0  0  0  0
    9.1346   15.3871   21.3790 O   0  0  0  0  0  0  0  0  0  0  0  0
    5.5602   11.8055   25.4707 O   0  0  0  0  0  0  0  0  0  0  0  0
    7.7119   13.4443   26.1155 H   0  0  0  0  0  0  0  0  0  0  0  0
    7.6646   14.3131   24.5682 H   0  0  0  0  0  0  0  0  0  0  0  0
   12.5734   16.3405   23.1111 H   0  0  0  0  0  0  0  0  0  0  0  0
   10.8663   15.8876   23.3339 H   0  0  0  0  0  0  0  0  0  0  0  0
   11.8935   13.9341   20.2268 H   0  0  0  0  0  0  0  0  0  0  0  0
   13.3797   14.8071   20.6717 H   0  0  0  0  0  0  0  0  0  0  0  0
    5.4628   10.7121   23.7237 H   0  0  0  0  0  0  0  0  0  0  0  0
   11.9985   16.8098   20.7912 H   0  0  0  0  0  0  0  0  0  0  0  0
   13.0101   13.9164   22.9452 H   0  0  0  0  0  0  0  0  0  0  0  0
    5.5402   13.1934   23.9327 H   0  0  0  0  0  0  0  0  0  0  0  0
    6.4639    9.4458   26.3174 H   0  0  0  0  0  0  0  0  0  0  0  0
    6.1613    8.5877   24.7945 H   0  0  0  0  0  0  0  0  0  0  0  0
    4.8133    9.3303   25.6772 H   0  0  0  0  0  0  0  0  0  0  0  0
    5.4383   14.0815   26.8528 H   0  0  0  0  0  0  0  0  0  0  0  0
    4.0452   13.9268   25.7654 H   0  0  0  0  0  0  0  0  0  0  0  0
    5.2946   15.1435   25.4389 H   0  0  0  0  0  0  0  0  0  0  0  0
   11.6543    9.7315   24.7785 H   0  0  0  0  0  0  0  0  0  0  0  0
   12.1571    8.7154   23.4151 H   0  0  0  0  0  0  0  0  0  0  0  0
   10.6255    8.3934   24.2488 H   0  0  0  0  0  0  0  0  0  0  0  0
   10.2328    9.5595   22.0520 H   0  0  0  0  0  0  0  0  0  0  0  0
   11.2723   10.8898   22.5661 H   0  0  0  0  0  0  0  0  0  0  0  0
   10.6423   16.8793   19.0031 H   0  0  0  0  0  0  0  0  0  0  0  0
    8.9270   16.5573   19.0482 H   0  0  0  0  0  0  0  0  0  0  0  0
   10.6308   12.8472   21.8374 H   0  0  0  0  0  0  0  0  0  0  0  0
  1  2  2  0  0  0  0
  1  3  1  0  0  0  0
  1  6  1  0  0  0  0
  2  4  1  0  0  0  0
  2 18  1  0  0  0  0
  3  9  1  0  0  0  0
  3 17  2  0  0  0  0
  4 20  1  0  0  0  0
  4 21  2  0  0  0  0
  5 10  1  0  0  0  0
  5 19  1  0  0  0  0
  5 22  2  0  0  0  0
  6 12  1  0  0  0  0
  7 10  1  0  0  0  0
  7 11  1  0  0  0  0
  8 10  1  0  0  0  0
  8 11  1  0  0  0  0
  9 13  1  1  0  0  0
  9 23  1  0  0  0  0
 11 20  1  0  0  0  0
 12 14  1  1  0  0  0
 12 23  1  0  0  0  0
 15 16  1  0  0  0  0
 16 18  1  0  0  0  0
 17 18  1  0  0  0  0
  6 24  1  0  0  0  0
  6 25  1  0  0  0  0
  7 26  1  0  0  0  0
  7 27  1  0  0  0  0
  8 28  1  0  0  0  0
  8 29  1  0  0  0  0
  9 30  1  0  0  0  0
 10 31  1  0  0  0  0
 11 32  1  0  0  0  0
 12 33  1  0  0  0  0
 13 34  1  0  0  0  0
 13 35  1  0  0  0  0
 13 36  1  0  0  0  0
 14 37  1  0  0  0  0
 14 38  1  0  0  0  0
 14 39  1  0  0  0  0
 15 40  1  0  0  0  0
 15 41  1  0  0  0  0
 15 42  1  0  0  0  0
 16 43  1  0  0  0  0
 16 44  1  0  0  0  0
 19 45  1  0  0  0  0
 19 46  1  0  0  0  0
 20 47  1  0  0  0  0
M  END
> <idnumber>
Z4105194714

> <heavy_atoms>
23

> <LogS>
-1.723

> <LogP>
0.206

> <rotating_bonds>
4

> <PSA>
99.24

> <hb_acceptors>
4

> <hb_donors>
2

> <Collection>
HTS

> <link>
https://www.enaminestore.com/catalog/Z4105194714

> <ROCS_ShapeQuery>
x0446_0A_x1080_0A_x0929_0A_x0812_0A_x0719_0A_x1140_0A_x0528_0A_x0310_0A

> <ROCS_TanimotoCombo>
0.464 

> <ROCS_ShapeTanimoto>
0.255 

> <ROCS_ColorTanimoto>
0.209 

> <ROCS_RefTversky>
0.231 

> <ROCS_RefColorTversky>
0.223 

> <ROCS_RefTverskyCombo>
0.454 

> <ROCS_FitTversky>
1.712 

> <ROCS_FitColorTversky>
0.766 

> <ROCS_FitTverskyCombo>
2.478 

> <ROCS_ColorScore>
-7.989

> <ROCS_Overlap>
2726.762

> <ROCS_Rank>
162                 

$$$$
untitled-dbase-1070453_4
  -OEChem-02092406493D

 46 48  0     1  0  0  0  0  0999 V2000
    7.0679   14.1173   21.4005 C   0  0  0  0  0  0  0  0  0  0  0  0
    7.3364   16.3019   21.2911 C   0  0  0  0  0  0  0  0  0  0  0  0
    8.1054   12.3088   24.3189 C   0  0  0  0  0  0  0  0  0  0  0  0
    9.3774   12.1446   23.8344 C   0  0  0  0  0  0  0  0  0  0  0  0
    7.5410   11.0152   24.2998 C   0  0  0  0  0  0  0  0  0  0  0  0
    8.3976   14.4569   21.3159 C   0  0  0  0  0  0  0  0  0  0  0  0
   10.4028   13.1209   23.6432 C   0  0  0  0  0  0  0  0  0  0  0  0
    7.3473   13.4864   24.7997 C   0  0  0  0  0  0  0  0  0  0  0  0
    6.1353   10.7592   24.7243 C   0  0  1  0  0  0  0  0  0  0  0  0
    5.8360   13.1587   24.7720 C   0  0  2  0  0  0  0  0  0  0  0  0
    6.0001    9.5597   25.6537 C   0  0  0  0  0  0  0  0  0  0  0  0
    5.0346   14.2312   25.4959 C   0  0  0  0  0  0  0  0  0  0  0  0
   11.4146    9.3692   24.0755 C   0  0  0  0  0  0  0  0  0  0  0  0
   11.5162   14.8242   22.1615 C   0  0  0  0  0  0  0  0  0  0  0  0
    9.5901   13.5450   21.2940 C   0  0  0  0  0  0  0  0  0  0  0  0
   10.6486   10.1377   23.0125 C   0  0  0  0  0  0  0  0  0  0  0  0
    8.5580   15.8183   21.2484 N   0  0  0  0  0  0  0  0  0  0  0  0
    8.3786   10.0953   23.8164 N   0  0  0  0  0  0  0  0  0  0  0  0
    6.4005   15.3095   21.3840 N   0  0  0  0  0  0  0  0  0  0  0  0
    9.4901   10.8112   23.5528 N   0  0  0  0  0  0  0  0  0  0  0  0
   10.5010   13.8092   22.4056 N   0  0  0  0  0  0  0  0  0  0  0  0
   11.1824   13.3475   24.5936 O   0  0  0  0  0  0  0  0  0  0  0  0
    5.5851   11.9000   25.4328 O   0  0  0  0  0  0  0  0  0  0  0  0
    6.5506   13.1711   21.4693 H   0  0  0  0  0  0  0  0  0  0  0  0
    7.0639   17.3473   21.2591 H   0  0  0  0  0  0  0  0  0  0  0  0
    7.6659   13.7018   25.8270 H   0  0  0  0  0  0  0  0  0  0  0  0
    7.5542   14.3699   24.1863 H   0  0  0  0  0  0  0  0  0  0  0  0
    5.5136   10.5961   23.8354 H   0  0  0  0  0  0  0  0  0  0  0  0
    5.4761   13.0852   23.7370 H   0  0  0  0  0  0  0  0  0  0  0  0
    6.6127    9.7063   26.5433 H   0  0  0  0  0  0  0  0  0  0  0  0
    6.3284    8.6540   25.1437 H   0  0  0  0  0  0  0  0  0  0  0  0
    4.9600    9.4380   25.9566 H   0  0  0  0  0  0  0  0  0  0  0  0
    5.3760   14.3213   26.5278 H   0  0  0  0  0  0  0  0  0  0  0  0
    3.9756   13.9706   25.4967 H   0  0  0  0  0  0  0  0  0  0  0  0
    5.1607   15.1931   24.9976 H   0  0  0  0  0  0  0  0  0  0  0  0
   11.7599   10.0350   24.8736 H   0  0  0  0  0  0  0  0  0  0  0  0
   12.2899    8.8822   23.6348 H   0  0  0  0  0  0  0  0  0  0  0  0
   10.7881    8.5965   24.5334 H   0  0  0  0  0  0  0  0  0  0  0  0
   12.4170   14.3499   21.7450 H   0  0  0  0  0  0  0  0  0  0  0  0
   11.1288   15.5657   21.4472 H   0  0  0  0  0  0  0  0  0  0  0  0
   11.7695   15.3243   23.1079 H   0  0  0  0  0  0  0  0  0  0  0  0
    9.2762   12.4973   21.3568 H   0  0  0  0  0  0  0  0  0  0  0  0
   10.1555   13.6598   20.3632 H   0  0  0  0  0  0  0  0  0  0  0  0
   10.3074    9.4635   22.2188 H   0  0  0  0  0  0  0  0  0  0  0  0
   11.2900   10.8929   22.5443 H   0  0  0  0  0  0  0  0  0  0  0  0
    5.3982   15.4351   21.4309 H   0  0  0  0  0  0  0  0  0  0  0  0
  1  6  2  0  0  0  0
  1 19  1  0  0  0  0
  2 17  2  0  0  0  0
  2 19  1  0  0  0  0
  3  4  2  0  0  0  0
  3  5  1  0  0  0  0
  3  8  1  0  0  0  0
  4  7  1  0  0  0  0
  4 20  1  0  0  0  0
  5  9  1  0  0  0  0
  5 18  2  0  0  0  0
  6 15  1  0  0  0  0
  6 17  1  0  0  0  0
  7 21  1  0  0  0  0
  7 22  2  0  0  0  0
  8 10  1  0  0  0  0
  9 11  1  1  0  0  0
  9 23  1  0  0  0  0
 10 12  1  1  0  0  0
 10 23  1  0  0  0  0
 13 16  1  0  0  0  0
 14 21  1  0  0  0  0
 15 21  1  0  0  0  0
 16 20  1  0  0  0  0
 18 20  1  0  0  0  0
  1 24  1  0  0  0  0
  2 25  1  0  0  0  0
  8 26  1  0  0  0  0
  8 27  1  0  0  0  0
  9 28  1  0  0  0  0
 10 29  1  0  0  0  0
 11 30  1  0  0  0  0
 11 31  1  0  0  0  0
 11 32  1  0  0  0  0
 12 33  1  0  0  0  0
 12 34  1  0  0  0  0
 12 35  1  0  0  0  0
 13 36  1  0  0  0  0
 13 37  1  0  0  0  0
 13 38  1  0  0  0  0
 14 39  1  0  0  0  0
 14 40  1  0  0  0  0
 14 41  1  0  0  0  0
 15 42  1  0  0  0  0
 15 43  1  0  0  0  0
 16 44  1  0  0  0  0
 16 45  1  0  0  0  0
 19 46  1  0  0  0  0
M  END
> <idnumber>
Z4105194852

> <heavy_atoms>
23

> <LogS>
-1.934

> <LogP>
-0.163

> <rotating_bonds>
4

> <PSA>
76.04

> <hb_acceptors>
4

> <hb_donors>
1

> <Collection>
HTS

> <link>
https://www.enaminestore.com/catalog/Z4105194852

> <ROCS_ShapeQuery>
x0446_0A_x1080_0A_x0929_0A_x0812_0A_x0719_0A_x1140_0A_x0528_0A_x0310_0A

> <ROCS_TanimotoCombo>
0.464 

> <ROCS_ShapeTanimoto>
0.269 

> <ROCS_ColorTanimoto>
0.196 

> <ROCS_RefTversky>
0.241 

> <ROCS_RefColorTversky>
0.211 

> <ROCS_RefTverskyCombo>
0.452 

> <ROCS_FitTversky>
1.763 

> <ROCS_FitColorTversky>
0.725 

> <ROCS_FitTverskyCombo>
2.489 

> <ROCS_ColorScore>
-7.564

> <ROCS_Overlap>
2842.817

> <ROCS_Rank>
163                 

$$$$
untitled-dbase-917563_5
  -OEChem-02092406493D

 40 43  0     0  0  0  0  0  0999 V2000
    6.2155   13.4583   24.9742 C   0  0  0  0  0  0  0  0  0  0  0  0
    5.9281   12.1742   25.4312 C   0  0  0  0  0  0  0  0  0  0  0  0
    7.2640   13.6650   24.0761 C   0  0  0  0  0  0  0  0  0  0  0  0
    6.6840   11.0908   24.9857 C   0  0  0  0  0  0  0  0  0  0  0  0
    8.0336   12.5809   23.6390 C   0  0  0  0  0  0  0  0  0  0  0  0
    7.7350   11.2975   24.0844 C   0  0  0  0  0  0  0  0  0  0  0  0
    9.5721   14.0477   22.2122 C   0  0  0  0  0  0  0  0  0  0  0  0
   10.6915   15.8703   21.7719 C   0  0  0  0  0  0  0  0  0  0  0  0
    9.1569   12.7145   22.6922 C   0  0  0  0  0  0  0  0  0  0  0  0
    8.5223   10.1563   23.5847 C   0  0  0  0  0  0  0  0  0  0  0  0
   11.8543   16.7872   21.7226 C   0  0  0  0  0  0  0  0  0  0  0  0
   11.9551   14.1754   23.0563 C   0  0  0  0  0  0  0  0  0  0  0  0
   13.1602   15.0181   22.6509 C   0  0  0  0  0  0  0  0  0  0  0  0
    9.1623    9.4444   19.8478 C   0  0  0  0  0  0  0  0  0  0  0  0
    9.6125    8.5909   21.0249 C   0  0  0  0  0  0  0  0  0  0  0  0
   10.3496    9.3960   22.0884 C   0  0  0  0  0  0  0  0  0  0  0  0
    8.7737   14.8587   21.5512 N   0  0  0  0  0  0  0  0  0  0  0  0
    9.4835   16.0152   21.2698 N   0  0  0  0  0  0  0  0  0  0  0  0
    9.8289   11.7028   22.2395 N   0  0  0  0  0  0  0  0  0  0  0  0
   10.7766   14.6436   22.3650 N   0  0  0  0  0  0  0  0  0  0  0  0
    9.5218   10.4441   22.6621 N   0  0  0  0  0  0  0  0  0  0  0  0
    8.2575    9.0279   23.9943 O   0  0  0  0  0  0  0  0  0  0  0  0
   12.8138   16.4082   22.7242 O   0  0  0  0  0  0  0  0  0  0  0  0
    5.6224   14.3010   25.3179 H   0  0  0  0  0  0  0  0  0  0  0  0
    5.1118   12.0163   26.1300 H   0  0  0  0  0  0  0  0  0  0  0  0
    7.4627   14.6781   23.7385 H   0  0  0  0  0  0  0  0  0  0  0  0
    6.4357   10.0966   25.3473 H   0  0  0  0  0  0  0  0  0  0  0  0
   12.3329   16.7602   20.7381 H   0  0  0  0  0  0  0  0  0  0  0  0
   11.5437   17.8154   21.9290 H   0  0  0  0  0  0  0  0  0  0  0  0
   12.1144   13.1184   22.8245 H   0  0  0  0  0  0  0  0  0  0  0  0
   11.7477   14.2912   24.1259 H   0  0  0  0  0  0  0  0  0  0  0  0
   13.9946   14.8361   23.3352 H   0  0  0  0  0  0  0  0  0  0  0  0
   13.4997   14.7806   21.6353 H   0  0  0  0  0  0  0  0  0  0  0  0
    8.4934   10.2458   20.1775 H   0  0  0  0  0  0  0  0  0  0  0  0
   10.0293    9.9052   19.3634 H   0  0  0  0  0  0  0  0  0  0  0  0
    8.6383    8.8447   19.0973 H   0  0  0  0  0  0  0  0  0  0  0  0
   10.2780    7.8035   20.6524 H   0  0  0  0  0  0  0  0  0  0  0  0
    8.7391    8.0958   21.4656 H   0  0  0  0  0  0  0  0  0  0  0  0
   10.6521    8.7408   22.9113 H   0  0  0  0  0  0  0  0  0  0  0  0
   11.2492    9.8659   21.6786 H   0  0  0  0  0  0  0  0  0  0  0  0
  1  2  1  0  0  0  0
  1  3  2  0  0  0  0
  2  4  2  0  0  0  0
  3  5  1  0  0  0  0
  4  6  1  0  0  0  0
  5  6  2  0  0  0  0
  5  9  1  0  0  0  0
  6 10  1  0  0  0  0
  7  9  1  0  0  0  0
  7 17  2  0  0  0  0
  7 20  1  0  0  0  0
  8 11  1  0  0  0  0
  8 18  2  0  0  0  0
  8 20  1  0  0  0  0
  9 19  2  0  0  0  0
 10 21  1  0  0  0  0
 10 22  2  0  0  0  0
 11 23  1  0  0  0  0
 12 13  1  0  0  0  0
 12 20  1  0  0  0  0
 13 23  1  0  0  0  0
 14 15  1  0  0  0  0
 15 16  1  0  0  0  0
 16 21  1  0  0  0  0
 17 18  1  0  0  0  0
 19 21  1  0  0  0  0
  1 24  1  0  0  0  0
  2 25  1  0  0  0  0
  3 26  1  0  0  0  0
  4 27  1  0  0  0  0
 11 28  1  0  0  0  0
 11 29  1  0  0  0  0
 12 30  1  0  0  0  0
 12 31  1  0  0  0  0
 13 32  1  0  0  0  0
 13 33  1  0  0  0  0
 14 34  1  0  0  0  0
 14 35  1  0  0  0  0
 14 36  1  0  0  0  0
 15 37  1  0  0  0  0
 15 38  1  0  0  0  0
 16 39  1  0  0  0  0
 16 40  1  0  0  0  0
M  END
> <idnumber>
Z2523773290

> <heavy_atoms>
23

> <LogS>
-3.03

> <LogP>
0.016

> <rotating_bonds>
3

> <PSA>
72.61

> <hb_acceptors>
5

> <hb_donors>
0

> <Collection>
HTS

> <link>
https://www.enaminestore.com/catalog/Z2523773290

> <ROCS_ShapeQuery>
x0446_0A_x1080_0A_x0929_0A_x0812_0A_x0719_0A_x1140_0A_x0528_0A_x0310_0A

> <ROCS_TanimotoCombo>
0.464 

> <ROCS_ShapeTanimoto>
0.262 

> <ROCS_ColorTanimoto>
0.202 

> <ROCS_RefTversky>
0.237 

> <ROCS_RefColorTversky>
0.223 

> <ROCS_RefTverskyCombo>
0.459 

> <ROCS_FitTversky>
1.701 

> <ROCS_FitColorTversky>
0.684 

> <ROCS_FitTverskyCombo>
2.385 

> <ROCS_ColorScore>
-7.979

> <ROCS_Overlap>
2798.453

> <ROCS_Rank>
164                 

$$$$
untitled-dbase-1154669_81
  -OEChem-02092406493D

 58 62  0     1  0  0  0  0  0999 V2000
    5.2501   10.2320   22.0250 C   0  0  0  0  0  0  0  0  0  0  0  0
    4.5271   10.1940   20.8328 C   0  0  0  0  0  0  0  0  0  0  0  0
    4.7861   12.5940   22.2313 C   0  0  0  0  0  0  0  0  0  0  0  0
    5.3796   11.4320   22.7243 C   0  0  0  0  0  0  0  0  0  0  0  0
    3.9336   11.3561   20.3398 C   0  0  0  0  0  0  0  0  0  0  0  0
    4.0631   12.5561   21.0390 C   0  0  0  0  0  0  0  0  0  0  0  0
    6.1399   11.4714   23.9802 C   0  0  0  0  0  0  0  0  0  0  0  0
   10.8016   13.6692   23.8002 C   0  0  0  0  0  0  0  0  0  0  0  0
   11.4059   16.3484   22.7135 C   0  0  0  0  0  0  0  0  0  0  0  0
   12.7556   15.8283   23.2279 C   0  0  0  0  0  0  0  0  0  0  0  0
   11.8300   15.2362   20.5211 C   0  0  0  0  0  0  0  0  0  0  0  0
   13.1724   14.6967   21.0495 C   0  0  0  0  0  0  0  0  0  0  0  0
    9.3076    9.9519   24.7672 C   0  0  0  0  0  0  0  0  0  0  0  0
    9.3005    9.8447   23.2307 C   0  0  0  0  0  0  0  0  0  0  0  0
    9.0867   12.4515   25.0909 C   0  0  0  0  0  0  0  0  0  0  0  0
    9.0806   12.2753   22.5641 C   0  0  0  0  0  0  0  0  0  0  0  0
   11.4395   13.9540   22.4632 C   0  0  0  0  0  0  0  0  0  0  0  0
   10.9348   15.2196   21.7766 C   0  0  0  0  0  0  0  0  0  0  0  0
   12.8787   14.4523   22.5436 C   0  0  0  0  0  0  0  0  0  0  0  0
    8.3472   11.1045   25.0814 C   0  0  1  0  0  0  0  0  0  0  0  0
    8.3356   10.9436   22.7667 C   0  0  2  0  0  0  0  0  0  0  0  0
    3.1636   11.2909   19.0617 C   0  0  0  0  0  0  0  0  0  0  0  0
    3.4348   13.8125   20.5313 C   0  0  0  0  0  0  0  0  0  0  0  0
    7.4723   11.1094   23.9259 N   0  0  0  0  0  0  0  0  0  0  0  0
    9.7353   12.7645   23.8005 N   0  0  0  0  0  0  0  0  0  0  0  0
    5.5392   11.8276   24.9914 O   0  0  0  0  0  0  0  0  0  0  0  0
   11.2366   14.2243   24.8122 O   0  0  0  0  0  0  0  0  0  0  0  0
    3.0932   14.6452   21.6316 O   0  0  0  0  0  0  0  0  0  0  0  0
    5.7084    9.3204   22.4000 H   0  0  0  0  0  0  0  0  0  0  0  0
    4.4314    9.2537   20.2964 H   0  0  0  0  0  0  0  0  0  0  0  0
    4.8865   13.5306   22.7751 H   0  0  0  0  0  0  0  0  0  0  0  0
   10.7085   16.4874   23.5471 H   0  0  0  0  0  0  0  0  0  0  0  0
   11.5073   17.3079   22.1961 H   0  0  0  0  0  0  0  0  0  0  0  0
   13.5802   16.5013   22.9714 H   0  0  0  0  0  0  0  0  0  0  0  0
   12.7310   15.7250   24.3185 H   0  0  0  0  0  0  0  0  0  0  0  0
   11.9306   16.2361   20.0874 H   0  0  0  0  0  0  0  0  0  0  0  0
   11.4331   14.5671   19.7494 H   0  0  0  0  0  0  0  0  0  0  0  0
   13.4270   13.7586   20.5431 H   0  0  0  0  0  0  0  0  0  0  0  0
   13.9918   15.4046   20.8893 H   0  0  0  0  0  0  0  0  0  0  0  0
    8.9328    9.0157   25.1972 H   0  0  0  0  0  0  0  0  0  0  0  0
   10.3167   10.1191   25.1576 H   0  0  0  0  0  0  0  0  0  0  0  0
   10.3061    9.9547   22.8122 H   0  0  0  0  0  0  0  0  0  0  0  0
    8.9217    8.8582   22.9386 H   0  0  0  0  0  0  0  0  0  0  0  0
    8.3826   13.2678   25.2941 H   0  0  0  0  0  0  0  0  0  0  0  0
    9.8382   12.4674   25.8885 H   0  0  0  0  0  0  0  0  0  0  0  0
    9.8230   12.1617   21.7689 H   0  0  0  0  0  0  0  0  0  0  0  0
    8.3795   13.0581   22.2500 H   0  0  0  0  0  0  0  0  0  0  0  0
   11.3250   13.0547   21.8530 H   0  0  0  0  0  0  0  0  0  0  0  0
    9.8656   15.2580   21.5575 H   0  0  0  0  0  0  0  0  0  0  0  0
   13.5958   13.7886   23.0313 H   0  0  0  0  0  0  0  0  0  0  0  0
    7.7951   10.9562   26.0144 H   0  0  0  0  0  0  0  0  0  0  0  0
    7.7863   10.6627   21.8642 H   0  0  0  0  0  0  0  0  0  0  0  0
    2.1112   11.0604   19.2636 H   0  0  0  0  0  0  0  0  0  0  0  0
    3.2152   12.2428   18.5189 H   0  0  0  0  0  0  0  0  0  0  0  0
    3.5685   10.5203   18.3940 H   0  0  0  0  0  0  0  0  0  0  0  0
    4.1192   14.3623   19.8722 H   0  0  0  0  0  0  0  0  0  0  0  0
    2.5256   13.5944   19.9561 H   0  0  0  0  0  0  0  0  0  0  0  0
    2.6899   15.4468   21.2612 H   0  0  0  0  0  0  0  0  0  0  0  0
  1  2  2  0  0  0  0
  1  4  1  0  0  0  0
  2  5  1  0  0  0  0
  3  4  2  0  0  0  0
  3  6  1  0  0  0  0
  4  7  1  0  0  0  0
  5  6  2  0  0  0  0
  5 22  1  0  0  0  0
  6 23  1  0  0  0  0
  7 24  1  0  0  0  0
  7 26  2  0  0  0  0
  8 17  1  0  0  0  0
  8 25  1  0  0  0  0
  8 27  2  0  0  0  0
  9 10  1  0  0  0  0
  9 18  1  0  0  0  0
 10 19  1  0  0  0  0
 11 12  1  0  0  0  0
 11 18  1  0  0  0  0
 12 19  1  0  0  0  0
 13 14  1  0  0  0  0
 13 20  1  0  0  0  0
 14 21  1  0  0  0  0
 15 20  1  0  0  0  0
 15 25  1  0  0  0  0
 16 21  1  0  0  0  0
 16 25  1  0  0  0  0
 17 18  1  0  0  0  0
 17 19  1  0  0  0  0
 20 24  1  0  0  0  0
 21 24  1  0  0  0  0
 23 28  1  0  0  0  0
  1 29  1  0  0  0  0
  2 30  1  0  0  0  0
  3 31  1  0  0  0  0
  9 32  1  0  0  0  0
  9 33  1  0  0  0  0
 10 34  1  0  0  0  0
 10 35  1  0  0  0  0
 11 36  1  0  0  0  0
 11 37  1  0  0  0  0
 12 38  1  0  0  0  0
 12 39  1  0  0  0  0
 13 40  1  0  0  0  0
 13 41  1  0  0  0  0
 14 42  1  0  0  0  0
 14 43  1  0  0  0  0
 15 44  1  0  0  0  0
 15 45  1  0  0  0  0
 16 46  1  0  0  0  0
 16 47  1  0  0  0  0
 17 48  1  0  0  0  0
 18 49  1  0  0  0  0
 19 50  1  0  0  0  0
 20 51  1  0  0  0  0
 21 52  1  0  0  0  0
 22 53  1  0  0  0  0
 22 54  1  0  0  0  0
 22 55  1  0  0  0  0
 23 56  1  0  0  0  0
 23 57  1  0  0  0  0
 28 58  1  0  0  0  0
M  END
> <idnumber>
Z7396313215

> <heavy_atoms>
28

> <LogS>
-5.408

> <LogP>
2.384

> <rotating_bonds>
3

> <PSA>
60.85

> <hb_acceptors>
3

> <hb_donors>
1

> <Collection>
Advanced

> <link>
https://www.enaminestore.com/catalog/Z7396313215

> <ROCS_ShapeQuery>
x0446_0A_x1080_0A_x0929_0A_x0812_0A_x0719_0A_x1140_0A_x0528_0A_x0310_0A

> <ROCS_TanimotoCombo>
0.464 

> <ROCS_ShapeTanimoto>
0.242 

> <ROCS_ColorTanimoto>
0.222 

> <ROCS_RefTversky>
0.225 

> <ROCS_RefColorTversky>
0.273 

> <ROCS_RefTverskyCombo>
0.498 

> <ROCS_FitTversky>
1.445 

> <ROCS_FitColorTversky>
0.543 

> <ROCS_FitTverskyCombo>
1.989 

> <ROCS_ColorScore>
-9.875

> <ROCS_Overlap>
2663.681

> <ROCS_Rank>
165                 

$$$$
untitled-dbase-200508_149
  -OEChem-02092406493D

 52 56  0     1  0  0  0  0  0999 V2000
   11.4750   10.3382   21.5028 C   0  0  0  0  0  0  0  0  0  0  0  0
   11.2182    9.0543   21.9595 C   0  0  0  0  0  0  0  0  0  0  0  0
   10.6855   11.3951   21.9514 C   0  0  0  0  0  0  0  0  0  0  0  0
   10.1735    8.8429   22.8572 C   0  0  0  0  0  0  0  0  0  0  0  0
    9.6411   11.1863   22.8502 C   0  0  0  0  0  0  0  0  0  0  0  0
    9.3808    9.8977   23.3060 C   0  0  0  0  0  0  0  0  0  0  0  0
    7.8858   12.0030   24.1638 C   0  0  0  0  0  0  0  0  0  0  0  0
    7.5797   10.7035   24.5867 C   0  0  0  0  0  0  0  0  0  0  0  0
    9.0270   14.8088   22.4836 C   0  0  0  0  0  0  0  0  0  0  0  0
   10.8538   15.3868   21.6259 C   0  0  0  0  0  0  0  0  0  0  0  0
   13.3428   15.5948   22.8528 C   0  0  0  0  0  0  0  0  0  0  0  0
   12.2938   15.2024   23.5919 C   0  0  0  0  0  0  0  0  0  0  0  0
   13.0578   15.8853   21.4154 C   0  0  0  0  0  0  0  0  0  0  0  0
    7.1207   14.4025   24.0420 C   0  0  0  0  0  0  0  0  0  0  0  0
    5.3729   12.4286   26.1686 C   0  0  0  0  0  0  0  0  0  0  0  0
    6.7442   13.0840   26.0865 C   0  0  0  0  0  0  0  0  0  0  0  0
    5.2625   11.1901   25.2911 C   0  0  0  0  0  0  0  0  0  0  0  0
   12.4161   14.8731   25.0483 C   0  0  0  0  0  0  0  0  0  0  0  0
   14.2225   16.3274   20.5645 C   0  0  0  0  0  0  0  0  0  0  0  0
    6.3689    9.0383   25.9202 C   0  0  0  0  0  0  0  0  0  0  0  0
    7.5686   14.4843   22.6013 C   0  0  0  0  0  0  0  0  0  0  0  0
    8.8984   12.2117   23.2850 N   0  0  0  0  0  0  0  0  0  0  0  0
    8.3703    9.6804   24.1592 N   0  0  0  0  0  0  0  0  0  0  0  0
    9.5866   15.2061   21.3125 N   0  0  0  0  0  0  0  0  0  0  0  0
    9.8527   14.7240   23.5223 N   0  0  0  0  0  0  0  0  0  0  0  0
   11.8943   15.7875   20.8423 N   0  0  0  0  0  0  0  0  0  0  0  0
   11.0406   15.0963   22.9804 N   0  0  0  0  0  0  0  0  0  0  0  0
    7.2321   13.1712   24.7049 N   0  0  0  0  0  0  0  0  0  0  0  0
    6.4766   10.3862   25.3807 N   0  0  1  0  0  0  0  0  0  0  0  0
    6.6345   15.4141   24.5599 O   0  0  0  0  0  0  0  0  0  0  0  0
   12.2848   10.5197   20.8030 H   0  0  0  0  0  0  0  0  0  0  0  0
   11.8236    8.2198   21.6195 H   0  0  0  0  0  0  0  0  0  0  0  0
   10.8990   12.3996   21.5917 H   0  0  0  0  0  0  0  0  0  0  0  0
    9.9784    7.8313   23.2073 H   0  0  0  0  0  0  0  0  0  0  0  0
   14.3460   15.7035   23.2428 H   0  0  0  0  0  0  0  0  0  0  0  0
    5.1765   12.1579   27.2132 H   0  0  0  0  0  0  0  0  0  0  0  0
    4.5946   13.1436   25.8779 H   0  0  0  0  0  0  0  0  0  0  0  0
    6.6966   14.0689   26.5540 H   0  0  0  0  0  0  0  0  0  0  0  0
    7.4797   12.5269   26.6788 H   0  0  0  0  0  0  0  0  0  0  0  0
    4.3848   10.6128   25.6085 H   0  0  0  0  0  0  0  0  0  0  0  0
    5.0630   11.4705   24.2481 H   0  0  0  0  0  0  0  0  0  0  0  0
   12.2477   15.7705   25.6404 H   0  0  0  0  0  0  0  0  0  0  0  0
   13.4123   14.4847   25.2524 H   0  0  0  0  0  0  0  0  0  0  0  0
   11.6787   14.1181   25.3148 H   0  0  0  0  0  0  0  0  0  0  0  0
   14.6940   15.4535   20.1279 H   0  0  0  0  0  0  0  0  0  0  0  0
   14.9336   16.8614   21.1863 H   0  0  0  0  0  0  0  0  0  0  0  0
   13.8597   16.9844   19.7809 H   0  0  0  0  0  0  0  0  0  0  0  0
    5.4496    8.9546   26.5185 H   0  0  0  0  0  0  0  0  0  0  0  0
    6.3351    8.3140   25.0930 H   0  0  0  0  0  0  0  0  0  0  0  0
    7.2409    8.8276   26.5567 H   0  0  0  0  0  0  0  0  0  0  0  0
    6.9700   15.2434   22.0968 H   0  0  0  0  0  0  0  0  0  0  0  0
    7.3411   13.5338   22.1184 H   0  0  0  0  0  0  0  0  0  0  0  0
  1  2  1  0  0  0  0
  1  3  2  0  0  0  0
  2  4  2  0  0  0  0
  3  5  1  0  0  0  0
  4  6  1  0  0  0  0
  5  6  1  0  0  0  0
  5 22  2  0  0  0  0
  6 23  2  0  0  0  0
  7  8  2  0  0  0  0
  7 22  1  0  0  0  0
  7 28  1  0  0  0  0
  8 23  1  0  0  0  0
  8 29  1  0  0  0  0
  9 21  1  0  0  0  0
  9 24  1  0  0  0  0
  9 25  2  0  0  0  0
 10 24  2  0  0  0  0
 10 26  1  0  0  0  0
 10 27  1  0  0  0  0
 11 12  2  0  0  0  0
 11 13  1  0  0  0  0
 12 18  1  0  0  0  0
 12 27  1  0  0  0  0
 13 19  1  0  0  0  0
 13 26  2  0  0  0  0
 14 21  1  0  0  0  0
 14 28  1  0  0  0  0
 14 30  2  0  0  0  0
 15 16  1  0  0  0  0
 15 17  1  0  0  0  0
 16 28  1  0  0  0  0
 17 29  1  0  0  0  0
 20 29  1  0  0  0  0
 25 27  1  0  0  0  0
  1 31  1  0  0  0  0
  2 32  1  0  0  0  0
  3 33  1  0  0  0  0
  4 34  1  0  0  0  0
 11 35  1  0  0  0  0
 15 36  1  0  0  0  0
 15 37  1  0  0  0  0
 16 38  1  0  0  0  0
 16 39  1  0  0  0  0
 17 40  1  0  0  0  0
 17 41  1  0  0  0  0
 18 42  1  0  0  0  0
 18 43  1  0  0  0  0
 18 44  1  0  0  0  0
 19 45  1  0  0  0  0
 19 46  1  0  0  0  0
 19 47  1  0  0  0  0
 20 48  1  0  0  0  0
 20 49  1  0  0  0  0
 20 50  1  0  0  0  0
 21 51  1  0  0  0  0
 21 52  1  0  0  0  0
M  END
> <idnumber>
Z442629102

> <heavy_atoms>
30

> <LogS>
-4.1

> <LogP>
1.446

> <rotating_bonds>
2

> <PSA>
92.41

> <hb_acceptors>
7

> <hb_donors>
0

> <Collection>
Legacy

> <link>
https://www.enaminestore.com/catalog/Z442629102

> <ROCS_ShapeQuery>
x0446_0A_x1080_0A_x0929_0A_x0812_0A_x0719_0A_x1140_0A_x0528_0A_x0310_0A

> <ROCS_TanimotoCombo>
0.464 

> <ROCS_ShapeTanimoto>
0.287 

> <ROCS_ColorTanimoto>
0.177 

> <ROCS_RefTversky>
0.260 

> <ROCS_RefColorTversky>
0.203 

> <ROCS_RefTverskyCombo>
0.462 

> <ROCS_FitTversky>
1.558 

> <ROCS_FitColorTversky>
0.588 

> <ROCS_FitTverskyCombo>
2.146 

> <ROCS_ColorScore>
-7.268

> <ROCS_Overlap>
3075.522

> <ROCS_Rank>
166                 

$$$$
untitled-dbase-651062_22
  -OEChem-02092406493D

 36 38  0     0  0  0  0  0  0999 V2000
    5.7968   12.9554   25.4972 C   0  0  0  0  0  0  0  0  0  0  0  0
    5.5472   11.5915   25.6005 C   0  0  0  0  0  0  0  0  0  0  0  0
    6.9706   13.3946   24.8929 C   0  0  0  0  0  0  0  0  0  0  0  0
    6.4712   10.6699   25.0992 C   0  0  0  0  0  0  0  0  0  0  0  0
   13.0167   14.2859   22.9550 C   0  0  0  0  0  0  0  0  0  0  0  0
   11.7999   13.9920   23.5703 C   0  0  0  0  0  0  0  0  0  0  0  0
   11.8486   15.5076   21.2287 C   0  0  0  0  0  0  0  0  0  0  0  0
    7.8947   12.4616   24.3913 C   0  0  0  0  0  0  0  0  0  0  0  0
    7.6538   11.0815   24.4895 C   0  0  0  0  0  0  0  0  0  0  0  0
   13.0411   15.0438   21.7842 C   0  0  0  0  0  0  0  0  0  0  0  0
   10.6074   14.4558   23.0148 C   0  0  0  0  0  0  0  0  0  0  0  0
   10.6318   15.2136   21.8439 C   0  0  0  0  0  0  0  0  0  0  0  0
    9.0864   12.8342   23.7759 C   0  0  0  0  0  0  0  0  0  0  0  0
    9.6490   10.6681   23.4385 C   0  0  0  0  0  0  0  0  0  0  0  0
    8.8312   14.8275   20.3391 C   0  0  0  0  0  0  0  0  0  0  0  0
   10.6171    9.6625   22.9137 C   0  0  0  0  0  0  0  0  0  0  0  0
    8.5307   10.1804   24.0131 N   0  0  0  0  0  0  0  0  0  0  0  0
    9.9859   11.9591   23.2884 N   0  0  0  0  0  0  0  0  0  0  0  0
   14.2796   15.3425   21.1577 N   0  3  0  0  0  0  0  0  0  0  0  0
   15.3409   14.9153   21.6735 O   0  5  0  0  0  0  0  0  0  0  0  0
   14.2796   16.0261   20.1053 O   0  0  0  0  0  0  0  0  0  0  0  0
    9.4101   14.1588   23.6339 O   0  0  0  0  0  0  0  0  0  0  0  0
    9.4741   15.6722   21.2917 O   0  0  0  0  0  0  0  0  0  0  0  0
   10.0323    8.8717   21.9758 F   0  0  0  0  0  0  0  0  0  0  0  0
   11.0397    8.8352   23.9055 F   0  0  0  0  0  0  0  0  0  0  0  0
    5.0815   13.6729   25.8872 H   0  0  0  0  0  0  0  0  0  0  0  0
    4.6336   11.2396   26.0708 H   0  0  0  0  0  0  0  0  0  0  0  0
    7.1516   14.4638   24.8198 H   0  0  0  0  0  0  0  0  0  0  0  0
    6.2528    9.6077   25.1933 H   0  0  0  0  0  0  0  0  0  0  0  0
   13.9386   13.9187   23.3993 H   0  0  0  0  0  0  0  0  0  0  0  0
   11.7880   13.4015   24.4824 H   0  0  0  0  0  0  0  0  0  0  0  0
   11.8602   16.0991   20.3158 H   0  0  0  0  0  0  0  0  0  0  0  0
    7.9208   15.3117   19.9774 H   0  0  0  0  0  0  0  0  0  0  0  0
    8.5866   13.8701   20.8061 H   0  0  0  0  0  0  0  0  0  0  0  0
    9.5094   14.6582   19.4993 H   0  0  0  0  0  0  0  0  0  0  0  0
   11.4978   10.1238   22.4627 H   0  0  0  0  0  0  0  0  0  0  0  0
  1  2  1  0  0  0  0
  1  3  2  0  0  0  0
  2  4  2  0  0  0  0
  3  8  1  0  0  0  0
  4  9  1  0  0  0  0
  5  6  2  0  0  0  0
  5 10  1  0  0  0  0
  6 11  1  0  0  0  0
  7 10  2  0  0  0  0
  7 12  1  0  0  0  0
  8  9  1  0  0  0  0
  8 13  2  0  0  0  0
  9 17  2  0  0  0  0
 10 19  1  0  0  0  0
 11 12  2  0  0  0  0
 11 22  1  0  0  0  0
 12 23  1  0  0  0  0
 13 18  1  0  0  0  0
 13 22  1  0  0  0  0
 14 16  1  0  0  0  0
 14 17  1  0  0  0  0
 14 18  2  0  0  0  0
 15 23  1  0  0  0  0
 16 24  1  0  0  0  0
 16 25  1  0  0  0  0
 19 20  1  0  0  0  0
 19 21  2  0  0  0  0
  1 26  1  0  0  0  0
  2 27  1  0  0  0  0
  3 28  1  0  0  0  0
  4 29  1  0  0  0  0
  5 30  1  0  0  0  0
  6 31  1  0  0  0  0
  7 32  1  0  0  0  0
 15 33  1  0  0  0  0
 15 34  1  0  0  0  0
 15 35  1  0  0  0  0
 16 36  1  0  0  0  0
M  CHG  2  19   1  20  -1
M  END
> <idnumber>
Z1159124740

> <heavy_atoms>
25

> <LogS>
-5.491

> <LogP>
2.977

> <rotating_bonds>
5

> <PSA>
87.38

> <hb_acceptors>
5

> <hb_donors>
0

> <Collection>
Legacy

> <link>
https://www.enaminestore.com/catalog/Z1159124740

> <ROCS_ShapeQuery>
x0446_0A_x1080_0A_x0929_0A_x0812_0A_x0719_0A_x1140_0A_x0528_0A_x0310_0A

> <ROCS_TanimotoCombo>
0.464 

> <ROCS_ShapeTanimoto>
0.271 

> <ROCS_ColorTanimoto>
0.192 

> <ROCS_RefTversky>
0.245 

> <ROCS_RefColorTversky>
0.208 

> <ROCS_RefTverskyCombo>
0.453 

> <ROCS_FitTversky>
1.670 

> <ROCS_FitColorTversky>
0.714 

> <ROCS_FitTverskyCombo>
2.384 

> <ROCS_ColorScore>
-7.460

> <ROCS_Overlap>
2893.626

> <ROCS_Rank>
167                 

$$$$
untitled-dbase-1071094_47
  -OEChem-02092406493D

 49 52  0     1  0  0  0  0  0999 V2000
    8.0200   12.2569   24.3031 C   0  0  0  0  0  0  0  0  0  0  0  0
    9.3241   12.1958   23.8845 C   0  0  0  0  0  0  0  0  0  0  0  0
    7.5920   10.9128   24.3510 C   0  0  0  0  0  0  0  0  0  0  0  0
   10.2819   13.2932   23.6614 C   0  0  0  0  0  0  0  0  0  0  0  0
    7.1235   13.3772   24.6685 C   0  0  0  0  0  0  0  0  0  0  0  0
   10.5948   14.5028   20.4616 C   0  0  0  0  0  0  0  0  0  0  0  0
    9.5754   13.5939   21.1735 C   0  0  0  0  0  0  0  0  0  0  0  0
   12.6842   14.7598   21.9468 C   0  0  0  0  0  0  0  0  0  0  0  0
   11.2482   16.2260   22.2714 C   0  0  0  0  0  0  0  0  0  0  0  0
    6.2007   10.5388   24.7337 C   0  0  1  0  0  0  0  0  0  0  0  0
    5.6566   12.8916   24.6012 C   0  0  2  0  0  0  0  0  0  0  0  0
   11.1913   14.7988   21.8145 C   0  0  0  0  0  0  0  0  0  0  0  0
    6.1436    9.3950   25.7382 C   0  0  0  0  0  0  0  0  0  0  0  0
    4.7159   13.9190   25.2145 C   0  0  0  0  0  0  0  0  0  0  0  0
   13.7195   10.8501   22.5623 C   0  0  0  0  0  0  0  0  0  0  0  0
   10.8315   10.2841   23.2582 C   0  0  0  0  0  0  0  0  0  0  0  0
   12.0028   10.6597   24.1559 C   0  0  0  0  0  0  0  0  0  0  0  0
    8.5414   10.0563   23.9682 N   0  0  0  0  0  0  0  0  0  0  0  0
    9.5856   10.8661   23.7016 N   0  0  0  0  0  0  0  0  0  0  0  0
   10.3137   13.8390   22.4042 N   0  0  0  0  0  0  0  0  0  0  0  0
   10.9989   13.6370   24.5975 O   0  0  0  0  0  0  0  0  0  0  0  0
   12.6982   16.1488   22.3855 O   0  0  0  0  0  0  0  0  0  0  0  0
    5.5035   11.6594   25.3373 O   0  0  0  0  0  0  0  0  0  0  0  0
   13.2004   10.0893   23.6444 O   0  0  0  0  0  0  0  0  0  0  0  0
    7.3683   13.6914   25.6907 H   0  0  0  0  0  0  0  0  0  0  0  0
    7.2688   14.2357   24.0040 H   0  0  0  0  0  0  0  0  0  0  0  0
   11.2500   13.9649   19.7674 H   0  0  0  0  0  0  0  0  0  0  0  0
   10.1484   15.3509   19.9328 H   0  0  0  0  0  0  0  0  0  0  0  0
    8.5525   13.9790   21.2061 H   0  0  0  0  0  0  0  0  0  0  0  0
    9.5861   12.5487   20.8542 H   0  0  0  0  0  0  0  0  0  0  0  0
   13.0852   14.0988   22.7205 H   0  0  0  0  0  0  0  0  0  0  0  0
   13.2568   14.6340   21.0233 H   0  0  0  0  0  0  0  0  0  0  0  0
   10.9507   16.9881   21.5454 H   0  0  0  0  0  0  0  0  0  0  0  0
   10.7890   16.4419   23.2406 H   0  0  0  0  0  0  0  0  0  0  0  0
    5.6428   10.2538   23.8334 H   0  0  0  0  0  0  0  0  0  0  0  0
    5.3566   12.7134   23.5598 H   0  0  0  0  0  0  0  0  0  0  0  0
    6.6942    9.6627   26.6401 H   0  0  0  0  0  0  0  0  0  0  0  0
    6.5868    8.4973   25.3069 H   0  0  0  0  0  0  0  0  0  0  0  0
    5.1078    9.1847   26.0055 H   0  0  0  0  0  0  0  0  0  0  0  0
    4.9959   14.1115   26.2508 H   0  0  0  0  0  0  0  0  0  0  0  0
    3.6902   13.5494   25.1896 H   0  0  0  0  0  0  0  0  0  0  0  0
    4.7673   14.8543   24.6559 H   0  0  0  0  0  0  0  0  0  0  0  0
   14.6372   10.3839   22.1952 H   0  0  0  0  0  0  0  0  0  0  0  0
   13.9253   11.8696   22.8981 H   0  0  0  0  0  0  0  0  0  0  0  0
   12.9799   10.8756   21.7586 H   0  0  0  0  0  0  0  0  0  0  0  0
   10.6939    9.1972   23.2215 H   0  0  0  0  0  0  0  0  0  0  0  0
   11.0046   10.6358   22.2346 H   0  0  0  0  0  0  0  0  0  0  0  0
   12.1274   11.7471   24.1666 H   0  0  0  0  0  0  0  0  0  0  0  0
   11.8575   10.3102   25.1832 H   0  0  0  0  0  0  0  0  0  0  0  0
  1  2  2  0  0  0  0
  1  3  1  0  0  0  0
  1  5  1  0  0  0  0
  2  4  1  0  0  0  0
  2 19  1  0  0  0  0
  3 10  1  0  0  0  0
  3 18  2  0  0  0  0
  4 20  1  0  0  0  0
  4 21  2  0  0  0  0
  5 11  1  0  0  0  0
  6  7  1  0  0  0  0
  6 12  1  0  0  0  0
  7 20  1  0  0  0  0
  8 12  1  0  0  0  0
  8 22  1  0  0  0  0
  9 12  1  0  0  0  0
  9 22  1  0  0  0  0
 10 13  1  1  0  0  0
 10 23  1  0  0  0  0
 11 14  1  1  0  0  0
 11 23  1  0  0  0  0
 12 20  1  0  0  0  0
 15 24  1  0  0  0  0
 16 17  1  0  0  0  0
 16 19  1  0  0  0  0
 17 24  1  0  0  0  0
 18 19  1  0  0  0  0
  5 25  1  0  0  0  0
  5 26  1  0  0  0  0
  6 27  1  0  0  0  0
  6 28  1  0  0  0  0
  7 29  1  0  0  0  0
  7 30  1  0  0  0  0
  8 31  1  0  0  0  0
  8 32  1  0  0  0  0
  9 33  1  0  0  0  0
  9 34  1  0  0  0  0
 10 35  1  0  0  0  0
 11 36  1  0  0  0  0
 13 37  1  0  0  0  0
 13 38  1  0  0  0  0
 13 39  1  0  0  0  0
 14 40  1  0  0  0  0
 14 41  1  0  0  0  0
 14 42  1  0  0  0  0
 15 43  1  0  0  0  0
 15 44  1  0  0  0  0
 15 45  1  0  0  0  0
 16 46  1  0  0  0  0
 16 47  1  0  0  0  0
 17 48  1  0  0  0  0
 17 49  1  0  0  0  0
M  END
> <idnumber>
Z4107137992

> <heavy_atoms>
24

> <LogS>
-2.03

> <LogP>
-0.723

> <rotating_bonds>
4

> <PSA>
65.82

> <hb_acceptors>
5

> <hb_donors>
0

> <Collection>
HTS

> <link>
https://www.enaminestore.com/catalog/Z4107137992

> <ROCS_ShapeQuery>
x0446_0A_x1080_0A_x0929_0A_x0812_0A_x0719_0A_x1140_0A_x0528_0A_x0310_0A

> <ROCS_TanimotoCombo>
0.464 

> <ROCS_ShapeTanimoto>
0.267 

> <ROCS_ColorTanimoto>
0.197 

> <ROCS_RefTversky>
0.240 

> <ROCS_RefColorTversky>
0.213 

> <ROCS_RefTverskyCombo>
0.453 

> <ROCS_FitTversky>
1.712 

> <ROCS_FitColorTversky>
0.728 

> <ROCS_FitTverskyCombo>
2.439 

> <ROCS_ColorScore>
-7.605

> <ROCS_Overlap>
2839.621

> <ROCS_Rank>
168                 

$$$$
untitled-dbase-412297_17
  -OEChem-02092406493D

 47 50  0     0  0  0  0  0  0999 V2000
   13.1580   14.6024   22.3357 C   0  0  0  0  0  0  0  0  0  0  0  0
   12.7568   15.1553   21.1196 C   0  0  0  0  0  0  0  0  0  0  0  0
   12.2044   14.2584   23.2939 C   0  0  0  0  0  0  0  0  0  0  0  0
   11.4020   15.3645   20.8617 C   0  0  0  0  0  0  0  0  0  0  0  0
    8.0435   12.5782   24.0894 C   0  0  0  0  0  0  0  0  0  0  0  0
    6.8945   13.4137   24.2941 C   0  0  0  0  0  0  0  0  0  0  0  0
   10.8496   14.4675   23.0360 C   0  0  0  0  0  0  0  0  0  0  0  0
   10.4484   15.0206   21.8199 C   0  0  0  0  0  0  0  0  0  0  0  0
    5.7323   12.6702   24.3892 C   0  0  0  0  0  0  0  0  0  0  0  0
    9.4095   12.8488   23.9460 C   0  0  0  0  0  0  0  0  0  0  0  0
    7.6788   11.2382   24.0307 C   0  0  0  0  0  0  0  0  0  0  0  0
    9.7913   10.5902   23.7229 C   0  0  0  0  0  0  0  0  0  0  0  0
    6.8898   14.9082   24.4283 C   0  0  0  0  0  0  0  0  0  0  0  0
    4.3599   13.2360   24.5822 C   0  0  0  0  0  0  0  0  0  0  0  0
    5.4792   15.4950   24.2658 C   0  0  0  0  0  0  0  0  0  0  0  0
    4.4384   14.6938   25.0599 C   0  0  0  0  0  0  0  0  0  0  0  0
   10.7902    9.5006   23.5159 C   0  0  0  0  0  0  0  0  0  0  0  0
    6.4479   13.5709   19.5180 C   0  0  0  0  0  0  0  0  0  0  0  0
    7.1003   14.3006   20.6784 C   0  0  0  0  0  0  0  0  0  0  0  0
    8.5779   14.5582   20.4259 C   0  0  0  0  0  0  0  0  0  0  0  0
   10.2886   11.8412   23.7608 N   0  0  0  0  0  0  0  0  0  0  0  0
    8.5122   10.1955   23.8478 N   0  0  0  0  0  0  0  0  0  0  0  0
    9.9168   14.1243   23.9920 O   0  0  0  0  0  0  0  0  0  0  0  0
    9.1285   15.2308   21.5567 O   0  0  0  0  0  0  0  0  0  0  0  0
    6.0027   10.9998   24.2206 S   0  0  0  0  0  0  0  0  0  0  0  0
   14.2131   14.4393   22.5365 H   0  0  0  0  0  0  0  0  0  0  0  0
   13.4991   15.4231   20.3738 H   0  0  0  0  0  0  0  0  0  0  0  0
   12.5235   13.8278   24.2392 H   0  0  0  0  0  0  0  0  0  0  0  0
   11.0965   15.7972   19.9131 H   0  0  0  0  0  0  0  0  0  0  0  0
    7.2807   15.1706   25.4190 H   0  0  0  0  0  0  0  0  0  0  0  0
    7.5495   15.3637   23.6818 H   0  0  0  0  0  0  0  0  0  0  0  0
    3.8226   13.1965   23.6264 H   0  0  0  0  0  0  0  0  0  0  0  0
    3.7881   12.6457   25.3072 H   0  0  0  0  0  0  0  0  0  0  0  0
    5.4786   16.5402   24.5944 H   0  0  0  0  0  0  0  0  0  0  0  0
    5.2000   15.4924   23.2042 H   0  0  0  0  0  0  0  0  0  0  0  0
    3.4524   15.1627   24.9664 H   0  0  0  0  0  0  0  0  0  0  0  0
    4.7047   14.7179   26.1245 H   0  0  0  0  0  0  0  0  0  0  0  0
   11.1687    9.1427   24.4807 H   0  0  0  0  0  0  0  0  0  0  0  0
   10.3474    8.6525   22.9785 H   0  0  0  0  0  0  0  0  0  0  0  0
   11.6399    9.8496   22.9154 H   0  0  0  0  0  0  0  0  0  0  0  0
    6.5565   14.1376   18.5877 H   0  0  0  0  0  0  0  0  0  0  0  0
    6.9143   12.5911   19.3751 H   0  0  0  0  0  0  0  0  0  0  0  0
    5.3804   13.4150   19.7031 H   0  0  0  0  0  0  0  0  0  0  0  0
    6.9806   13.7174   21.5994 H   0  0  0  0  0  0  0  0  0  0  0  0
    6.5860   15.2526   20.8561 H   0  0  0  0  0  0  0  0  0  0  0  0
    9.1197   13.6179   20.2820 H   0  0  0  0  0  0  0  0  0  0  0  0
    8.7192   15.1891   19.5425 H   0  0  0  0  0  0  0  0  0  0  0  0
  1  2  1  0  0  0  0
  1  3  2  0  0  0  0
  2  4  2  0  0  0  0
  3  7  1  0  0  0  0
  4  8  1  0  0  0  0
  5  6  1  0  0  0  0
  5 10  2  0  0  0  0
  5 11  1  0  0  0  0
  6  9  2  0  0  0  0
  6 13  1  0  0  0  0
  7  8  2  0  0  0  0
  7 23  1  0  0  0  0
  8 24  1  0  0  0  0
  9 14  1  0  0  0  0
  9 25  1  0  0  0  0
 10 21  1  0  0  0  0
 10 23  1  0  0  0  0
 11 22  2  0  0  0  0
 11 25  1  0  0  0  0
 12 17  1  0  0  0  0
 12 21  2  0  0  0  0
 12 22  1  0  0  0  0
 13 15  1  0  0  0  0
 14 16  1  0  0  0  0
 15 16  1  0  0  0  0
 18 19  1  0  0  0  0
 19 20  1  0  0  0  0
 20 24  1  0  0  0  0
  1 26  1  0  0  0  0
  2 27  1  0  0  0  0
  3 28  1  0  0  0  0
  4 29  1  0  0  0  0
 13 30  1  0  0  0  0
 13 31  1  0  0  0  0
 14 32  1  0  0  0  0
 14 33  1  0  0  0  0
 15 34  1  0  0  0  0
 15 35  1  0  0  0  0
 16 36  1  0  0  0  0
 16 37  1  0  0  0  0
 17 38  1  0  0  0  0
 17 39  1  0  0  0  0
 17 40  1  0  0  0  0
 18 41  1  0  0  0  0
 18 42  1  0  0  0  0
 18 43  1  0  0  0  0
 19 44  1  0  0  0  0
 19 45  1  0  0  0  0
 20 46  1  0  0  0  0
 20 47  1  0  0  0  0
M  END
> <idnumber>
Z52588389

> <heavy_atoms>
25

> <LogS>
-6.35

> <LogP>
5.682

> <rotating_bonds>
5

> <PSA>
44.24

> <hb_acceptors>
3

> <hb_donors>
0

> <Collection>
Legacy

> <link>
https://www.enaminestore.com/catalog/Z52588389

> <ROCS_ShapeQuery>
x0446_0A_x1080_0A_x0929_0A_x0812_0A_x0719_0A_x1140_0A_x0528_0A_x0310_0A

> <ROCS_TanimotoCombo>
0.464 

> <ROCS_ShapeTanimoto>
0.260 

> <ROCS_ColorTanimoto>
0.204 

> <ROCS_RefTversky>
0.236 

> <ROCS_RefColorTversky>
0.219 

> <ROCS_RefTverskyCombo>
0.455 

> <ROCS_FitTversky>
1.646 

> <ROCS_FitColorTversky>
0.750 

> <ROCS_FitTverskyCombo>
2.395 

> <ROCS_ColorScore>
-7.836

> <ROCS_Overlap>
2785.964

> <ROCS_Rank>
169                 

$$$$
untitled-dbase-666327_48
  -OEChem-02092406493D

 69 75  0     1  0  0  0  0  0999 V2000
   10.1808   14.8404   21.9529 C   0  0  0  0  0  0  0  0  0  0  0  0
   12.1157   14.0508   23.1653 C   0  0  0  0  0  0  0  0  0  0  0  0
   10.8964   15.9655   21.5434 C   0  0  0  0  0  0  0  0  0  0  0  0
   12.8314   15.1759   22.7557 C   0  0  0  0  0  0  0  0  0  0  0  0
    1.4410   13.7410   19.5760 C   0  0  0  0  0  0  0  0  0  0  0  0
    2.7690   10.6118   17.4477 C   0  0  0  0  0  0  0  0  0  0  0  0
    2.1284   12.6330   19.0465 C   0  0  0  0  0  0  0  0  0  0  0  0
   10.7904   13.8831   22.7639 C   0  0  0  0  0  0  0  0  0  0  0  0
   12.2218   16.1332   21.9447 C   0  0  0  0  0  0  0  0  0  0  0  0
    1.4049   12.2914   17.9174 C   0  0  0  0  0  0  0  0  0  0  0  0
    3.2477   11.8605   19.3378 C   0  0  0  0  0  0  0  0  0  0  0  0
    6.2212   12.1388   23.9560 C   0  0  0  0  0  0  0  0  0  0  0  0
    9.8449    9.7946   24.1161 C   0  0  0  0  0  0  0  0  0  0  0  0
   10.1201   11.4317   22.2398 C   0  0  0  0  0  0  0  0  0  0  0  0
   10.5125   12.1630   24.6066 C   0  0  0  0  0  0  0  0  0  0  0  0
    7.8352   10.6088   22.8568 C   0  0  0  0  0  0  0  0  0  0  0  0
    8.2215   11.3491   25.2238 C   0  0  0  0  0  0  0  0  0  0  0  0
    8.4881   12.9870   23.3372 C   0  0  0  0  0  0  0  0  0  0  0  0
    3.3933   12.0747   21.7814 C   0  0  0  0  0  0  0  0  0  0  0  0
    5.4743   11.8253   20.4289 C   0  0  0  0  0  0  0  0  0  0  0  0
    4.1764   12.9085   22.7930 C   0  0  0  0  0  0  0  0  0  0  0  0
    6.2233   12.6607   21.4671 C   0  0  0  0  0  0  0  0  0  0  0  0
    9.3155   10.2197   22.7394 C   0  0  2  0  0  0  0  0  0  0  0  0
    9.7030   10.9553   25.1103 C   0  0  1  0  0  0  0  0  0  0  0  0
   10.0025   12.6432   23.2157 C   0  0  0  0  0  0  0  0  0  0  0  0
    7.6804   11.7757   23.8461 C   0  0  0  0  0  0  0  0  0  0  0  0
   12.9868   17.3355   21.5049 C   0  0  0  0  0  0  0  0  0  0  0  0
   -0.6580   13.2337   16.8394 C   0  0  0  0  0  0  0  0  0  0  0  0
    0.3702   14.0797   18.8495 N   0  0  0  0  0  0  0  0  0  0  0  0
    1.6649   11.2884   17.0639 N   0  0  0  0  0  0  0  0  0  0  0  0
    3.5690   10.8308   18.5184 N   0  0  0  0  0  0  0  0  0  0  0  0
    0.3741   13.1808   17.8477 N   0  0  0  0  0  0  0  0  0  0  0  0
    4.0382   12.1353   20.4598 N   0  0  0  0  0  0  0  0  0  0  0  0
    5.5899   12.5405   22.7815 N   0  0  0  0  0  0  0  0  0  0  0  0
    5.6610   12.0648   25.0526 O   0  0  0  0  0  0  0  0  0  0  0  0
    9.1484   14.7183   21.6359 H   0  0  0  0  0  0  0  0  0  0  0  0
   12.5987   13.3092   23.7962 H   0  0  0  0  0  0  0  0  0  0  0  0
   10.4140   16.7053   20.9104 H   0  0  0  0  0  0  0  0  0  0  0  0
   13.8635   15.2989   23.0731 H   0  0  0  0  0  0  0  0  0  0  0  0
    1.6712   14.3191   20.4597 H   0  0  0  0  0  0  0  0  0  0  0  0
    3.0548    9.7799   16.8129 H   0  0  0  0  0  0  0  0  0  0  0  0
    9.2901    8.9204   24.4779 H   0  0  0  0  0  0  0  0  0  0  0  0
   10.8969    9.4940   24.0375 H   0  0  0  0  0  0  0  0  0  0  0  0
   11.1748   11.1487   22.1201 H   0  0  0  0  0  0  0  0  0  0  0  0
    9.7673   11.7205   21.2403 H   0  0  0  0  0  0  0  0  0  0  0  0
   10.4412   12.9826   25.3342 H   0  0  0  0  0  0  0  0  0  0  0  0
   11.5765   11.8965   24.5475 H   0  0  0  0  0  0  0  0  0  0  0  0
    7.4413   10.8874   21.8704 H   0  0  0  0  0  0  0  0  0  0  0  0
    7.2456    9.7438   23.1885 H   0  0  0  0  0  0  0  0  0  0  0  0
    7.6422   10.5037   25.6182 H   0  0  0  0  0  0  0  0  0  0  0  0
    8.1045   12.1647   25.9495 H   0  0  0  0  0  0  0  0  0  0  0  0
    8.3518   13.8406   24.0165 H   0  0  0  0  0  0  0  0  0  0  0  0
    8.0998   13.3202   22.3640 H   0  0  0  0  0  0  0  0  0  0  0  0
    3.3368   11.0340   22.1172 H   0  0  0  0  0  0  0  0  0  0  0  0
    2.3718   12.4610   21.7115 H   0  0  0  0  0  0  0  0  0  0  0  0
    5.8615   12.0300   19.4253 H   0  0  0  0  0  0  0  0  0  0  0  0
    5.6486   10.7636   20.6353 H   0  0  0  0  0  0  0  0  0  0  0  0
    4.1118   13.9668   22.5456 H   0  0  0  0  0  0  0  0  0  0  0  0
    3.7605   12.7593   23.7849 H   0  0  0  0  0  0  0  0  0  0  0  0
    7.2547   12.3196   21.5680 H   0  0  0  0  0  0  0  0  0  0  0  0
    6.2444   13.7053   21.1589 H   0  0  0  0  0  0  0  0  0  0  0  0
    9.4228    9.3900   22.0316 H   0  0  0  0  0  0  0  0  0  0  0  0
   10.0780   10.6465   26.0926 H   0  0  0  0  0  0  0  0  0  0  0  0
   12.8654   18.1511   22.2283 H   0  0  0  0  0  0  0  0  0  0  0  0
   14.0574   17.1130   21.4079 H   0  0  0  0  0  0  0  0  0  0  0  0
   12.6454   17.6877   20.5228 H   0  0  0  0  0  0  0  0  0  0  0  0
   -1.4889   12.6072   17.1742 H   0  0  0  0  0  0  0  0  0  0  0  0
   -0.9875   14.2683   16.7096 H   0  0  0  0  0  0  0  0  0  0  0  0
   -0.2567   12.8640   15.8917 H   0  0  0  0  0  0  0  0  0  0  0  0
  1  3  2  0  0  0  0
  1  8  1  0  0  0  0
  2  4  1  0  0  0  0
  2  8  2  0  0  0  0
  3  9  1  0  0  0  0
  4  9  2  0  0  0  0
  5  7  1  0  0  0  0
  5 29  2  0  0  0  0
  6 30  1  0  0  0  0
  6 31  2  0  0  0  0
  7 10  1  0  0  0  0
  7 11  2  0  0  0  0
  8 25  1  0  0  0  0
  9 27  1  0  0  0  0
 10 30  2  0  0  0  0
 10 32  1  0  0  0  0
 11 31  1  0  0  0  0
 11 33  1  0  0  0  0
 12 26  1  0  0  0  0
 12 34  1  0  0  0  0
 12 35  2  0  0  0  0
 13 23  1  0  0  0  0
 13 24  1  0  0  0  0
 14 23  1  0  0  0  0
 14 25  1  0  0  0  0
 15 24  1  0  0  0  0
 15 25  1  0  0  0  0
 16 23  1  0  0  0  0
 16 26  1  0  0  0  0
 17 24  1  0  0  0  0
 17 26  1  0  0  0  0
 18 25  1  0  0  0  0
 18 26  1  0  0  0  0
 19 21  1  0  0  0  0
 19 33  1  0  0  0  0
 20 22  1  0  0  0  0
 20 33  1  0  0  0  0
 21 34  1  0  0  0  0
 22 34  1  0  0  0  0
 28 32  1  0  0  0  0
 29 32  1  0  0  0  0
  1 36  1  0  0  0  0
  2 37  1  0  0  0  0
  3 38  1  0  0  0  0
  4 39  1  0  0  0  0
  5 40  1  0  0  0  0
  6 41  1  0  0  0  0
 13 42  1  0  0  0  0
 13 43  1  0  0  0  0
 14 44  1  0  0  0  0
 14 45  1  0  0  0  0
 15 46  1  0  0  0  0
 15 47  1  0  0  0  0
 16 48  1  0  0  0  0
 16 49  1  0  0  0  0
 17 50  1  0  0  0  0
 17 51  1  0  0  0  0
 18 52  1  0  0  0  0
 18 53  1  0  0  0  0
 19 54  1  0  0  0  0
 19 55  1  0  0  0  0
 20 56  1  0  0  0  0
 20 57  1  0  0  0  0
 21 58  1  0  0  0  0
 21 59  1  0  0  0  0
 22 60  1  0  0  0  0
 22 61  1  0  0  0  0
 23 62  1  0  0  0  0
 24 63  1  0  0  0  0
 27 64  1  0  0  0  0
 27 65  1  0  0  0  0
 27 66  1  0  0  0  0
 28 67  1  0  0  0  0
 28 68  1  0  0  0  0
 28 69  1  0  0  0  0
M  END
> <idnumber>
Z238098302

> <heavy_atoms>
35

> <LogS>
-6.95

> <LogP>
3.867

> <rotating_bonds>
3

> <PSA>
67.15

> <hb_acceptors>
5

> <hb_donors>
0

> <Collection>
Advanced

> <link>
https://www.enaminestore.com/catalog/Z238098302

> <ROCS_ShapeQuery>
x0446_0A_x1080_0A_x0929_0A_x0812_0A_x0719_0A_x1140_0A_x0528_0A_x0310_0A

> <ROCS_TanimotoCombo>
0.464 

> <ROCS_ShapeTanimoto>
0.289 

> <ROCS_ColorTanimoto>
0.174 

> <ROCS_RefTversky>
0.266 

> <ROCS_RefColorTversky>
0.213 

> <ROCS_RefTverskyCombo>
0.479 

> <ROCS_FitTversky>
1.439 

> <ROCS_FitColorTversky>
0.491 

> <ROCS_FitTverskyCombo>
1.931 

> <ROCS_ColorScore>
-7.674

> <ROCS_Overlap>
3149.540

> <ROCS_Rank>
170                 

$$$$
untitled-dbase-960278_20
  -OEChem-02092406493D

 49 52  0     1  0  0  0  0  0999 V2000
    4.3773   11.1796   19.3146 C   0  0  0  0  0  0  0  0  0  0  0  0
    4.9324   12.4588   19.3460 C   0  0  0  0  0  0  0  0  0  0  0  0
    4.1534   10.4871   20.5046 C   0  0  0  0  0  0  0  0  0  0  0  0
    5.2636   13.0456   20.5673 C   0  0  0  0  0  0  0  0  0  0  0  0
    4.4846   11.0738   21.7259 C   0  0  0  0  0  0  0  0  0  0  0  0
   11.7719   15.0423   21.8930 C   0  0  0  0  0  0  0  0  0  0  0  0
   11.1376   14.0076   22.5578 C   0  0  0  0  0  0  0  0  0  0  0  0
    5.0397   12.3531   21.7573 C   0  0  0  0  0  0  0  0  0  0  0  0
   10.9839   15.9956   21.2800 C   0  0  0  0  0  0  0  0  0  0  0  0
    9.7572   13.9949   22.5658 C   0  0  0  0  0  0  0  0  0  0  0  0
    6.7066   13.3498   23.3192 C   0  0  0  0  0  0  0  0  0  0  0  0
    7.6398   10.9862   24.8483 C   0  0  0  0  0  0  0  0  0  0  0  0
    8.9089   11.6960   25.3305 C   0  0  0  0  0  0  0  0  0  0  0  0
   10.1129   10.7259   23.3474 C   0  0  0  0  0  0  0  0  0  0  0  0
    7.7923   12.4593   22.7940 C   0  0  2  0  0  0  0  0  0  0  0  0
    7.6029   11.0102   23.3100 C   0  0  1  0  0  0  0  0  0  0  0  0
    9.8353   12.0205   24.1387 C   0  0  1  0  0  0  0  0  0  0  0  0
    8.7909   10.1743   22.8047 C   0  0  0  0  0  0  0  0  0  0  0  0
   11.6172   17.1316   20.5524 C   0  0  0  0  0  0  0  0  0  0  0  0
    4.2699   13.2441   23.9447 C   0  0  0  0  0  0  0  0  0  0  0  0
    9.6348   15.9581   21.3039 N   0  0  0  0  0  0  0  0  0  0  0  0
    9.0114   14.9413   21.9576 N   0  0  0  0  0  0  0  0  0  0  0  0
    9.1180   12.9487   23.2339 N   0  0  1  0  0  0  0  0  0  0  0  0
    5.3838   12.9629   23.0260 N   0  0  0  0  0  0  0  0  0  0  0  0
    7.0392   14.3297   23.9908 O   0  0  0  0  0  0  0  0  0  0  0  0
    8.8133   10.1785   21.4484 F   0  0  0  0  0  0  0  0  0  0  0  0
    8.6450    8.8798   23.1802 F   0  0  0  0  0  0  0  0  0  0  0  0
    4.1185   10.7227   18.3638 H   0  0  0  0  0  0  0  0  0  0  0  0
    5.1061   12.9986   18.4198 H   0  0  0  0  0  0  0  0  0  0  0  0
    3.7202    9.4913   20.4799 H   0  0  0  0  0  0  0  0  0  0  0  0
    5.6956   14.0432   20.5795 H   0  0  0  0  0  0  0  0  0  0  0  0
    4.3055   10.5246   22.6470 H   0  0  0  0  0  0  0  0  0  0  0  0
   12.8548   15.0922   21.8585 H   0  0  0  0  0  0  0  0  0  0  0  0
   11.7205   13.2369   23.0517 H   0  0  0  0  0  0  0  0  0  0  0  0
    7.6293    9.9547   25.2137 H   0  0  0  0  0  0  0  0  0  0  0  0
    6.7556   11.4733   25.2687 H   0  0  0  0  0  0  0  0  0  0  0  0
    8.6453   12.6195   25.8633 H   0  0  0  0  0  0  0  0  0  0  0  0
    9.4385   11.0615   26.0534 H   0  0  0  0  0  0  0  0  0  0  0  0
   10.8085   10.9245   22.5272 H   0  0  0  0  0  0  0  0  0  0  0  0
   10.5810    9.9877   24.0047 H   0  0  0  0  0  0  0  0  0  0  0  0
    7.7160   12.4597   21.6977 H   0  0  0  0  0  0  0  0  0  0  0  0
    6.6561   10.5886   22.9529 H   0  0  0  0  0  0  0  0  0  0  0  0
   10.7707   12.4623   24.5057 H   0  0  0  0  0  0  0  0  0  0  0  0
   11.7816   16.8684   19.5000 H   0  0  0  0  0  0  0  0  0  0  0  0
   10.9884   18.0311   20.5911 H   0  0  0  0  0  0  0  0  0  0  0  0
   12.5841   17.4018   20.9977 H   0  0  0  0  0  0  0  0  0  0  0  0
    4.1024   12.3737   24.5961 H   0  0  0  0  0  0  0  0  0  0  0  0
    4.5156   14.1214   24.5611 H   0  0  0  0  0  0  0  0  0  0  0  0
    3.3583   13.4480   23.3638 H   0  0  0  0  0  0  0  0  0  0  0  0
  1  2  1  0  0  0  0
  1  3  2  0  0  0  0
  2  4  2  0  0  0  0
  3  5  1  0  0  0  0
  4  8  1  0  0  0  0
  5  8  2  0  0  0  0
  6  7  2  0  0  0  0
  6  9  1  0  0  0  0
  7 10  1  0  0  0  0
  8 24  1  0  0  0  0
  9 19  1  0  0  0  0
  9 21  2  0  0  0  0
 10 22  2  0  0  0  0
 10 23  1  0  0  0  0
 11 15  1  6  0  0  0
 11 24  1  0  0  0  0
 11 25  2  0  0  0  0
 12 13  1  0  0  0  0
 12 16  1  6  0  0  0
 13 17  1  0  0  0  0
 14 17  1  0  0  0  0
 14 18  1  0  0  0  0
 15 16  1  0  0  0  0
 15 23  1  0  0  0  0
 16 18  1  0  0  0  0
 17 23  1  1  0  0  0
 18 26  1  0  0  0  0
 18 27  1  0  0  0  0
 20 24  1  0  0  0  0
 21 22  1  0  0  0  0
  1 28  1  0  0  0  0
  2 29  1  0  0  0  0
  3 30  1  0  0  0  0
  4 31  1  0  0  0  0
  5 32  1  0  0  0  0
  6 33  1  0  0  0  0
  7 34  1  0  0  0  0
 12 35  1  0  0  0  0
 12 36  1  0  0  0  0
 13 37  1  0  0  0  0
 13 38  1  0  0  0  0
 14 39  1  0  0  0  0
 14 40  1  0  0  0  0
 15 41  1  0  0  0  0
 16 42  1  0  0  0  0
 17 43  1  0  0  0  0
 19 44  1  0  0  0  0
 19 45  1  0  0  0  0
 19 46  1  0  0  0  0
 20 47  1  0  0  0  0
 20 48  1  0  0  0  0
 20 49  1  0  0  0  0
M  END
> <idnumber>
Z2803806969

> <heavy_atoms>
27

> <LogS>
-5.015

> <LogP>
2.33

> <rotating_bonds>
3

> <PSA>
49.33

> <hb_acceptors>
4

> <hb_donors>
0

> <Collection>
Advanced

> <link>
https://www.enaminestore.com/catalog/Z2803806969

> <ROCS_ShapeQuery>
x0446_0A_x1080_0A_x0929_0A_x0812_0A_x0719_0A_x1140_0A_x0528_0A_x0310_0A

> <ROCS_TanimotoCombo>
0.464 

> <ROCS_ShapeTanimoto>
0.260 

> <ROCS_ColorTanimoto>
0.204 

> <ROCS_RefTversky>
0.238 

> <ROCS_RefColorTversky>
0.229 

> <ROCS_RefTverskyCombo>
0.467 

> <ROCS_FitTversky>
1.555 

> <ROCS_FitColorTversky>
0.650 

> <ROCS_FitTverskyCombo>
2.205 

> <ROCS_ColorScore>
-8.210

> <ROCS_Overlap>
2814.602

> <ROCS_Rank>
171                 

$$$$
untitled-dbase-663539_144
  -OEChem-02092406493D

 66 71  0     1  0  0  0  0  0999 V2000
   10.3369   14.6538   21.6832 C   0  0  0  0  0  0  0  0  0  0  0  0
   11.1070   15.7683   21.3513 C   0  0  0  0  0  0  0  0  0  0  0  0
   11.8166   14.1823   23.5339 C   0  0  0  0  0  0  0  0  0  0  0  0
    0.8950   12.9127   17.9769 C   0  0  0  0  0  0  0  0  0  0  0  0
    1.9339   12.0082   17.9872 C   0  0  0  0  0  0  0  0  0  0  0  0
    1.6662   13.8208   19.9288 C   0  0  0  0  0  0  0  0  0  0  0  0
   10.6916   13.8608   22.7745 C   0  0  0  0  0  0  0  0  0  0  0  0
   12.2320   16.0899   22.1107 C   0  0  0  0  0  0  0  0  0  0  0  0
   12.5868   15.2969   23.2020 C   0  0  0  0  0  0  0  0  0  0  0  0
    2.7047   12.9158   19.9396 C   0  0  0  0  0  0  0  0  0  0  0  0
    6.1203   12.3148   24.2080 C   0  0  0  0  0  0  0  0  0  0  0  0
    9.5186    9.7053   23.6658 C   0  0  0  0  0  0  0  0  0  0  0  0
    9.7578   11.5653   22.0047 C   0  0  0  0  0  0  0  0  0  0  0  0
   10.4392   11.9236   24.3917 C   0  0  0  0  0  0  0  0  0  0  0  0
    7.4782   10.8381   22.7487 C   0  0  0  0  0  0  0  0  0  0  0  0
    8.1544   11.2057   25.1378 C   0  0  0  0  0  0  0  0  0  0  0  0
    8.3841   13.0687   23.4675 C   0  0  0  0  0  0  0  0  0  0  0  0
    3.1025   12.7715   22.3602 C   0  0  0  0  0  0  0  0  0  0  0  0
    5.0136   12.5594   20.7712 C   0  0  0  0  0  0  0  0  0  0  0  0
    4.0504   13.3928   23.3835 C   0  0  0  0  0  0  0  0  0  0  0  0
    5.9303   13.1810   21.8246 C   0  0  0  0  0  0  0  0  0  0  0  0
    8.8998   10.3590   22.4226 C   0  0  2  0  0  0  0  0  0  0  0  0
    9.5770   10.7214   24.8147 C   0  0  1  0  0  0  0  0  0  0  0  0
    9.8430   12.6324   23.1397 C   0  0  0  0  0  0  0  0  0  0  0  0
    7.5240   11.8620   23.8949 C   0  0  0  0  0  0  0  0  0  0  0  0
   13.0418   17.2874   21.7355 C   0  0  0  0  0  0  0  0  0  0  0  0
   13.7872   15.6215   24.0293 C   0  0  0  0  0  0  0  0  0  0  0  0
    0.7426   13.8353   18.9475 N   0  0  0  0  0  0  0  0  0  0  0  0
    2.8573   11.9935   18.9688 N   0  0  0  0  0  0  0  0  0  0  0  0
    3.6205   12.9692   20.9967 N   0  0  0  0  0  0  0  0  0  0  0  0
    5.4177   12.9247   23.1717 N   0  0  0  0  0  0  0  0  0  0  0  0
    5.6636   12.1292   25.3388 O   0  0  0  0  0  0  0  0  0  0  0  0
    9.4622   14.4105   21.0856 H   0  0  0  0  0  0  0  0  0  0  0  0
   10.8226   16.3795   20.4987 H   0  0  0  0  0  0  0  0  0  0  0  0
   12.0921   13.5639   24.3850 H   0  0  0  0  0  0  0  0  0  0  0  0
    0.1528   12.9230   17.1884 H   0  0  0  0  0  0  0  0  0  0  0  0
    2.0566   11.2678   17.2064 H   0  0  0  0  0  0  0  0  0  0  0  0
    1.5341   14.5669   20.7041 H   0  0  0  0  0  0  0  0  0  0  0  0
    8.9252    8.8330   23.9659 H   0  0  0  0  0  0  0  0  0  0  0  0
   10.5272    9.3404   23.4357 H   0  0  0  0  0  0  0  0  0  0  0  0
   10.7666   11.2234   21.7361 H   0  0  0  0  0  0  0  0  0  0  0  0
    9.3380   12.0180   21.0961 H   0  0  0  0  0  0  0  0  0  0  0  0
   10.5115   12.6354   25.2251 H   0  0  0  0  0  0  0  0  0  0  0  0
   11.4645   11.5888   24.1841 H   0  0  0  0  0  0  0  0  0  0  0  0
    7.0180   11.2820   21.8560 H   0  0  0  0  0  0  0  0  0  0  0  0
    6.8482    9.9818   23.0240 H   0  0  0  0  0  0  0  0  0  0  0  0
    7.5424   10.3591   25.4764 H   0  0  0  0  0  0  0  0  0  0  0  0
    8.1809   11.9172   25.9736 H   0  0  0  0  0  0  0  0  0  0  0  0
    8.3904   13.8257   24.2648 H   0  0  0  0  0  0  0  0  0  0  0  0
    7.9356   13.5641   22.5945 H   0  0  0  0  0  0  0  0  0  0  0  0
    2.9857   11.7010   22.5590 H   0  0  0  0  0  0  0  0  0  0  0  0
    2.1177   13.2395   22.4522 H   0  0  0  0  0  0  0  0  0  0  0  0
    5.3195   12.8739   19.7679 H   0  0  0  0  0  0  0  0  0  0  0  0
    5.1113   11.4690   20.8149 H   0  0  0  0  0  0  0  0  0  0  0  0
    4.0572   14.4772   23.2870 H   0  0  0  0  0  0  0  0  0  0  0  0
    3.7199   13.1368   24.3857 H   0  0  0  0  0  0  0  0  0  0  0  0
    6.9320   12.7525   21.7681 H   0  0  0  0  0  0  0  0  0  0  0  0
    6.0150   14.2542   21.6572 H   0  0  0  0  0  0  0  0  0  0  0  0
    8.8641    9.6319   21.6036 H   0  0  0  0  0  0  0  0  0  0  0  0
   10.0154   10.2497   25.7014 H   0  0  0  0  0  0  0  0  0  0  0  0
   12.6663   18.1774   22.2536 H   0  0  0  0  0  0  0  0  0  0  0  0
   14.0980   17.1496   21.9978 H   0  0  0  0  0  0  0  0  0  0  0  0
   13.0025   17.4694   20.6543 H   0  0  0  0  0  0  0  0  0  0  0  0
   14.6739   15.1193   23.6255 H   0  0  0  0  0  0  0  0  0  0  0  0
   13.9753   16.7020   24.0479 H   0  0  0  0  0  0  0  0  0  0  0  0
   13.6488   15.3035   25.0702 H   0  0  0  0  0  0  0  0  0  0  0  0
  1  2  2  0  0  0  0
  1  7  1  0  0  0  0
  2  8  1  0  0  0  0
  3  7  2  0  0  0  0
  3  9  1  0  0  0  0
  4  5  2  0  0  0  0
  4 28  1  0  0  0  0
  5 29  1  0  0  0  0
  6 10  1  0  0  0  0
  6 28  2  0  0  0  0
  7 24  1  0  0  0  0
  8  9  2  0  0  0  0
  8 26  1  0  0  0  0
  9 27  1  0  0  0  0
 10 29  2  0  0  0  0
 10 30  1  0  0  0  0
 11 25  1  0  0  0  0
 11 31  1  0  0  0  0
 11 32  2  0  0  0  0
 12 22  1  0  0  0  0
 12 23  1  0  0  0  0
 13 22  1  0  0  0  0
 13 24  1  0  0  0  0
 14 23  1  0  0  0  0
 14 24  1  0  0  0  0
 15 22  1  0  0  0  0
 15 25  1  0  0  0  0
 16 23  1  0  0  0  0
 16 25  1  0  0  0  0
 17 24  1  0  0  0  0
 17 25  1  0  0  0  0
 18 20  1  0  0  0  0
 18 30  1  0  0  0  0
 19 21  1  0  0  0  0
 19 30  1  0  0  0  0
 20 31  1  0  0  0  0
 21 31  1  0  0  0  0
  1 33  1  0  0  0  0
  2 34  1  0  0  0  0
  3 35  1  0  0  0  0
  4 36  1  0  0  0  0
  5 37  1  0  0  0  0
  6 38  1  0  0  0  0
 12 39  1  0  0  0  0
 12 40  1  0  0  0  0
 13 41  1  0  0  0  0
 13 42  1  0  0  0  0
 14 43  1  0  0  0  0
 14 44  1  0  0  0  0
 15 45  1  0  0  0  0
 15 46  1  0  0  0  0
 16 47  1  0  0  0  0
 16 48  1  0  0  0  0
 17 49  1  0  0  0  0
 17 50  1  0  0  0  0
 18 51  1  0  0  0  0
 18 52  1  0  0  0  0
 19 53  1  0  0  0  0
 19 54  1  0  0  0  0
 20 55  1  0  0  0  0
 20 56  1  0  0  0  0
 21 57  1  0  0  0  0
 21 58  1  0  0  0  0
 22 59  1  0  0  0  0
 23 60  1  0  0  0  0
 26 61  1  0  0  0  0
 26 62  1  0  0  0  0
 26 63  1  0  0  0  0
 27 64  1  0  0  0  0
 27 65  1  0  0  0  0
 27 66  1  0  0  0  0
M  END
> <idnumber>
Z237101756

> <heavy_atoms>
32

> <LogS>
-5.722

> <LogP>
4.481

> <rotating_bonds>
3

> <PSA>
49.33

> <hb_acceptors>
4

> <hb_donors>
0

> <Collection>
Advanced

> <link>
https://www.enaminestore.com/catalog/Z237101756

> <ROCS_ShapeQuery>
x0446_0A_x1080_0A_x0929_0A_x0812_0A_x0719_0A_x1140_0A_x0528_0A_x0310_0A

> <ROCS_TanimotoCombo>
0.464 

> <ROCS_ShapeTanimoto>
0.286 

> <ROCS_ColorTanimoto>
0.178 

> <ROCS_RefTversky>
0.260 

> <ROCS_RefColorTversky>
0.209 

> <ROCS_RefTverskyCombo>
0.469 

> <ROCS_FitTversky>
1.519 

> <ROCS_FitColorTversky>
0.548 

> <ROCS_FitTverskyCombo>
2.067 

> <ROCS_ColorScore>
-7.504

> <ROCS_Overlap>
3080.645

> <ROCS_Rank>
172                 

$$$$
untitled-dbase-1051688_145
  -OEChem-02092406493D

 46 48  0     1  0  0  0  0  0999 V2000
   12.3207   15.4054   22.2591 C   0  0  0  0  0  0  0  0  0  0  0  0
    6.4649   14.6998   21.4297 C   0  0  0  0  0  0  0  0  0  0  0  0
    6.7040   16.0600   21.5911 C   0  0  0  0  0  0  0  0  0  0  0  0
    7.5354   13.8217   21.3021 C   0  0  0  0  0  0  0  0  0  0  0  0
    8.0215   16.4881   21.6181 C   0  0  0  0  0  0  0  0  0  0  0  0
    8.1421   12.2837   24.4186 C   0  0  0  0  0  0  0  0  0  0  0  0
    9.3998   12.1369   23.8138 C   0  0  0  0  0  0  0  0  0  0  0  0
    7.5442   11.0542   24.2831 C   0  0  0  0  0  0  0  0  0  0  0  0
    8.8157   14.3501   21.3418 C   0  0  0  0  0  0  0  0  0  0  0  0
   10.4298   13.1255   23.6692 C   0  0  0  0  0  0  0  0  0  0  0  0
    7.4448   13.4068   25.0830 C   0  0  0  0  0  0  0  0  0  0  0  0
    6.2006   10.6847   24.7977 C   0  0  2  0  0  0  0  0  0  0  0  0
    6.2667   12.8393   25.9126 C   0  0  1  0  0  0  0  0  0  0  0  0
    5.3617    9.9284   23.7802 C   0  0  0  0  0  0  0  0  0  0  0  0
    5.3327   13.9531   26.3633 C   0  0  0  0  0  0  0  0  0  0  0  0
    8.3441    8.8513   23.3498 C   0  0  0  0  0  0  0  0  0  0  0  0
   12.2296   13.9531   22.1205 C   0  0  0  0  0  0  0  0  0  0  0  0
    9.9954   13.4313   21.2069 C   0  0  0  0  0  0  0  0  0  0  0  0
   12.3967   16.5581   22.3688 N   0  0  0  0  0  0  0  0  0  0  0  0
    9.0873   15.6653   21.4972 N   0  0  0  0  0  0  0  0  0  0  0  0
    9.5942   10.9004   23.3387 N   0  0  0  0  0  0  0  0  0  0  0  0
    8.4490   10.2597   23.6486 N   0  0  0  0  0  0  0  0  0  0  0  0
   10.8720   13.4918   22.3744 N   0  0  0  0  0  0  0  0  0  0  0  0
   10.8918   13.6393   24.7074 O   0  0  0  0  0  0  0  0  0  0  0  0
    5.4973   11.9126   25.1135 O   0  0  0  0  0  0  0  0  0  0  0  0
    5.4462   14.3249   21.4036 H   0  0  0  0  0  0  0  0  0  0  0  0
    5.8850   16.7627   21.6927 H   0  0  0  0  0  0  0  0  0  0  0  0
    7.3624   12.7584   21.1756 H   0  0  0  0  0  0  0  0  0  0  0  0
    8.2614   17.5390   21.7419 H   0  0  0  0  0  0  0  0  0  0  0  0
    8.1246   13.9745   25.7271 H   0  0  0  0  0  0  0  0  0  0  0  0
    7.0669   14.0829   24.3061 H   0  0  0  0  0  0  0  0  0  0  0  0
    6.2972   10.0959   25.7194 H   0  0  0  0  0  0  0  0  0  0  0  0
    6.6395   12.3073   26.7980 H   0  0  0  0  0  0  0  0  0  0  0  0
    5.2658   10.5133   22.8647 H   0  0  0  0  0  0  0  0  0  0  0  0
    4.3659    9.7384   24.1827 H   0  0  0  0  0  0  0  0  0  0  0  0
    5.8330    8.9743   23.5410 H   0  0  0  0  0  0  0  0  0  0  0  0
    4.9506   14.4950   25.4973 H   0  0  0  0  0  0  0  0  0  0  0  0
    5.8668   14.6517   27.0084 H   0  0  0  0  0  0  0  0  0  0  0  0
    4.4911   13.5351   26.9169 H   0  0  0  0  0  0  0  0  0  0  0  0
    7.8780    8.7491   22.3662 H   0  0  0  0  0  0  0  0  0  0  0  0
    9.3420    8.4041   23.3483 H   0  0  0  0  0  0  0  0  0  0  0  0
    7.7343    8.3639   24.1155 H   0  0  0  0  0  0  0  0  0  0  0  0
   12.5033   13.6356   21.1103 H   0  0  0  0  0  0  0  0  0  0  0  0
   12.8891   13.4472   22.8314 H   0  0  0  0  0  0  0  0  0  0  0  0
    9.6649   12.3938   21.0866 H   0  0  0  0  0  0  0  0  0  0  0  0
   10.5934   13.6863   20.3256 H   0  0  0  0  0  0  0  0  0  0  0  0
  1 17  1  0  0  0  0
  1 19  3  0  0  0  0
  2  3  1  0  0  0  0
  2  4  2  0  0  0  0
  3  5  2  0  0  0  0
  4  9  1  0  0  0  0
  5 20  1  0  0  0  0
  6  7  1  0  0  0  0
  6  8  2  0  0  0  0
  6 11  1  0  0  0  0
  7 10  1  0  0  0  0
  7 21  2  0  0  0  0
  8 12  1  0  0  0  0
  8 22  1  0  0  0  0
  9 18  1  0  0  0  0
  9 20  2  0  0  0  0
 10 23  1  0  0  0  0
 10 24  2  0  0  0  0
 11 13  1  0  0  0  0
 12 14  1  6  0  0  0
 12 25  1  0  0  0  0
 13 15  1  6  0  0  0
 13 25  1  0  0  0  0
 16 22  1  0  0  0  0
 17 23  1  0  0  0  0
 18 23  1  0  0  0  0
 21 22  1  0  0  0  0
  2 26  1  0  0  0  0
  3 27  1  0  0  0  0
  4 28  1  0  0  0  0
  5 29  1  0  0  0  0
 11 30  1  0  0  0  0
 11 31  1  0  0  0  0
 12 32  1  0  0  0  0
 13 33  1  0  0  0  0
 14 34  1  0  0  0  0
 14 35  1  0  0  0  0
 14 36  1  0  0  0  0
 15 37  1  0  0  0  0
 15 38  1  0  0  0  0
 15 39  1  0  0  0  0
 16 40  1  0  0  0  0
 16 41  1  0  0  0  0
 16 42  1  0  0  0  0
 17 43  1  0  0  0  0
 17 44  1  0  0  0  0
 18 45  1  0  0  0  0
 18 46  1  0  0  0  0
M  END
> <idnumber>
Z3687058140

> <heavy_atoms>
25

> <LogS>
-1.994

> <LogP>
-0.524

> <rotating_bonds>
4

> <PSA>
84.04

> <hb_acceptors>
5

> <hb_donors>
0

> <Collection>
Functional

> <link>
https://www.enaminestore.com/catalog/Z3687058140

> <ROCS_ShapeQuery>
x0446_0A_x1080_0A_x0929_0A_x0812_0A_x0719_0A_x1140_0A_x0528_0A_x0310_0A

> <ROCS_TanimotoCombo>
0.464 

> <ROCS_ShapeTanimoto>
0.274 

> <ROCS_ColorTanimoto>
0.189 

> <ROCS_RefTversky>
0.246 

> <ROCS_RefColorTversky>
0.201 

> <ROCS_RefTverskyCombo>
0.448 

> <ROCS_FitTversky>
1.714 

> <ROCS_FitColorTversky>
0.760 

> <ROCS_FitTverskyCombo>
2.474 

> <ROCS_ColorScore>
-7.198

> <ROCS_Overlap>
2909.985

> <ROCS_Rank>
173                 

$$$$
untitled-dbase-704806_25
  -OEChem-02092406493D

 50 55  0     0  0  0  0  0  0999 V2000
   13.1230   15.3101   21.9461 C   0  0  0  0  0  0  0  0  0  0  0  0
   11.4015    8.8262   22.6848 C   0  0  0  0  0  0  0  0  0  0  0  0
   12.1368   10.0010   22.6819 C   0  0  0  0  0  0  0  0  0  0  0  0
   12.5362   16.1064   22.9496 C   0  0  0  0  0  0  0  0  0  0  0  0
   12.3570   14.4008   21.2151 C   0  0  0  0  0  0  0  0  0  0  0  0
   10.0729    8.8482   23.1050 C   0  0  0  0  0  0  0  0  0  0  0  0
   11.5371   11.1880   23.0991 C   0  0  0  0  0  0  0  0  0  0  0  0
    5.2449   13.5579   25.5263 C   0  0  0  0  0  0  0  0  0  0  0  0
   11.1709   16.0096   23.2425 C   0  0  0  0  0  0  0  0  0  0  0  0
    4.0810   12.8163   25.7477 C   0  0  0  0  0  0  0  0  0  0  0  0
    5.1716   10.7751   25.0125 C   0  0  0  0  0  0  0  0  0  0  0  0
    6.3570   11.5009   24.7813 C   0  0  0  0  0  0  0  0  0  0  0  0
   11.0158   14.3267   21.5250 C   0  0  0  0  0  0  0  0  0  0  0  0
    9.4613   10.0257   23.5243 C   0  0  0  0  0  0  0  0  0  0  0  0
   10.2116   11.2254   23.5212 C   0  0  0  0  0  0  0  0  0  0  0  0
    7.6537   11.1643   24.3102 C   0  0  0  0  0  0  0  0  0  0  0  0
    6.3673   12.8756   25.0433 C   0  0  0  0  0  0  0  0  0  0  0  0
   10.4191   15.1064   22.5138 C   0  0  0  0  0  0  0  0  0  0  0  0
    4.0427   11.4465   25.4955 C   0  0  0  0  0  0  0  0  0  0  0  0
    8.4113   12.3181   24.2958 C   0  0  0  0  0  0  0  0  0  0  0  0
    9.9626   13.4917   20.9536 C   0  0  0  0  0  0  0  0  0  0  0  0
    8.6780   13.8449   21.6933 C   0  0  0  0  0  0  0  0  0  0  0  0
    2.9176    9.3519   25.4438 C   0  0  0  0  0  0  0  0  0  0  0  0
    8.0608   14.7208   24.8693 C   0  0  0  0  0  0  0  0  0  0  0  0
    8.1384   15.4521   23.5335 C   0  0  0  0  0  0  0  0  0  0  0  0
    8.1804    9.9823   23.9170 N   0  0  0  0  0  0  0  0  0  0  0  0
    9.6925   12.3987   23.9103 N   0  0  0  0  0  0  0  0  0  0  0  0
    7.6282   13.3455   24.7393 N   0  0  0  0  0  0  0  0  0  0  0  0
    9.0419   14.8200   22.6105 N   0  0  0  0  0  0  0  0  0  0  0  0
   10.0381   12.6714   20.0712 O   0  0  0  0  0  0  0  0  0  0  0  0
    7.6159   13.3166   21.4442 O   0  0  0  0  0  0  0  0  0  0  0  0
    2.8929   10.7504   25.7212 O   0  0  0  0  0  0  0  0  0  0  0  0
   14.1858   15.4073   21.7409 H   0  0  0  0  0  0  0  0  0  0  0  0
   11.8562    7.8943   22.3626 H   0  0  0  0  0  0  0  0  0  0  0  0
   13.1728    9.9984   22.3573 H   0  0  0  0  0  0  0  0  0  0  0  0
   13.1555   16.8066   23.5045 H   0  0  0  0  0  0  0  0  0  0  0  0
   12.8033   13.7862   20.4426 H   0  0  0  0  0  0  0  0  0  0  0  0
    9.5104    7.9163   23.1012 H   0  0  0  0  0  0  0  0  0  0  0  0
   12.1296   12.1012   23.0901 H   0  0  0  0  0  0  0  0  0  0  0  0
    5.2679   14.6242   25.7254 H   0  0  0  0  0  0  0  0  0  0  0  0
   10.7338   16.6295   24.0171 H   0  0  0  0  0  0  0  0  0  0  0  0
    3.1953   13.3233   26.1234 H   0  0  0  0  0  0  0  0  0  0  0  0
    5.1331    9.7066   24.8181 H   0  0  0  0  0  0  0  0  0  0  0  0
    1.9396    8.9182   25.6663 H   0  0  0  0  0  0  0  0  0  0  0  0
    3.6879    8.8722   26.0528 H   0  0  0  0  0  0  0  0  0  0  0  0
    3.1473    9.2034   24.3860 H   0  0  0  0  0  0  0  0  0  0  0  0
    9.0478   14.7021   25.3470 H   0  0  0  0  0  0  0  0  0  0  0  0
    7.3763   15.2274   25.5600 H   0  0  0  0  0  0  0  0  0  0  0  0
    7.1541   15.4635   23.0555 H   0  0  0  0  0  0  0  0  0  0  0  0
    8.4704   16.4875   23.6612 H   0  0  0  0  0  0  0  0  0  0  0  0
  1  4  1  0  0  0  0
  1  5  2  0  0  0  0
  2  3  1  0  0  0  0
  2  6  2  0  0  0  0
  3  7  2  0  0  0  0
  4  9  2  0  0  0  0
  5 13  1  0  0  0  0
  6 14  1  0  0  0  0
  7 15  1  0  0  0  0
  8 10  2  0  0  0  0
  8 17  1  0  0  0  0
  9 18  1  0  0  0  0
 10 19  1  0  0  0  0
 11 12  1  0  0  0  0
 11 19  2  0  0  0  0
 12 16  1  0  0  0  0
 12 17  2  0  0  0  0
 13 18  2  0  0  0  0
 13 21  1  0  0  0  0
 14 15  1  0  0  0  0
 14 26  2  0  0  0  0
 15 27  2  0  0  0  0
 16 20  2  0  0  0  0
 16 26  1  0  0  0  0
 17 28  1  0  0  0  0
 18 29  1  0  0  0  0
 19 32  1  0  0  0  0
 20 27  1  0  0  0  0
 20 28  1  0  0  0  0
 21 22  1  0  0  0  0
 21 30  2  0  0  0  0
 22 29  1  0  0  0  0
 22 31  2  0  0  0  0
 23 32  1  0  0  0  0
 24 25  1  0  0  0  0
 24 28  1  0  0  0  0
 25 29  1  0  0  0  0
  1 33  1  0  0  0  0
  2 34  1  0  0  0  0
  3 35  1  0  0  0  0
  4 36  1  0  0  0  0
  5 37  1  0  0  0  0
  6 38  1  0  0  0  0
  7 39  1  0  0  0  0
  8 40  1  0  0  0  0
  9 41  1  0  0  0  0
 10 42  1  0  0  0  0
 11 43  1  0  0  0  0
 23 44  1  0  0  0  0
 23 45  1  0  0  0  0
 23 46  1  0  0  0  0
 24 47  1  0  0  0  0
 24 48  1  0  0  0  0
 25 49  1  0  0  0  0
 25 50  1  0  0  0  0
M  END
> <idnumber>
Z324552638

> <heavy_atoms>
32

> <LogS>
-6.36

> <LogP>
3.945

> <rotating_bonds>
4

> <PSA>
77.32

> <hb_acceptors>
5

> <hb_donors>
0

> <Collection>
Legacy

> <link>
https://www.enaminestore.com/catalog/Z324552638

> <ROCS_ShapeQuery>
x0446_0A_x1080_0A_x0929_0A_x0812_0A_x0719_0A_x1140_0A_x0528_0A_x0310_0A

> <ROCS_TanimotoCombo>
0.464 

> <ROCS_ShapeTanimoto>
0.300 

> <ROCS_ColorTanimoto>
0.164 

> <ROCS_RefTversky>
0.272 

> <ROCS_RefColorTversky>
0.189 

> <ROCS_RefTverskyCombo>
0.461 

> <ROCS_FitTversky>
1.540 

> <ROCS_FitColorTversky>
0.548 

> <ROCS_FitTverskyCombo>
2.088 

> <ROCS_ColorScore>
-6.783

> <ROCS_Overlap>
3215.498

> <ROCS_Rank>
174                 

$$$$
untitled-dbase-217432_89
  -OEChem-02092406493D

 56 61  0     1  0  0  0  0  0999 V2000
   12.3324   16.0847   22.0551 C   0  0  0  0  0  0  0  0  0  0  0  0
    2.1667   11.8064   17.6958 C   0  0  0  0  0  0  0  0  0  0  0  0
   11.2259   15.7039   21.2960 C   0  0  0  0  0  0  0  0  0  0  0  0
   12.6917   15.3469   23.1830 C   0  0  0  0  0  0  0  0  0  0  0  0
    1.7385   13.1098   17.4537 C   0  0  0  0  0  0  0  0  0  0  0  0
    2.7888   11.4926   18.9024 C   0  0  0  0  0  0  0  0  0  0  0  0
   10.4786   14.5854   21.6649 C   0  0  0  0  0  0  0  0  0  0  0  0
   11.9445   14.2284   23.5519 C   0  0  0  0  0  0  0  0  0  0  0  0
    1.9324   14.0997   18.4196 C   0  0  0  0  0  0  0  0  0  0  0  0
    2.9760   12.4944   19.8597 C   0  0  0  0  0  0  0  0  0  0  0  0
   10.8379   13.8476   22.7929 C   0  0  0  0  0  0  0  0  0  0  0  0
    2.5556   13.7985   19.6366 C   0  0  0  0  0  0  0  0  0  0  0  0
    3.6224   12.2200   21.1430 C   0  0  0  0  0  0  0  0  0  0  0  0
    6.2926   12.2494   24.2368 C   0  0  0  0  0  0  0  0  0  0  0  0
    9.7548    9.7057   23.8464 C   0  0  0  0  0  0  0  0  0  0  0  0
    9.9698   11.4993   22.1106 C   0  0  0  0  0  0  0  0  0  0  0  0
   10.6121   11.9748   24.4879 C   0  0  0  0  0  0  0  0  0  0  0  0
    7.6993   10.7479   22.8584 C   0  0  0  0  0  0  0  0  0  0  0  0
    8.3361   11.2327   25.2374 C   0  0  0  0  0  0  0  0  0  0  0  0
    8.5417   13.0286   23.4921 C   0  0  0  0  0  0  0  0  0  0  0  0
    9.1360   10.2908   22.5694 C   0  0  2  0  0  0  0  0  0  0  0  0
    9.7741   10.7705   24.9516 C   0  0  1  0  0  0  0  0  0  0  0  0
   10.0148   12.6151   23.2001 C   0  0  0  0  0  0  0  0  0  0  0  0
    7.7057   11.8201   23.9605 C   0  0  0  0  0  0  0  0  0  0  0  0
    4.3535   13.2054   23.2951 C   0  0  0  0  0  0  0  0  0  0  0  0
    2.7296   14.8181   20.5780 N   0  0  0  0  0  0  0  0  0  0  0  0
    3.2842   14.5676   21.6694 N   0  0  0  0  0  0  0  0  0  0  0  0
    3.7431   13.3137   22.0031 N   0  0  0  0  0  0  0  0  0  0  0  0
    4.0138   11.0843   21.3941 O   0  0  0  0  0  0  0  0  0  0  0  0
    5.7889   12.1210   25.3435 O   0  0  0  0  0  0  0  0  0  0  0  0
    5.7042   12.7698   23.1251 O   0  0  0  0  0  0  0  0  0  0  0  0
   12.9149   16.9549   21.7669 H   0  0  0  0  0  0  0  0  0  0  0  0
    2.0161   11.0363   16.9450 H   0  0  0  0  0  0  0  0  0  0  0  0
   10.9465   16.2776   20.4171 H   0  0  0  0  0  0  0  0  0  0  0  0
   13.5538   15.6425   23.7736 H   0  0  0  0  0  0  0  0  0  0  0  0
    1.2534   13.3568   16.5138 H   0  0  0  0  0  0  0  0  0  0  0  0
    3.1181   10.4727   19.0787 H   0  0  0  0  0  0  0  0  0  0  0  0
    9.6179   14.2962   21.0677 H   0  0  0  0  0  0  0  0  0  0  0  0
   12.2318   13.6596   24.4323 H   0  0  0  0  0  0  0  0  0  0  0  0
    1.5921   15.1123   18.2156 H   0  0  0  0  0  0  0  0  0  0  0  0
    9.1790    8.8324   24.1764 H   0  0  0  0  0  0  0  0  0  0  0  0
   10.7747    9.3565   23.6437 H   0  0  0  0  0  0  0  0  0  0  0  0
   10.9899   11.1714   21.8685 H   0  0  0  0  0  0  0  0  0  0  0  0
    9.5506   11.9027   21.1787 H   0  0  0  0  0  0  0  0  0  0  0  0
   10.6567   12.7227   25.2911 H   0  0  0  0  0  0  0  0  0  0  0  0
   11.6477   11.6570   24.3066 H   0  0  0  0  0  0  0  0  0  0  0  0
    7.2398   11.1422   21.9424 H   0  0  0  0  0  0  0  0  0  0  0  0
    7.0868    9.8887   23.1626 H   0  0  0  0  0  0  0  0  0  0  0  0
    7.7406   10.3863   25.6045 H   0  0  0  0  0  0  0  0  0  0  0  0
    8.3349   11.9793   26.0424 H   0  0  0  0  0  0  0  0  0  0  0  0
    8.5196   13.8185   24.2565 H   0  0  0  0  0  0  0  0  0  0  0  0
    8.0924   13.4755   22.5937 H   0  0  0  0  0  0  0  0  0  0  0  0
    9.1283    9.5291   21.7817 H   0  0  0  0  0  0  0  0  0  0  0  0
   10.2125   10.3477   25.8626 H   0  0  0  0  0  0  0  0  0  0  0  0
    4.3254   14.1918   23.7678 H   0  0  0  0  0  0  0  0  0  0  0  0
    3.7848   12.4737   23.8768 H   0  0  0  0  0  0  0  0  0  0  0  0
  1  3  1  0  0  0  0
  1  4  2  0  0  0  0
  2  5  1  0  0  0  0
  2  6  2  0  0  0  0
  3  7  2  0  0  0  0
  4  8  1  0  0  0  0
  5  9  2  0  0  0  0
  6 10  1  0  0  0  0
  7 11  1  0  0  0  0
  8 11  2  0  0  0  0
  9 12  1  0  0  0  0
 10 12  2  0  0  0  0
 10 13  1  0  0  0  0
 11 23  1  0  0  0  0
 12 26  1  0  0  0  0
 13 28  1  0  0  0  0
 13 29  2  0  0  0  0
 14 24  1  0  0  0  0
 14 30  2  0  0  0  0
 14 31  1  0  0  0  0
 15 21  1  0  0  0  0
 15 22  1  0  0  0  0
 16 21  1  0  0  0  0
 16 23  1  0  0  0  0
 17 22  1  0  0  0  0
 17 23  1  0  0  0  0
 18 21  1  0  0  0  0
 18 24  1  0  0  0  0
 19 22  1  0  0  0  0
 19 24  1  0  0  0  0
 20 23  1  0  0  0  0
 20 24  1  0  0  0  0
 25 28  1  0  0  0  0
 25 31  1  0  0  0  0
 26 27  2  0  0  0  0
 27 28  1  0  0  0  0
  1 32  1  0  0  0  0
  2 33  1  0  0  0  0
  3 34  1  0  0  0  0
  4 35  1  0  0  0  0
  5 36  1  0  0  0  0
  6 37  1  0  0  0  0
  7 38  1  0  0  0  0
  8 39  1  0  0  0  0
  9 40  1  0  0  0  0
 15 41  1  0  0  0  0
 15 42  1  0  0  0  0
 16 43  1  0  0  0  0
 16 44  1  0  0  0  0
 17 45  1  0  0  0  0
 17 46  1  0  0  0  0
 18 47  1  0  0  0  0
 18 48  1  0  0  0  0
 19 49  1  0  0  0  0
 19 50  1  0  0  0  0
 20 51  1  0  0  0  0
 20 52  1  0  0  0  0
 21 53  1  0  0  0  0
 22 54  1  0  0  0  0
 25 55  1  0  0  0  0
 25 56  1  0  0  0  0
M  END
> <idnumber>
Z19595363

> <heavy_atoms>
31

> <LogS>
-6.26

> <LogP>
5.076

> <rotating_bonds>
5

> <PSA>
71.33

> <hb_acceptors>
4

> <hb_donors>
0

> <Collection>
Legacy

> <link>
https://www.enaminestore.com/catalog/Z19595363

> <ROCS_ShapeQuery>
x0446_0A_x1080_0A_x0929_0A_x0812_0A_x0719_0A_x1140_0A_x0528_0A_x0310_0A

> <ROCS_TanimotoCombo>
0.464 

> <ROCS_ShapeTanimoto>
0.283 

> <ROCS_ColorTanimoto>
0.181 

> <ROCS_RefTversky>
0.258 

> <ROCS_RefColorTversky>
0.217 

> <ROCS_RefTverskyCombo>
0.475 

> <ROCS_FitTversky>
1.523 

> <ROCS_FitColorTversky>
0.519 

> <ROCS_FitTverskyCombo>
2.042 

> <ROCS_ColorScore>
-7.812

> <ROCS_Overlap>
3053.043

> <ROCS_Rank>
175                 

$$$$
untitled-dbase-512131_120
  -OEChem-02092406493D

 43 46  0     0  0  0  0  0  0999 V2000
    5.7939   12.9553   25.4940 C   0  0  0  0  0  0  0  0  0  0  0  0
    5.5446   11.5913   25.5969 C   0  0  0  0  0  0  0  0  0  0  0  0
    6.9686   13.3950   24.8917 C   0  0  0  0  0  0  0  0  0  0  0  0
   13.0163   14.2862   22.9555 C   0  0  0  0  0  0  0  0  0  0  0  0
    6.4698   10.6700   25.0972 C   0  0  0  0  0  0  0  0  0  0  0  0
   11.7995   13.9934   23.5714 C   0  0  0  0  0  0  0  0  0  0  0  0
   11.9353    9.5225   23.3313 C   0  0  0  0  0  0  0  0  0  0  0  0
   11.8482   15.5050   21.2273 C   0  0  0  0  0  0  0  0  0  0  0  0
   12.5457    8.5008   22.6376 C   0  0  0  0  0  0  0  0  0  0  0  0
   10.2046    8.8137   21.9512 C   0  0  0  0  0  0  0  0  0  0  0  0
    7.8939   12.4623   24.3918 C   0  0  0  0  0  0  0  0  0  0  0  0
   10.5791    9.7037   22.9338 C   0  0  0  0  0  0  0  0  0  0  0  0
   13.0406   15.0421   21.7835 C   0  0  0  0  0  0  0  0  0  0  0  0
    7.6533   11.0820   24.4896 C   0  0  0  0  0  0  0  0  0  0  0  0
   10.6071   14.4563   23.0152 C   0  0  0  0  0  0  0  0  0  0  0  0
   10.6314   15.2122   21.8431 C   0  0  0  0  0  0  0  0  0  0  0  0
    9.0865   12.8353   23.7785 C   0  0  0  0  0  0  0  0  0  0  0  0
    9.6504   10.6693   23.4421 C   0  0  0  0  0  0  0  0  0  0  0  0
   14.3095   15.3491   21.1426 C   0  0  0  0  0  0  0  0  0  0  0  0
   14.3099   15.5188   19.6511 C   0  0  0  0  0  0  0  0  0  0  0  0
    8.8283   14.8273   20.3409 C   0  0  0  0  0  0  0  0  0  0  0  0
    8.5313   10.1813   24.0146 N   0  0  0  0  0  0  0  0  0  0  0  0
    9.9872   11.9605   23.2925 N   0  0  0  0  0  0  0  0  0  0  0  0
   15.3856   15.4758   21.7306 O   0  0  0  0  0  0  0  0  0  0  0  0
    9.4097   14.1598   23.6344 O   0  0  0  0  0  0  0  0  0  0  0  0
    9.4739   15.6722   21.2914 O   0  0  0  0  0  0  0  0  0  0  0  0
   11.4853    7.7651   21.5122 S   0  0  0  0  0  0  0  0  0  0  0  0
    5.0768   13.6719   25.8822 H   0  0  0  0  0  0  0  0  0  0  0  0
    4.6310   11.2396   26.0674 H   0  0  0  0  0  0  0  0  0  0  0  0
    7.1503   14.4645   24.8200 H   0  0  0  0  0  0  0  0  0  0  0  0
   13.9393   13.9203   23.3979 H   0  0  0  0  0  0  0  0  0  0  0  0
    6.2513    9.6078   25.1903 H   0  0  0  0  0  0  0  0  0  0  0  0
   11.7872   13.4038   24.4841 H   0  0  0  0  0  0  0  0  0  0  0  0
   12.4436   10.1085   24.0870 H   0  0  0  0  0  0  0  0  0  0  0  0
   11.8639   16.0967   20.3148 H   0  0  0  0  0  0  0  0  0  0  0  0
   13.5637    8.1515   22.7374 H   0  0  0  0  0  0  0  0  0  0  0  0
    9.2439    8.7205   21.4625 H   0  0  0  0  0  0  0  0  0  0  0  0
   14.1285   16.5533   19.3191 H   0  0  0  0  0  0  0  0  0  0  0  0
   13.5761   14.8751   19.1417 H   0  0  0  0  0  0  0  0  0  0  0  0
   15.2762   15.2588   19.1833 H   0  0  0  0  0  0  0  0  0  0  0  0
    7.9185   15.3127   19.9795 H   0  0  0  0  0  0  0  0  0  0  0  0
    8.5823   13.8712   20.8099 H   0  0  0  0  0  0  0  0  0  0  0  0
    9.5052   14.6553   19.5007 H   0  0  0  0  0  0  0  0  0  0  0  0
  1  2  1  0  0  0  0
  1  3  2  0  0  0  0
  2  5  2  0  0  0  0
  3 11  1  0  0  0  0
  4  6  2  0  0  0  0
  4 13  1  0  0  0  0
  5 14  1  0  0  0  0
  6 15  1  0  0  0  0
  7  9  2  0  0  0  0
  7 12  1  0  0  0  0
  8 13  2  0  0  0  0
  8 16  1  0  0  0  0
  9 27  1  0  0  0  0
 10 12  2  0  0  0  0
 10 27  1  0  0  0  0
 11 14  1  0  0  0  0
 11 17  2  0  0  0  0
 12 18  1  0  0  0  0
 13 19  1  0  0  0  0
 14 22  2  0  0  0  0
 15 16  2  0  0  0  0
 15 25  1  0  0  0  0
 16 26  1  0  0  0  0
 17 23  1  0  0  0  0
 17 25  1  0  0  0  0
 18 22  1  0  0  0  0
 18 23  2  0  0  0  0
 19 20  1  0  0  0  0
 19 24  2  0  0  0  0
 21 26  1  0  0  0  0
  1 28  1  0  0  0  0
  2 29  1  0  0  0  0
  3 30  1  0  0  0  0
  4 31  1  0  0  0  0
  5 32  1  0  0  0  0
  6 33  1  0  0  0  0
  7 34  1  0  0  0  0
  8 35  1  0  0  0  0
  9 36  1  0  0  0  0
 10 37  1  0  0  0  0
 20 38  1  0  0  0  0
 20 39  1  0  0  0  0
 20 40  1  0  0  0  0
 21 41  1  0  0  0  0
 21 42  1  0  0  0  0
 21 43  1  0  0  0  0
M  END
> <idnumber>
Z86302415

> <heavy_atoms>
27

> <LogS>
-6.61

> <LogP>
4.268

> <rotating_bonds>
5

> <PSA>
61.31

> <hb_acceptors>
4

> <hb_donors>
0

> <Collection>
Legacy

> <link>
https://www.enaminestore.com/catalog/Z86302415

> <ROCS_ShapeQuery>
x0446_0A_x1080_0A_x0929_0A_x0812_0A_x0719_0A_x1140_0A_x0528_0A_x0310_0A

> <ROCS_TanimotoCombo>
0.464 

> <ROCS_ShapeTanimoto>
0.271 

> <ROCS_ColorTanimoto>
0.193 

> <ROCS_RefTversky>
0.246 

> <ROCS_RefColorTversky>
0.209 

> <ROCS_RefTverskyCombo>
0.454 

> <ROCS_FitTversky>
1.606 

> <ROCS_FitColorTversky>
0.715 

> <ROCS_FitTverskyCombo>
2.322 

> <ROCS_ColorScore>
-7.462

> <ROCS_Overlap>
2907.365

> <ROCS_Rank>
176                 

$$$$
untitled-dbase-291226_88
  -OEChem-02092406493D

 42 46  0     0  0  0  0  0  0999 V2000
   12.1143    6.6894   22.9873 C   0  0  0  0  0  0  0  0  0  0  0  0
   13.2957   15.3530   22.7312 C   0  0  0  0  0  0  0  0  0  0  0  0
   12.9117   14.0621   23.0963 C   0  0  0  0  0  0  0  0  0  0  0  0
   12.6090    7.9089   22.5251 C   0  0  0  0  0  0  0  0  0  0  0  0
   10.8125    6.6070   23.4817 C   0  0  0  0  0  0  0  0  0  0  0  0
    5.8917   13.7756   25.4865 C   0  0  0  0  0  0  0  0  0  0  0  0
    6.9415   13.3072   24.7042 C   0  0  0  0  0  0  0  0  0  0  0  0
   12.3934   16.2205   22.1064 C   0  0  0  0  0  0  0  0  0  0  0  0
   11.6162   13.5926   22.8513 C   0  0  0  0  0  0  0  0  0  0  0  0
   11.8020    9.0462   22.5575 C   0  0  0  0  0  0  0  0  0  0  0  0
   10.0056    7.7443   23.5140 C   0  0  0  0  0  0  0  0  0  0  0  0
    5.0588   12.8414   26.0809 C   0  0  0  0  0  0  0  0  0  0  0  0
    6.2358   11.0863   25.1795 C   0  0  0  0  0  0  0  0  0  0  0  0
    9.7627   11.1483   22.2137 C   0  0  0  0  0  0  0  0  0  0  0  0
    7.1237   11.9382   24.5426 C   0  0  0  0  0  0  0  0  0  0  0  0
    8.7936   12.0341   22.6168 C   0  0  0  0  0  0  0  0  0  0  0  0
   11.0909   15.7622   21.8556 C   0  0  0  0  0  0  0  0  0  0  0  0
   10.7250   14.4725   22.2273 C   0  0  0  0  0  0  0  0  0  0  0  0
   10.5002    8.9639   23.0519 C   0  0  0  0  0  0  0  0  0  0  0  0
    8.2017   11.4221   23.7379 C   0  0  0  0  0  0  0  0  0  0  0  0
    8.4931   13.3288   21.9679 C   0  0  0  0  0  0  0  0  0  0  0  0
    5.2043   11.5040   25.9471 N   0  0  0  0  0  0  0  0  0  0  0  0
   10.0292   16.3897   21.2717 N   0  0  0  0  0  0  0  0  0  0  0  0
    8.7490   10.2388   24.0284 N   0  0  0  0  0  0  0  0  0  0  0  0
    9.0067   15.5468   21.2642 N   0  0  0  0  0  0  0  0  0  0  0  0
    9.6948   10.1002   23.0838 N   0  0  0  0  0  0  0  0  0  0  0  0
    9.4047   14.3815   21.8257 N   0  0  0  0  0  0  0  0  0  0  0  0
    7.3691   13.4956   21.5062 O   0  0  0  0  0  0  0  0  0  0  0  0
   12.7415    5.8032   22.9607 H   0  0  0  0  0  0  0  0  0  0  0  0
   14.3089   15.6898   22.9341 H   0  0  0  0  0  0  0  0  0  0  0  0
   13.6323   13.4072   23.5801 H   0  0  0  0  0  0  0  0  0  0  0  0
   13.6220    7.9729   22.1389 H   0  0  0  0  0  0  0  0  0  0  0  0
   10.4276    5.6566   23.8400 H   0  0  0  0  0  0  0  0  0  0  0  0
    5.7303   14.8384   25.6258 H   0  0  0  0  0  0  0  0  0  0  0  0
    7.6088   14.0208   24.2274 H   0  0  0  0  0  0  0  0  0  0  0  0
   12.6988   17.2232   21.8251 H   0  0  0  0  0  0  0  0  0  0  0  0
   11.3311   12.5874   23.1391 H   0  0  0  0  0  0  0  0  0  0  0  0
   12.1996    9.9904   22.1934 H   0  0  0  0  0  0  0  0  0  0  0  0
    8.9925    7.6659   23.9013 H   0  0  0  0  0  0  0  0  0  0  0  0
    4.2255   13.1561   26.7002 H   0  0  0  0  0  0  0  0  0  0  0  0
    6.3230   10.0068   25.0932 H   0  0  0  0  0  0  0  0  0  0  0  0
   10.4759   11.1779   21.4000 H   0  0  0  0  0  0  0  0  0  0  0  0
  1  4  1  0  0  0  0
  1  5  2  0  0  0  0
  2  3  1  0  0  0  0
  2  8  2  0  0  0  0
  3  9  2  0  0  0  0
  4 10  2  0  0  0  0
  5 11  1  0  0  0  0
  6  7  2  0  0  0  0
  6 12  1  0  0  0  0
  7 15  1  0  0  0  0
  8 17  1  0  0  0  0
  9 18  1  0  0  0  0
 10 19  1  0  0  0  0
 11 19  2  0  0  0  0
 12 22  2  0  0  0  0
 13 15  2  0  0  0  0
 13 22  1  0  0  0  0
 14 16  2  0  0  0  0
 14 26  1  0  0  0  0
 15 20  1  0  0  0  0
 16 20  1  0  0  0  0
 16 21  1  0  0  0  0
 17 18  2  0  0  0  0
 17 23  1  0  0  0  0
 18 27  1  0  0  0  0
 19 26  1  0  0  0  0
 20 24  2  0  0  0  0
 21 27  1  0  0  0  0
 21 28  2  0  0  0  0
 23 25  2  0  0  0  0
 24 26  1  0  0  0  0
 25 27  1  0  0  0  0
  1 29  1  0  0  0  0
  2 30  1  0  0  0  0
  3 31  1  0  0  0  0
  4 32  1  0  0  0  0
  5 33  1  0  0  0  0
  6 34  1  0  0  0  0
  7 35  1  0  0  0  0
  8 36  1  0  0  0  0
  9 37  1  0  0  0  0
 10 38  1  0  0  0  0
 11 39  1  0  0  0  0
 12 40  1  0  0  0  0
 13 41  1  0  0  0  0
 14 42  1  0  0  0  0
M  END
> <idnumber>
Z28178192

> <heavy_atoms>
28

> <LogS>
-4.28

> <LogP>
4.601

> <rotating_bonds>
3

> <PSA>
78.49

> <hb_acceptors>
5

> <hb_donors>
0

> <Collection>
Legacy

> <link>
https://www.enaminestore.com/catalog/Z28178192

> <ROCS_ShapeQuery>
x0446_0A_x1080_0A_x0929_0A_x0812_0A_x0719_0A_x1140_0A_x0528_0A_x0310_0A

> <ROCS_TanimotoCombo>
0.464 

> <ROCS_ShapeTanimoto>
0.266 

> <ROCS_ColorTanimoto>
0.198 

> <ROCS_RefTversky>
0.244 

> <ROCS_RefColorTversky>
0.219 

> <ROCS_RefTverskyCombo>
0.463 

> <ROCS_FitTversky>
1.519 

> <ROCS_FitColorTversky>
0.671 

> <ROCS_FitTverskyCombo>
2.189 

> <ROCS_ColorScore>
-7.852

> <ROCS_Overlap>
2882.530

> <ROCS_Rank>
177                 

$$$$
untitled-dbase-235780_105
  -OEChem-02092406493D

 48 50  0     1  0  0  0  0  0999 V2000
   13.0984   15.5183   21.9174 C   0  0  0  0  0  0  0  0  0  0  0  0
   13.0885   14.1327   22.0774 C   0  0  0  0  0  0  0  0  0  0  0  0
   11.9046   16.2024   21.6876 C   0  0  0  0  0  0  0  0  0  0  0  0
   10.6912   14.1152   21.7777 C   0  0  0  0  0  0  0  0  0  0  0  0
    6.0297   11.3081   24.5256 C   0  0  0  0  0  0  0  0  0  0  0  0
    7.3444   11.0656   24.1063 C   0  0  0  0  0  0  0  0  0  0  0  0
   11.8850   13.4311   22.0075 C   0  0  0  0  0  0  0  0  0  0  0  0
   10.7011   15.5008   21.6178 C   0  0  0  0  0  0  0  0  0  0  0  0
    8.0652   12.1520   24.5385 C   0  0  0  0  0  0  0  0  0  0  0  0
    8.0220   10.0194   23.3899 C   0  0  0  0  0  0  0  0  0  0  0  0
   10.0278   11.4683   23.7378 C   0  0  0  0  0  0  0  0  0  0  0  0
    8.0028   15.2233   24.7596 C   0  0  0  0  0  0  0  0  0  0  0  0
    8.4697   14.0420   26.9428 C   0  0  0  0  0  0  0  0  0  0  0  0
    6.1951   14.8996   26.4330 C   0  0  0  0  0  0  0  0  0  0  0  0
   12.3469   11.0055   24.4211 C   0  0  0  0  0  0  0  0  0  0  0  0
    9.6187   17.5845   21.2405 C   0  0  0  0  0  0  0  0  0  0  0  0
   11.8746   11.9396   22.1793 C   0  0  0  0  0  0  0  0  0  0  0  0
    7.4431   14.2319   25.8039 C   0  0  0  0  0  0  0  0  0  0  0  0
    5.9166   12.4704   25.1810 N   0  0  0  0  0  0  0  0  0  0  0  0
    9.3845   12.4109   24.3903 N   0  0  0  0  0  0  0  0  0  0  0  0
    7.1731   12.9613   25.1736 N   0  0  0  0  0  0  0  0  0  0  0  0
    9.3860   10.3082   23.2484 N   0  0  0  0  0  0  0  0  0  0  0  0
   11.3729   11.5458   23.4862 N   0  0  3  0  0  0  0  0  0  0  0  0
    7.4662    9.0136   22.9658 O   0  0  0  0  0  0  0  0  0  0  0  0
    9.5361   16.1685   21.3941 O   0  0  0  0  0  0  0  0  0  0  0  0
   14.0353   16.0645   21.9723 H   0  0  0  0  0  0  0  0  0  0  0  0
   14.0236   13.6084   22.2556 H   0  0  0  0  0  0  0  0  0  0  0  0
   11.9190   17.2816   21.5638 H   0  0  0  0  0  0  0  0  0  0  0  0
    9.7514   13.5708   21.7225 H   0  0  0  0  0  0  0  0  0  0  0  0
    5.1481   10.6990   24.3876 H   0  0  0  0  0  0  0  0  0  0  0  0
    7.2923   15.3761   23.9391 H   0  0  0  0  0  0  0  0  0  0  0  0
    8.2086   16.2086   25.1913 H   0  0  0  0  0  0  0  0  0  0  0  0
    8.9391   14.8512   24.3277 H   0  0  0  0  0  0  0  0  0  0  0  0
    8.1151   13.3449   27.7094 H   0  0  0  0  0  0  0  0  0  0  0  0
    9.4154   13.6411   26.5599 H   0  0  0  0  0  0  0  0  0  0  0  0
    8.6861   14.9951   27.4393 H   0  0  0  0  0  0  0  0  0  0  0  0
    5.7401   14.2493   27.1900 H   0  0  0  0  0  0  0  0  0  0  0  0
    6.4493   15.8418   26.9322 H   0  0  0  0  0  0  0  0  0  0  0  0
    5.4241   15.1038   25.6810 H   0  0  0  0  0  0  0  0  0  0  0  0
   12.5542    9.9550   24.1691 H   0  0  0  0  0  0  0  0  0  0  0  0
   13.2778   11.5881   24.3581 H   0  0  0  0  0  0  0  0  0  0  0  0
   11.9456   11.0649   25.4436 H   0  0  0  0  0  0  0  0  0  0  0  0
    8.6195   17.9919   21.0678 H   0  0  0  0  0  0  0  0  0  0  0  0
   10.2717   17.8229   20.3972 H   0  0  0  0  0  0  0  0  0  0  0  0
   10.0334   18.0176   22.1538 H   0  0  0  0  0  0  0  0  0  0  0  0
   11.2425   11.4679   21.4191 H   0  0  0  0  0  0  0  0  0  0  0  0
   12.8818   11.5243   22.0682 H   0  0  0  0  0  0  0  0  0  0  0  0
    9.9584    9.6292   22.7549 H   0  0  0  0  0  0  0  0  0  0  0  0
  1  2  1  0  0  0  0
  1  3  2  0  0  0  0
  2  7  2  0  0  0  0
  3  8  1  0  0  0  0
  4  7  1  0  0  0  0
  4  8  2  0  0  0  0
  5  6  1  0  0  0  0
  5 19  2  0  0  0  0
  6  9  2  0  0  0  0
  6 10  1  0  0  0  0
  7 17  1  0  0  0  0
  8 25  1  0  0  0  0
  9 20  1  0  0  0  0
  9 21  1  0  0  0  0
 10 22  1  0  0  0  0
 10 24  2  0  0  0  0
 11 20  2  0  0  0  0
 11 22  1  0  0  0  0
 11 23  1  0  0  0  0
 12 18  1  0  0  0  0
 13 18  1  0  0  0  0
 14 18  1  0  0  0  0
 15 23  1  0  0  0  0
 16 25  1  0  0  0  0
 17 23  1  0  0  0  0
 18 21  1  0  0  0  0
 19 21  1  0  0  0  0
  1 26  1  0  0  0  0
  2 27  1  0  0  0  0
  3 28  1  0  0  0  0
  4 29  1  0  0  0  0
  5 30  1  0  0  0  0
 12 31  1  0  0  0  0
 12 32  1  0  0  0  0
 12 33  1  0  0  0  0
 13 34  1  0  0  0  0
 13 35  1  0  0  0  0
 13 36  1  0  0  0  0
 14 37  1  0  0  0  0
 14 38  1  0  0  0  0
 14 39  1  0  0  0  0
 15 40  1  0  0  0  0
 15 41  1  0  0  0  0
 15 42  1  0  0  0  0
 16 43  1  0  0  0  0
 16 44  1  0  0  0  0
 16 45  1  0  0  0  0
 17 46  1  0  0  0  0
 17 47  1  0  0  0  0
 22 48  1  0  0  0  0
M  END
> <idnumber>
Z991899372

> <heavy_atoms>
25

> <LogS>
-4.17

> <LogP>
2.54

> <rotating_bonds>
5

> <PSA>
71.75

> <hb_acceptors>
5

> <hb_donors>
1

> <Collection>
Legacy

> <link>
https://www.enaminestore.com/catalog/Z991899372

> <ROCS_ShapeQuery>
x0446_0A_x1080_0A_x0929_0A_x0812_0A_x0719_0A_x1140_0A_x0528_0A_x0310_0A

> <ROCS_TanimotoCombo>
0.464 

> <ROCS_ShapeTanimoto>
0.251 

> <ROCS_ColorTanimoto>
0.212 

> <ROCS_RefTversky>
0.230 

> <ROCS_RefColorTversky>
0.226 

> <ROCS_RefTverskyCombo>
0.456 

> <ROCS_FitTversky>
1.587 

> <ROCS_FitColorTversky>
0.775 

> <ROCS_FitTverskyCombo>
2.363 

> <ROCS_ColorScore>
-8.087

> <ROCS_Overlap>
2718.952

> <ROCS_Rank>
178                 

$$$$
untitled-dbase-1049561_39
  -OEChem-02092406493D

 56 59  0     1  0  0  0  0  0999 V2000
   10.8489   13.9888   22.1020 C   0  0  0  0  0  0  0  0  0  0  0  0
   12.0895   13.7863   22.5792 C   0  0  0  0  0  0  0  0  0  0  0  0
   12.8864   15.0239   22.8348 C   0  0  0  0  0  0  0  0  0  0  0  0
   10.3612   15.3725   21.8520 C   0  0  0  0  0  0  0  0  0  0  0  0
    9.9513   12.8375   21.8467 C   0  0  0  0  0  0  0  0  0  0  0  0
    5.9671   10.9912   24.6059 C   0  0  0  0  0  0  0  0  0  0  0  0
   12.6946   12.4396   22.8836 C   0  0  0  0  0  0  0  0  0  0  0  0
   14.3182   14.8991   23.3322 C   0  0  0  0  0  0  0  0  0  0  0  0
   14.2089   12.4353   23.0601 C   0  0  0  0  0  0  0  0  0  0  0  0
   14.6381   13.5650   23.9770 C   0  0  0  0  0  0  0  0  0  0  0  0
   10.0009   10.2325   24.3380 C   0  0  0  0  0  0  0  0  0  0  0  0
   10.0282   11.5267   25.1748 C   0  0  0  0  0  0  0  0  0  0  0  0
    7.8386   10.5090   23.0543 C   0  0  0  0  0  0  0  0  0  0  0  0
    7.8752   12.6340   24.4399 C   0  0  0  0  0  0  0  0  0  0  0  0
    9.3689   10.6431   23.0012 C   0  0  1  0  0  0  0  0  0  0  0  0
    9.4030   12.5920   24.2661 C   0  0  2  0  0  0  0  0  0  0  0  0
    3.1694   10.5421   24.2114 C   0  0  0  0  0  0  0  0  0  0  0  0
    3.8120    8.1711   23.6875 C   0  0  0  0  0  0  0  0  0  0  0  0
    4.2762    9.1181   25.9670 C   0  0  0  0  0  0  0  0  0  0  0  0
    4.1810    9.4273   24.4736 C   0  0  0  0  0  0  0  0  0  0  0  0
   12.4750   16.2338   22.6288 N   0  0  0  0  0  0  0  0  0  0  0  0
   11.2275   16.3915   22.1498 N   0  0  0  0  0  0  0  0  0  0  0  0
    9.6658   12.0642   22.9432 N   0  0  0  0  0  0  0  0  0  0  0  0
    7.2274   11.3442   24.1077 N   0  0  0  0  0  0  0  0  0  0  0  0
    9.2323   15.5718   21.4061 O   0  0  0  0  0  0  0  0  0  0  0  0
    9.5621   12.6922   20.6969 O   0  0  0  0  0  0  0  0  0  0  0  0
    5.3698   11.6157   25.4808 O   0  0  0  0  0  0  0  0  0  0  0  0
    5.4664    9.8613   24.0149 O   0  0  0  0  0  0  0  0  0  0  0  0
   12.2618   12.0216   23.7999 H   0  0  0  0  0  0  0  0  0  0  0  0
   12.4388   11.7580   22.0619 H   0  0  0  0  0  0  0  0  0  0  0  0
   15.0002   15.0660   22.4897 H   0  0  0  0  0  0  0  0  0  0  0  0
   14.4847   15.7135   24.0487 H   0  0  0  0  0  0  0  0  0  0  0  0
   14.5360   11.4719   23.4711 H   0  0  0  0  0  0  0  0  0  0  0  0
   14.6903   12.5448   22.0815 H   0  0  0  0  0  0  0  0  0  0  0  0
   15.7129   13.4929   24.1845 H   0  0  0  0  0  0  0  0  0  0  0  0
   14.1167   13.4871   24.9376 H   0  0  0  0  0  0  0  0  0  0  0  0
   11.0281    9.8825   24.1813 H   0  0  0  0  0  0  0  0  0  0  0  0
    9.4481    9.4346   24.8443 H   0  0  0  0  0  0  0  0  0  0  0  0
    9.4944   11.4073   26.1232 H   0  0  0  0  0  0  0  0  0  0  0  0
   11.0682   11.7858   25.4055 H   0  0  0  0  0  0  0  0  0  0  0  0
    7.3962   10.8287   22.1029 H   0  0  0  0  0  0  0  0  0  0  0  0
    7.5502    9.4632   23.2097 H   0  0  0  0  0  0  0  0  0  0  0  0
    7.6220   12.9188   25.4666 H   0  0  0  0  0  0  0  0  0  0  0  0
    7.4363   13.3861   23.7731 H   0  0  0  0  0  0  0  0  0  0  0  0
    9.7861   10.0747   22.1677 H   0  0  0  0  0  0  0  0  0  0  0  0
    9.8393   13.5842   24.4151 H   0  0  0  0  0  0  0  0  0  0  0  0
    3.4307   11.4456   24.7739 H   0  0  0  0  0  0  0  0  0  0  0  0
    3.1171   10.7975   23.1480 H   0  0  0  0  0  0  0  0  0  0  0  0
    2.1680   10.2482   24.5465 H   0  0  0  0  0  0  0  0  0  0  0  0
    4.5352    7.3686   23.8726 H   0  0  0  0  0  0  0  0  0  0  0  0
    3.8351    8.3647   22.6090 H   0  0  0  0  0  0  0  0  0  0  0  0
    2.8143    7.8068   23.9531 H   0  0  0  0  0  0  0  0  0  0  0  0
    5.0017    8.3185   26.1553 H   0  0  0  0  0  0  0  0  0  0  0  0
    4.5760    9.9995   26.5430 H   0  0  0  0  0  0  0  0  0  0  0  0
    3.3147    8.7604   26.3529 H   0  0  0  0  0  0  0  0  0  0  0  0
   10.9024   17.3408   21.9970 H   0  0  0  0  0  0  0  0  0  0  0  0
  1  2  2  0  0  0  0
  1  4  1  0  0  0  0
  1  5  1  0  0  0  0
  2  3  1  0  0  0  0
  2  7  1  0  0  0  0
  3  8  1  0  0  0  0
  3 21  2  0  0  0  0
  4 22  1  0  0  0  0
  4 25  2  0  0  0  0
  5 23  1  0  0  0  0
  5 26  2  0  0  0  0
  6 24  1  0  0  0  0
  6 27  2  0  0  0  0
  6 28  1  0  0  0  0
  7  9  1  0  0  0  0
  8 10  1  0  0  0  0
  9 10  1  0  0  0  0
 11 12  1  0  0  0  0
 11 15  1  0  0  0  0
 12 16  1  0  0  0  0
 13 15  1  0  0  0  0
 13 24  1  0  0  0  0
 14 16  1  0  0  0  0
 14 24  1  0  0  0  0
 15 23  1  0  0  0  0
 16 23  1  0  0  0  0
 17 20  1  0  0  0  0
 18 20  1  0  0  0  0
 19 20  1  0  0  0  0
 20 28  1  0  0  0  0
 21 22  1  0  0  0  0
  7 29  1  0  0  0  0
  7 30  1  0  0  0  0
  8 31  1  0  0  0  0
  8 32  1  0  0  0  0
  9 33  1  0  0  0  0
  9 34  1  0  0  0  0
 10 35  1  0  0  0  0
 10 36  1  0  0  0  0
 11 37  1  0  0  0  0
 11 38  1  0  0  0  0
 12 39  1  0  0  0  0
 12 40  1  0  0  0  0
 13 41  1  0  0  0  0
 13 42  1  0  0  0  0
 14 43  1  0  0  0  0
 14 44  1  0  0  0  0
 15 45  1  0  0  0  0
 16 46  1  0  0  0  0
 17 47  1  0  0  0  0
 17 48  1  0  0  0  0
 17 49  1  0  0  0  0
 18 50  1  0  0  0  0
 18 51  1  0  0  0  0
 18 52  1  0  0  0  0
 19 53  1  0  0  0  0
 19 54  1  0  0  0  0
 19 55  1  0  0  0  0
 22 56  1  0  0  0  0
M  END
> <idnumber>
Z3671083193

> <heavy_atoms>
28

> <LogS>
-4.048

> <LogP>
1.379

> <rotating_bonds>
3

> <PSA>
91.31

> <hb_acceptors>
4

> <hb_donors>
1

> <Collection>
Advanced

> <link>
https://www.enaminestore.com/catalog/Z3671083193

> <ROCS_ShapeQuery>
x0446_0A_x1080_0A_x0929_0A_x0812_0A_x0719_0A_x1140_0A_x0528_0A_x0310_0A

> <ROCS_TanimotoCombo>
0.463 

> <ROCS_ShapeTanimoto>
0.248 

> <ROCS_ColorTanimoto>
0.215 

> <ROCS_RefTversky>
0.230 

> <ROCS_RefColorTversky>
0.251 

> <ROCS_RefTverskyCombo>
0.481 

> <ROCS_FitTversky>
1.477 

> <ROCS_FitColorTversky>
0.602 

> <ROCS_FitTverskyCombo>
2.079 

> <ROCS_ColorScore>
-9.044

> <ROCS_Overlap>
2716.239

> <ROCS_Rank>
179                 

$$$$
untitled-dbase-1048392_3
  -OEChem-02092406493D

 48 52  0     1  0  0  0  0  0999 V2000
    3.4547   13.1100   25.4000 C   0  0  0  0  0  0  0  0  0  0  0  0
    4.4256   13.7874   24.6624 C   0  0  0  0  0  0  0  0  0  0  0  0
    3.7177   11.8309   25.8904 C   0  0  0  0  0  0  0  0  0  0  0  0
    5.6595   13.1858   24.4151 C   0  0  0  0  0  0  0  0  0  0  0  0
    4.9517   11.2293   25.6431 C   0  0  0  0  0  0  0  0  0  0  0  0
    5.9225   11.9067   24.9055 C   0  0  0  0  0  0  0  0  0  0  0  0
   10.4572   14.3130   22.4351 C   0  0  0  0  0  0  0  0  0  0  0  0
   10.2702   15.5453   21.8197 C   0  0  0  0  0  0  0  0  0  0  0  0
    9.3659   13.4627   22.4289 C   0  0  0  0  0  0  0  0  0  0  0  0
    8.1292   14.9778   21.2726 C   0  0  0  0  0  0  0  0  0  0  0  0
   11.7437   13.9768   23.1216 C   0  0  0  0  0  0  0  0  0  0  0  0
   11.4093   16.5272   21.7543 C   0  0  0  0  0  0  0  0  0  0  0  0
   10.3720   10.6175   24.4717 C   0  0  0  0  0  0  0  0  0  0  0  0
    9.7895    9.9334   23.2331 C   0  0  0  0  0  0  0  0  0  0  0  0
    8.4334   12.1111   25.2361 C   0  0  0  0  0  0  0  0  0  0  0  0
    7.4337   10.9367   23.1078 C   0  0  0  0  0  0  0  0  0  0  0  0
   12.8673   14.8861   22.6345 C   0  0  0  0  0  0  0  0  0  0  0  0
    9.7699   12.0296   24.4691 C   0  0  2  0  0  0  0  0  0  0  0  0
    8.8837   10.9882   22.5825 C   0  0  1  0  0  0  0  0  0  0  0  0
    7.2814   11.2433   24.6333 C   0  0  0  0  0  0  0  0  0  0  0  0
    9.1116   15.8976   21.2190 N   0  0  0  0  0  0  0  0  0  0  0  0
    8.1854   13.7638   21.8509 N   0  0  0  0  0  0  0  0  0  0  0  0
    9.4742   12.2394   23.0533 N   0  0  0  0  0  0  0  0  0  0  0  0
   12.4400   16.2479   22.7083 O   0  0  0  0  0  0  0  0  0  0  0  0
    7.2968    9.9822   25.3219 O   0  0  0  0  0  0  0  0  0  0  0  0
    6.6513   15.3980   20.5246 Cl  0  0  0  0  0  0  0  0  0  0  0  0
    2.4945   13.5791   25.5936 H   0  0  0  0  0  0  0  0  0  0  0  0
    4.2213   14.7838   24.2813 H   0  0  0  0  0  0  0  0  0  0  0  0
    2.9625   11.3036   26.4657 H   0  0  0  0  0  0  0  0  0  0  0  0
    6.4099   13.7210   23.8392 H   0  0  0  0  0  0  0  0  0  0  0  0
    5.1477   10.2324   26.0291 H   0  0  0  0  0  0  0  0  0  0  0  0
   11.5995   14.1242   24.1989 H   0  0  0  0  0  0  0  0  0  0  0  0
   12.0326   12.9348   22.9477 H   0  0  0  0  0  0  0  0  0  0  0  0
   11.8452   16.5203   20.7487 H   0  0  0  0  0  0  0  0  0  0  0  0
   11.0392   17.5371   21.9585 H   0  0  0  0  0  0  0  0  0  0  0  0
   10.1759   10.0682   25.3978 H   0  0  0  0  0  0  0  0  0  0  0  0
   11.4630   10.6793   24.3643 H   0  0  0  0  0  0  0  0  0  0  0  0
   10.6100    9.6783   22.5493 H   0  0  0  0  0  0  0  0  0  0  0  0
    9.2684    8.9987   23.4619 H   0  0  0  0  0  0  0  0  0  0  0  0
    8.6090   11.8014   26.2758 H   0  0  0  0  0  0  0  0  0  0  0  0
    8.1269   13.1664   25.2779 H   0  0  0  0  0  0  0  0  0  0  0  0
    6.8338   11.6469   22.5208 H   0  0  0  0  0  0  0  0  0  0  0  0
    7.0213    9.9398   22.8995 H   0  0  0  0  0  0  0  0  0  0  0  0
   13.7476   14.7696   23.2746 H   0  0  0  0  0  0  0  0  0  0  0  0
   13.1690   14.6492   21.6065 H   0  0  0  0  0  0  0  0  0  0  0  0
   10.4886   12.7641   24.8595 H   0  0  0  0  0  0  0  0  0  0  0  0
    8.9044   10.9039   21.4867 H   0  0  0  0  0  0  0  0  0  0  0  0
    7.1762   10.1756   26.2661 H   0  0  0  0  0  0  0  0  0  0  0  0
  1  2  1  0  0  0  0
  1  3  2  0  0  0  0
  2  4  2  0  0  0  0
  3  5  1  0  0  0  0
  4  6  1  0  0  0  0
  5  6  2  0  0  0  0
  6 20  1  0  0  0  0
  7  8  1  0  0  0  0
  7  9  2  0  0  0  0
  7 11  1  0  0  0  0
  8 12  1  0  0  0  0
  8 21  2  0  0  0  0
  9 22  1  0  0  0  0
  9 23  1  0  0  0  0
 10 21  1  0  0  0  0
 10 22  2  0  0  0  0
 10 26  1  0  0  0  0
 11 17  1  0  0  0  0
 12 24  1  0  0  0  0
 13 14  1  0  0  0  0
 13 18  1  0  0  0  0
 14 19  1  0  0  0  0
 15 18  1  0  0  0  0
 15 20  1  0  0  0  0
 16 19  1  0  0  0  0
 16 20  1  0  0  0  0
 17 24  1  0  0  0  0
 18 23  1  0  0  0  0
 19 23  1  0  0  0  0
 20 25  1  0  0  0  0
  1 27  1  0  0  0  0
  2 28  1  0  0  0  0
  3 29  1  0  0  0  0
  4 30  1  0  0  0  0
  5 31  1  0  0  0  0
 11 32  1  0  0  0  0
 11 33  1  0  0  0  0
 12 34  1  0  0  0  0
 12 35  1  0  0  0  0
 13 36  1  0  0  0  0
 13 37  1  0  0  0  0
 14 38  1  0  0  0  0
 14 39  1  0  0  0  0
 15 40  1  0  0  0  0
 15 41  1  0  0  0  0
 16 42  1  0  0  0  0
 16 43  1  0  0  0  0
 17 44  1  0  0  0  0
 17 45  1  0  0  0  0
 18 46  1  0  0  0  0
 19 47  1  0  0  0  0
 25 48  1  0  0  0  0
M  END
> <idnumber>
Z3648244335

> <heavy_atoms>
26

> <LogS>
-5.049

> <LogP>
1.571

> <rotating_bonds>
2

> <PSA>
58.48

> <hb_acceptors>
5

> <hb_donors>
1

> <Collection>
Advanced

> <link>
https://www.enaminestore.com/catalog/Z3648244335

> <ROCS_ShapeQuery>
x0446_0A_x1080_0A_x0929_0A_x0812_0A_x0719_0A_x1140_0A_x0528_0A_x0310_0A

> <ROCS_TanimotoCombo>
0.463 

> <ROCS_ShapeTanimoto>
0.269 

> <ROCS_ColorTanimoto>
0.195 

> <ROCS_RefTversky>
0.243 

> <ROCS_RefColorTversky>
0.231 

> <ROCS_RefTverskyCombo>
0.474 

> <ROCS_FitTversky>
1.632 

> <ROCS_FitColorTversky>
0.555 

> <ROCS_FitTverskyCombo>
2.187 

> <ROCS_ColorScore>
-8.306

> <ROCS_Overlap>
2878.105

> <ROCS_Rank>
180                 

$$$$
untitled-dbase-606407_9
  -OEChem-02092406493D

 35 38  0     0  0  0  0  0  0999 V2000
    6.1105   13.9677   24.8102 C   0  0  0  0  0  0  0  0  0  0  0  0
    5.4855   12.7201   24.7100 C   0  0  0  0  0  0  0  0  0  0  0  0
   13.3293   15.3511   22.5955 C   0  0  0  0  0  0  0  0  0  0  0  0
    7.4869   14.0912   24.6035 C   0  0  0  0  0  0  0  0  0  0  0  0
    6.2286   11.5800   24.4019 C   0  0  0  0  0  0  0  0  0  0  0  0
   12.4217   14.9422   23.5662 C   0  0  0  0  0  0  0  0  0  0  0  0
   12.8934   15.4040   21.2813 C   0  0  0  0  0  0  0  0  0  0  0  0
    8.2346   12.9554   24.2954 C   0  0  0  0  0  0  0  0  0  0  0  0
    7.6004   11.7113   24.1972 C   0  0  0  0  0  0  0  0  0  0  0  0
   11.1243   14.6035   23.1984 C   0  0  0  0  0  0  0  0  0  0  0  0
   10.2302    9.4697   23.4002 C   0  0  0  0  0  0  0  0  0  0  0  0
    9.0811    8.6617   23.4578 C   0  0  0  0  0  0  0  0  0  0  0  0
   10.7870   14.6901   21.8573 C   0  0  0  0  0  0  0  0  0  0  0  0
    9.7859   10.7441   23.6803 C   0  0  0  0  0  0  0  0  0  0  0  0
    9.6909   12.9670   24.0577 C   0  0  0  0  0  0  0  0  0  0  0  0
    8.9806    7.2071   23.2401 C   0  0  0  0  0  0  0  0  0  0  0  0
   11.6412   15.0829   20.8858 N   0  0  0  0  0  0  0  0  0  0  0  0
    7.9780    9.3527   23.7511 N   0  0  0  0  0  0  0  0  0  0  0  0
   10.4285   11.9404   23.7695 N   0  0  0  0  0  0  0  0  0  0  0  0
    8.4240   10.6188   23.8839 N   0  0  0  0  0  0  0  0  0  0  0  0
    9.4438   14.3333   21.5115 N   0  3  0  0  0  0  0  0  0  0  0  0
    9.1992   13.1435   21.2210 O   0  5  0  0  0  0  0  0  0  0  0  0
    8.5707   15.2264   21.5140 O   0  0  0  0  0  0  0  0  0  0  0  0
   10.2278   14.1984   24.1666 O   0  0  0  0  0  0  0  0  0  0  0  0
   11.8100    8.9637   23.0577 Cl  0  0  0  0  0  0  0  0  0  0  0  0
    5.5200   14.8476   25.0513 H   0  0  0  0  0  0  0  0  0  0  0  0
    4.4145   12.6396   24.8735 H   0  0  0  0  0  0  0  0  0  0  0  0
   14.3458   15.6190   22.8593 H   0  0  0  0  0  0  0  0  0  0  0  0
    7.9450   15.0719   24.6890 H   0  0  0  0  0  0  0  0  0  0  0  0
    5.7239   10.6217   24.3295 H   0  0  0  0  0  0  0  0  0  0  0  0
   12.7315   14.8897   24.6062 H   0  0  0  0  0  0  0  0  0  0  0  0
   13.5626   15.7158   20.4862 H   0  0  0  0  0  0  0  0  0  0  0  0
    9.1170    6.6520   24.1834 H   0  0  0  0  0  0  0  0  0  0  0  0
    8.0017    6.9163   22.8205 H   0  0  0  0  0  0  0  0  0  0  0  0
    9.7379    6.8407   22.5249 H   0  0  0  0  0  0  0  0  0  0  0  0
  1  2  1  0  0  0  0
  1  4  2  0  0  0  0
  2  5  2  0  0  0  0
  3  6  2  0  0  0  0
  3  7  1  0  0  0  0
  4  8  1  0  0  0  0
  5  9  1  0  0  0  0
  6 10  1  0  0  0  0
  7 17  2  0  0  0  0
  8  9  2  0  0  0  0
  8 15  1  0  0  0  0
  9 20  1  0  0  0  0
 10 13  2  0  0  0  0
 10 24  1  0  0  0  0
 11 12  1  0  0  0  0
 11 14  2  0  0  0  0
 11 25  1  0  0  0  0
 12 16  1  0  0  0  0
 12 18  2  0  0  0  0
 13 17  1  0  0  0  0
 13 21  1  0  0  0  0
 14 19  1  0  0  0  0
 14 20  1  0  0  0  0
 15 19  2  0  0  0  0
 15 24  1  0  0  0  0
 18 20  1  0  0  0  0
 21 22  1  0  0  0  0
 21 23  2  0  0  0  0
  1 26  1  0  0  0  0
  2 27  1  0  0  0  0
  3 28  1  0  0  0  0
  4 29  1  0  0  0  0
  5 30  1  0  0  0  0
  6 31  1  0  0  0  0
  7 32  1  0  0  0  0
 16 33  1  0  0  0  0
 16 34  1  0  0  0  0
 16 35  1  0  0  0  0
M  CHG  2  21   1  22  -1
M  END
> <idnumber>
Z165215786

> <heavy_atoms>
25

> <LogS>
-5.96

> <LogP>
3.095

> <rotating_bonds>
3

> <PSA>
95.45

> <hb_acceptors>
5

> <hb_donors>
0

> <Collection>
HTS

> <link>
https://www.enaminestore.com/catalog/Z165215786

> <ROCS_ShapeQuery>
x0446_0A_x1080_0A_x0929_0A_x0812_0A_x0719_0A_x1140_0A_x0528_0A_x0310_0A

> <ROCS_TanimotoCombo>
0.463 

> <ROCS_ShapeTanimoto>
0.284 

> <ROCS_ColorTanimoto>
0.179 

> <ROCS_RefTversky>
0.254 

> <ROCS_RefColorTversky>
0.200 

> <ROCS_RefTverskyCombo>
0.454 

> <ROCS_FitTversky>
1.715 

> <ROCS_FitColorTversky>
0.628 

> <ROCS_FitTverskyCombo>
2.343 

> <ROCS_ColorScore>
-7.168

> <ROCS_Overlap>
3006.271

> <ROCS_Rank>
181                 

$$$$
untitled-dbase-328381_90
  -OEChem-02092406493D

 66 71  0     0  0  0  0  0  0999 V2000
    6.8432   17.6203   24.7296 C   0  0  0  0  0  0  0  0  0  0  0  0
    6.1222   17.0023   23.7079 C   0  0  0  0  0  0  0  0  0  0  0  0
    7.5864   16.8495   25.6235 C   0  0  0  0  0  0  0  0  0  0  0  0
   13.1437   14.6276   22.3108 C   0  0  0  0  0  0  0  0  0  0  0  0
    6.1443   15.6134   23.5803 C   0  0  0  0  0  0  0  0  0  0  0  0
    7.6086   15.4607   25.4959 C   0  0  0  0  0  0  0  0  0  0  0  0
   12.7278   15.1903   21.1014 C   0  0  0  0  0  0  0  0  0  0  0  0
   12.2054   14.2654   23.2908 C   0  0  0  0  0  0  0  0  0  0  0  0
    5.7341   12.6955   24.4306 C   0  0  0  0  0  0  0  0  0  0  0  0
    8.0454   12.5658   24.1214 C   0  0  0  0  0  0  0  0  0  0  0  0
    6.8875   14.8426   24.4743 C   0  0  0  0  0  0  0  0  0  0  0  0
    6.9104   13.4079   24.3428 C   0  0  0  0  0  0  0  0  0  0  0  0
   11.3730   15.3875   20.9028 C   0  0  0  0  0  0  0  0  0  0  0  0
   10.4537   15.0291   21.8738 C   0  0  0  0  0  0  0  0  0  0  0  0
   10.8407   14.4634   23.0736 C   0  0  0  0  0  0  0  0  0  0  0  0
    9.4108   12.8277   23.9692 C   0  0  0  0  0  0  0  0  0  0  0  0
    7.6652   11.2319   24.0511 C   0  0  0  0  0  0  0  0  0  0  0  0
    9.7691   10.5672   23.7216 C   0  0  0  0  0  0  0  0  0  0  0  0
   10.6672   15.9155   19.7136 C   0  0  0  0  0  0  0  0  0  0  0  0
   14.5179    9.4807   23.1983 C   0  0  0  0  0  0  0  0  0  0  0  0
   13.8523   10.5373   25.3718 C   0  0  0  0  0  0  0  0  0  0  0  0
   13.0737    9.0015   23.0369 C   0  0  0  0  0  0  0  0  0  0  0  0
   12.4304   10.0226   25.1387 C   0  0  0  0  0  0  0  0  0  0  0  0
   14.8879    9.6476   24.6760 C   0  0  0  0  0  0  0  0  0  0  0  0
    9.2356   16.0444   20.2845 C   0  0  0  0  0  0  0  0  0  0  0  0
   16.2942   10.2207   24.8280 C   0  0  0  0  0  0  0  0  0  0  0  0
    8.8880   17.5018   20.6137 C   0  0  0  0  0  0  0  0  0  0  0  0
    8.2008   15.4679   19.3171 C   0  0  0  0  0  0  0  0  0  0  0  0
   10.7564    9.4704   23.4970 C   0  0  0  0  0  0  0  0  0  0  0  0
   10.2790   11.8135   23.7673 N   0  0  0  0  0  0  0  0  0  0  0  0
    8.4868   10.1827   23.8519 N   0  0  0  0  0  0  0  0  0  0  0  0
   12.1350    9.9137   23.7038 N   0  0  0  0  0  0  0  0  0  0  0  0
    9.1536   15.2803   21.5225 O   0  0  0  0  0  0  0  0  0  0  0  0
    9.9317   14.1123   24.0169 O   0  0  0  0  0  0  0  0  0  0  0  0
    5.9864   11.0137   24.2469 S   0  0  0  0  0  0  0  0  0  0  0  0
    6.8269   18.7018   24.8285 H   0  0  0  0  0  0  0  0  0  0  0  0
    5.5444   17.6023   23.0110 H   0  0  0  0  0  0  0  0  0  0  0  0
    8.1487   17.3311   26.4181 H   0  0  0  0  0  0  0  0  0  0  0  0
   14.2024   14.4639   22.4941 H   0  0  0  0  0  0  0  0  0  0  0  0
    5.5769   15.1464   22.7786 H   0  0  0  0  0  0  0  0  0  0  0  0
    8.1930   14.8740   26.2009 H   0  0  0  0  0  0  0  0  0  0  0  0
   13.4522   15.4598   20.3406 H   0  0  0  0  0  0  0  0  0  0  0  0
   12.5515   13.8263   24.2230 H   0  0  0  0  0  0  0  0  0  0  0  0
    4.7332   13.0729   24.5933 H   0  0  0  0  0  0  0  0  0  0  0  0
   11.0738   16.8722   19.3723 H   0  0  0  0  0  0  0  0  0  0  0  0
   10.7233   15.1865   18.8978 H   0  0  0  0  0  0  0  0  0  0  0  0
   15.1947    8.7609   22.7226 H   0  0  0  0  0  0  0  0  0  0  0  0
   14.6456   10.4343   22.6692 H   0  0  0  0  0  0  0  0  0  0  0  0
   13.9316   11.5674   24.9998 H   0  0  0  0  0  0  0  0  0  0  0  0
   14.0536   10.5728   26.4491 H   0  0  0  0  0  0  0  0  0  0  0  0
   12.8483    8.9599   21.9668 H   0  0  0  0  0  0  0  0  0  0  0  0
   12.9779    7.9855   23.4354 H   0  0  0  0  0  0  0  0  0  0  0  0
   12.3045    9.0548   25.6361 H   0  0  0  0  0  0  0  0  0  0  0  0
   11.7345   10.7272   25.6045 H   0  0  0  0  0  0  0  0  0  0  0  0
   14.8710    8.6580   25.1520 H   0  0  0  0  0  0  0  0  0  0  0  0
   16.3449   11.2051   24.3649 H   0  0  0  0  0  0  0  0  0  0  0  0
   17.0160    9.5630   24.3455 H   0  0  0  0  0  0  0  0  0  0  0  0
   16.5451   10.3108   25.8840 H   0  0  0  0  0  0  0  0  0  0  0  0
    7.8780   17.5525   21.0112 H   0  0  0  0  0  0  0  0  0  0  0  0
    8.9520   18.1024   19.7106 H   0  0  0  0  0  0  0  0  0  0  0  0
    9.5874   17.8831   21.3526 H   0  0  0  0  0  0  0  0  0  0  0  0
    7.2041   15.5707   19.7415 H   0  0  0  0  0  0  0  0  0  0  0  0
    8.4087   14.4142   19.1423 H   0  0  0  0  0  0  0  0  0  0  0  0
    8.2443   16.0036   18.3710 H   0  0  0  0  0  0  0  0  0  0  0  0
   10.5736    8.6289   24.1792 H   0  0  0  0  0  0  0  0  0  0  0  0
   10.6892    9.0723   22.4757 H   0  0  0  0  0  0  0  0  0  0  0  0
  1  2  1  0  0  0  0
  1  3  2  0  0  0  0
  2  5  2  0  0  0  0
  3  6  1  0  0  0  0
  4  7  1  0  0  0  0
  4  8  2  0  0  0  0
  5 11  1  0  0  0  0
  6 11  2  0  0  0  0
  7 13  2  0  0  0  0
  8 15  1  0  0  0  0
  9 12  2  0  0  0  0
  9 35  1  0  0  0  0
 10 12  1  0  0  0  0
 10 16  1  0  0  0  0
 10 17  2  0  0  0  0
 11 12  1  0  0  0  0
 13 14  1  0  0  0  0
 13 19  1  0  0  0  0
 14 15  2  0  0  0  0
 14 33  1  0  0  0  0
 15 34  1  0  0  0  0
 16 30  2  0  0  0  0
 16 34  1  0  0  0  0
 17 31  1  0  0  0  0
 17 35  1  0  0  0  0
 18 29  1  0  0  0  0
 18 30  1  0  0  0  0
 18 31  2  0  0  0  0
 19 25  1  0  0  0  0
 20 22  1  0  0  0  0
 20 24  1  0  0  0  0
 21 23  1  0  0  0  0
 21 24  1  0  0  0  0
 22 32  1  0  0  0  0
 23 32  1  0  0  0  0
 24 26  1  0  0  0  0
 25 27  1  0  0  0  0
 25 28  1  0  0  0  0
 25 33  1  0  0  0  0
 29 32  1  0  0  0  0
  1 36  1  0  0  0  0
  2 37  1  0  0  0  0
  3 38  1  0  0  0  0
  4 39  1  0  0  0  0
  5 40  1  0  0  0  0
  6 41  1  0  0  0  0
  7 42  1  0  0  0  0
  8 43  1  0  0  0  0
  9 44  1  0  0  0  0
 19 45  1  0  0  0  0
 19 46  1  0  0  0  0
 20 47  1  0  0  0  0
 20 48  1  0  0  0  0
 21 49  1  0  0  0  0
 21 50  1  0  0  0  0
 22 51  1  0  0  0  0
 22 52  1  0  0  0  0
 23 53  1  0  0  0  0
 23 54  1  0  0  0  0
 24 55  1  0  0  0  0
 26 56  1  0  0  0  0
 26 57  1  0  0  0  0
 26 58  1  0  0  0  0
 27 59  1  0  0  0  0
 27 60  1  0  0  0  0
 27 61  1  0  0  0  0
 28 62  1  0  0  0  0
 28 63  1  0  0  0  0
 28 64  1  0  0  0  0
 29 65  1  0  0  0  0
 29 66  1  0  0  0  0
M  END
> <idnumber>
Z31264482

> <heavy_atoms>
35

> <LogS>
-7.82

> <LogP>
7.51

> <rotating_bonds>
5

> <PSA>
47.48

> <hb_acceptors>
4

> <hb_donors>
0

> <Collection>
Legacy

> <link>
https://www.enaminestore.com/catalog/Z31264482

> <ROCS_ShapeQuery>
x0446_0A_x1080_0A_x0929_0A_x0812_0A_x0719_0A_x1140_0A_x0528_0A_x0310_0A

> <ROCS_TanimotoCombo>
0.463 

> <ROCS_ShapeTanimoto>
0.273 

> <ROCS_ColorTanimoto>
0.191 

> <ROCS_RefTversky>
0.253 

> <ROCS_RefColorTversky>
0.219 

> <ROCS_RefTverskyCombo>
0.473 

> <ROCS_FitTversky>
1.392 

> <ROCS_FitColorTversky>
0.593 

> <ROCS_FitTverskyCombo>
1.984 

> <ROCS_ColorScore>
-7.885

> <ROCS_Overlap>
2998.597

> <ROCS_Rank>
182                 

$$$$
untitled-dbase-498334_83
  -OEChem-02092406493D

 40 43  0     0  0  0  0  0  0999 V2000
   13.0689   15.6473   22.9088 C   0  0  0  0  0  0  0  0  0  0  0  0
   12.1305   16.6676   22.8009 C   0  0  0  0  0  0  0  0  0  0  0  0
    5.7644   12.5779   24.8686 C   0  0  0  0  0  0  0  0  0  0  0  0
    6.6042   13.6816   24.8827 C   0  0  0  0  0  0  0  0  0  0  0  0
   12.7284   14.3570   22.5148 C   0  0  0  0  0  0  0  0  0  0  0  0
   10.8542   16.3960   22.2993 C   0  0  0  0  0  0  0  0  0  0  0  0
    6.2817   11.3244   24.5467 C   0  0  0  0  0  0  0  0  0  0  0  0
    7.9541   13.5222   24.5746 C   0  0  0  0  0  0  0  0  0  0  0  0
   11.4429   14.0920   22.0114 C   0  0  0  0  0  0  0  0  0  0  0  0
   10.4865   15.1142   21.8975 C   0  0  0  0  0  0  0  0  0  0  0  0
    7.6292   11.1543   24.2374 C   0  0  0  0  0  0  0  0  0  0  0  0
    8.4811   12.2739   24.2515 C   0  0  0  0  0  0  0  0  0  0  0  0
    9.4136    9.8277   23.6395 C   0  0  0  0  0  0  0  0  0  0  0  0
   10.2429   10.9175   23.6531 C   0  0  0  0  0  0  0  0  0  0  0  0
   11.0389   12.8250   21.6000 C   0  0  0  0  0  0  0  0  0  0  0  0
    8.9849   13.6020   21.0522 C   0  0  0  0  0  0  0  0  0  0  0  0
    9.9157    8.4663   23.3022 C   0  0  0  0  0  0  0  0  0  0  0  0
   11.6924   10.8020   23.3302 C   0  0  0  0  0  0  0  0  0  0  0  0
    7.6162   13.3408   20.5206 C   0  0  0  0  0  0  0  0  0  0  0  0
    8.1046    9.9347   23.9301 N   0  0  0  0  0  0  0  0  0  0  0  0
    9.7869   12.1458   23.9579 N   0  0  0  0  0  0  0  0  0  0  0  0
    9.2543   14.8719   21.4173 N   0  0  0  0  0  0  0  0  0  0  0  0
    9.8139   12.5476   21.1150 N   0  0  0  0  0  0  0  0  0  0  0  0
    6.8225   14.4519   20.4820 F   0  0  0  0  0  0  0  0  0  0  0  0
    7.6091   12.8539   19.2444 F   0  0  0  0  0  0  0  0  0  0  0  0
    6.9293   12.4261   21.2652 F   0  0  0  0  0  0  0  0  0  0  0  0
   12.0862   11.4047   21.6592 S   0  0  0  0  0  0  0  0  0  0  0  0
   14.0602   15.8569   23.2991 H   0  0  0  0  0  0  0  0  0  0  0  0
   12.3880   17.6775   23.1068 H   0  0  0  0  0  0  0  0  0  0  0  0
    4.7111   12.6880   25.1077 H   0  0  0  0  0  0  0  0  0  0  0  0
    6.2137   14.6635   25.1314 H   0  0  0  0  0  0  0  0  0  0  0  0
   13.4877   13.5871   22.6140 H   0  0  0  0  0  0  0  0  0  0  0  0
   10.1379   17.2122   22.2264 H   0  0  0  0  0  0  0  0  0  0  0  0
    5.6117   10.4667   24.5406 H   0  0  0  0  0  0  0  0  0  0  0  0
    8.6014   14.3969   24.5889 H   0  0  0  0  0  0  0  0  0  0  0  0
   10.2517    7.9460   24.2082 H   0  0  0  0  0  0  0  0  0  0  0  0
    9.1357    7.8593   22.8232 H   0  0  0  0  0  0  0  0  0  0  0  0
   10.7570    8.5133   22.5974 H   0  0  0  0  0  0  0  0  0  0  0  0
   12.3027   11.3656   24.0523 H   0  0  0  0  0  0  0  0  0  0  0  0
   12.0273    9.7562   23.4048 H   0  0  0  0  0  0  0  0  0  0  0  0
  1  2  1  0  0  0  0
  1  5  2  0  0  0  0
  2  6  2  0  0  0  0
  3  4  1  0  0  0  0
  3  7  2  0  0  0  0
  4  8  2  0  0  0  0
  5  9  1  0  0  0  0
  6 10  1  0  0  0  0
  7 11  1  0  0  0  0
  8 12  1  0  0  0  0
  9 10  1  0  0  0  0
  9 15  2  0  0  0  0
 10 22  2  0  0  0  0
 11 12  1  0  0  0  0
 11 20  2  0  0  0  0
 12 21  2  0  0  0  0
 13 14  2  0  0  0  0
 13 17  1  0  0  0  0
 13 20  1  0  0  0  0
 14 18  1  0  0  0  0
 14 21  1  0  0  0  0
 15 23  1  0  0  0  0
 15 27  1  0  0  0  0
 16 19  1  0  0  0  0
 16 22  1  0  0  0  0
 16 23  2  0  0  0  0
 18 27  1  0  0  0  0
 19 24  1  0  0  0  0
 19 25  1  0  0  0  0
 19 26  1  0  0  0  0
  1 28  1  0  0  0  0
  2 29  1  0  0  0  0
  3 30  1  0  0  0  0
  4 31  1  0  0  0  0
  5 32  1  0  0  0  0
  6 33  1  0  0  0  0
  7 34  1  0  0  0  0
  8 35  1  0  0  0  0
 17 36  1  0  0  0  0
 17 37  1  0  0  0  0
 17 38  1  0  0  0  0
 18 39  1  0  0  0  0
 18 40  1  0  0  0  0
M  END
> <idnumber>
Z74684023

> <heavy_atoms>
27

> <LogS>
-5.547

> <LogP>
4.382

> <rotating_bonds>
4

> <PSA>
51.56

> <hb_acceptors>
4

> <hb_donors>
0

> <Collection>
Legacy

> <link>
https://www.enaminestore.com/catalog/Z74684023

> <ROCS_ShapeQuery>
x0446_0A_x1080_0A_x0929_0A_x0812_0A_x0719_0A_x1140_0A_x0528_0A_x0310_0A

> <ROCS_TanimotoCombo>
0.463 

> <ROCS_ShapeTanimoto>
0.277 

> <ROCS_ColorTanimoto>
0.186 

> <ROCS_RefTversky>
0.251 

> <ROCS_RefColorTversky>
0.198 

> <ROCS_RefTverskyCombo>
0.449 

> <ROCS_FitTversky>
1.631 

> <ROCS_FitColorTversky>
0.747 

> <ROCS_FitTverskyCombo>
2.378 

> <ROCS_ColorScore>
-7.080

> <ROCS_Overlap>
2963.535

> <ROCS_Rank>
183                 

$$$$
untitled-dbase-742589_33
  -OEChem-02092406493D

 39 42  0     0  0  0  0  0  0999 V2000
   13.4877   14.8388   22.2563 C   0  0  0  0  0  0  0  0  0  0  0  0
   13.2641   14.1302   23.4368 C   0  0  0  0  0  0  0  0  0  0  0  0
   12.8515    8.7539   23.0397 C   0  0  0  0  0  0  0  0  0  0  0  0
   12.3311    7.5609   22.5507 C   0  0  0  0  0  0  0  0  0  0  0  0
   12.4076   15.3228   21.5181 C   0  0  0  0  0  0  0  0  0  0  0  0
   11.9605   13.9054   23.8790 C   0  0  0  0  0  0  0  0  0  0  0  0
   11.9920    9.7905   23.3862 C   0  0  0  0  0  0  0  0  0  0  0  0
   10.9550    7.4555   22.4281 C   0  0  0  0  0  0  0  0  0  0  0  0
    7.9523   12.5419   24.1873 C   0  0  0  0  0  0  0  0  0  0  0  0
   11.1040   15.0979   21.9603 C   0  0  0  0  0  0  0  0  0  0  0  0
   10.8804   14.3893   23.1407 C   0  0  0  0  0  0  0  0  0  0  0  0
   10.6311    9.5855   23.2260 C   0  0  0  0  0  0  0  0  0  0  0  0
    7.6353   11.1984   24.2841 C   0  0  0  0  0  0  0  0  0  0  0  0
    9.2096   12.8498   23.7417 C   0  0  0  0  0  0  0  0  0  0  0  0
    9.6815   10.6139   23.5642 C   0  0  0  0  0  0  0  0  0  0  0  0
    6.8050   13.4123   24.5562 C   0  0  0  0  0  0  0  0  0  0  0  0
    6.2123   11.0215   24.7299 C   0  0  0  0  0  0  0  0  0  0  0  0
    5.9171   12.4116   25.3163 C   0  0  0  0  0  0  0  0  0  0  0  0
   10.0885    8.4406   22.7543 N   0  0  0  0  0  0  0  0  0  0  0  0
    8.4679   10.1937   23.9794 N   0  0  0  0  0  0  0  0  0  0  0  0
   10.1092   11.8933   23.4243 N   0  0  0  0  0  0  0  0  0  0  0  0
   10.0148   15.5985   21.1953 N   0  3  0  0  0  0  0  0  0  0  0  0
   10.2555   16.2312   20.1400 O   0  5  0  0  0  0  0  0  0  0  0  0
    8.8456   15.3928   21.5990 O   0  0  0  0  0  0  0  0  0  0  0  0
    9.5978   14.1519   23.5988 O   0  0  0  0  0  0  0  0  0  0  0  0
   14.5029   15.0137   21.9118 H   0  0  0  0  0  0  0  0  0  0  0  0
   14.1051   13.7536   24.0117 H   0  0  0  0  0  0  0  0  0  0  0  0
   13.9248    8.8762   23.1494 H   0  0  0  0  0  0  0  0  0  0  0  0
   12.9819    6.7403   22.2718 H   0  0  0  0  0  0  0  0  0  0  0  0
   12.5970   15.8737   20.5999 H   0  0  0  0  0  0  0  0  0  0  0  0
   11.7934   13.3525   24.7998 H   0  0  0  0  0  0  0  0  0  0  0  0
   12.3897   10.7246   23.7699 H   0  0  0  0  0  0  0  0  0  0  0  0
   10.4982    6.5460   22.0519 H   0  0  0  0  0  0  0  0  0  0  0  0
    7.0966   14.2494   25.1964 H   0  0  0  0  0  0  0  0  0  0  0  0
    6.3025   13.7823   23.6568 H   0  0  0  0  0  0  0  0  0  0  0  0
    5.5758   10.8119   23.8646 H   0  0  0  0  0  0  0  0  0  0  0  0
    6.1054   10.2305   25.4766 H   0  0  0  0  0  0  0  0  0  0  0  0
    6.1965   12.4187   26.3792 H   0  0  0  0  0  0  0  0  0  0  0  0
    4.8549   12.6703   25.2610 H   0  0  0  0  0  0  0  0  0  0  0  0
  1  2  1  0  0  0  0
  1  5  2  0  0  0  0
  2  6  2  0  0  0  0
  3  4  1  0  0  0  0
  3  7  2  0  0  0  0
  4  8  2  0  0  0  0
  5 10  1  0  0  0  0
  6 11  1  0  0  0  0
  7 12  1  0  0  0  0
  8 19  1  0  0  0  0
  9 13  1  0  0  0  0
  9 14  2  0  0  0  0
  9 16  1  0  0  0  0
 10 11  2  0  0  0  0
 10 22  1  0  0  0  0
 11 25  1  0  0  0  0
 12 15  1  0  0  0  0
 12 19  2  0  0  0  0
 13 17  1  0  0  0  0
 13 20  2  0  0  0  0
 14 21  1  0  0  0  0
 14 25  1  0  0  0  0
 15 20  1  0  0  0  0
 15 21  2  0  0  0  0
 16 18  1  0  0  0  0
 17 18  1  0  0  0  0
 22 23  1  0  0  0  0
 22 24  2  0  0  0  0
  1 26  1  0  0  0  0
  2 27  1  0  0  0  0
  3 28  1  0  0  0  0
  4 29  1  0  0  0  0
  5 30  1  0  0  0  0
  6 31  1  0  0  0  0
  7 32  1  0  0  0  0
  8 33  1  0  0  0  0
 16 34  1  0  0  0  0
 16 35  1  0  0  0  0
 17 36  1  0  0  0  0
 17 37  1  0  0  0  0
 18 38  1  0  0  0  0
 18 39  1  0  0  0  0
M  CHG  2  22   1  23  -1
M  END
> <idnumber>
Z1220605536

> <heavy_atoms>
25

> <LogS>
-5.047

> <LogP>
3.184

> <rotating_bonds>
4

> <PSA>
91.04

> <hb_acceptors>
5

> <hb_donors>
0

> <Collection>
HTS

> <link>
https://www.enaminestore.com/catalog/Z1220605536

> <ROCS_ShapeQuery>
x0446_0A_x1080_0A_x0929_0A_x0812_0A_x0719_0A_x1140_0A_x0528_0A_x0310_0A

> <ROCS_TanimotoCombo>
0.463 

> <ROCS_ShapeTanimoto>
0.269 

> <ROCS_ColorTanimoto>
0.194 

> <ROCS_RefTversky>
0.243 

> <ROCS_RefColorTversky>
0.215 

> <ROCS_RefTverskyCombo>
0.458 

> <ROCS_FitTversky>
1.648 

> <ROCS_FitColorTversky>
0.674 

> <ROCS_FitTverskyCombo>
2.322 

> <ROCS_ColorScore>
-7.689

> <ROCS_Overlap>
2873.750

> <ROCS_Rank>
184                 

$$$$
untitled-dbase-186643_7
  -OEChem-02092406493D

 31 33  0     0  0  0  0  0  0999 V2000
   12.9288   14.3588   23.0863 C   0  0  0  0  0  0  0  0  0  0  0  0
   12.9766   15.1035   21.9079 C   0  0  0  0  0  0  0  0  0  0  0  0
   11.6985   14.0498   23.6668 C   0  0  0  0  0  0  0  0  0  0  0  0
   11.7942   15.5395   21.3100 C   0  0  0  0  0  0  0  0  0  0  0  0
    6.6458   12.9579   24.9388 C   0  0  0  0  0  0  0  0  0  0  0  0
    9.5805   10.6206   23.5212 C   0  0  0  0  0  0  0  0  0  0  0  0
    7.8124   12.4084   24.3753 C   0  0  0  0  0  0  0  0  0  0  0  0
   10.5162   14.4858   23.0688 C   0  0  0  0  0  0  0  0  0  0  0  0
   10.5639   15.2306   21.8904 C   0  0  0  0  0  0  0  0  0  0  0  0
    7.6229   11.0407   24.4666 C   0  0  0  0  0  0  0  0  0  0  0  0
    9.0015   12.8450   23.8008 C   0  0  0  0  0  0  0  0  0  0  0  0
    5.7625    9.6127   25.3640 C   0  0  0  0  0  0  0  0  0  0  0  0
    8.9231   16.9410   21.6951 C   0  0  0  0  0  0  0  0  0  0  0  0
    5.7839   12.0236   25.3550 N   0  0  0  0  0  0  0  0  0  0  0  0
    8.4663   10.0791   24.0590 N   0  0  0  0  0  0  0  0  0  0  0  0
    9.8993   11.9279   23.3673 N   0  0  0  0  0  0  0  0  0  0  0  0
    6.4052   10.8680   25.0545 N   0  0  0  0  0  0  0  0  0  0  0  0
    9.3058   14.1747   23.6535 O   0  0  0  0  0  0  0  0  0  0  0  0
    9.4163   15.6631   21.2975 O   0  0  0  0  0  0  0  0  0  0  0  0
   13.8496   14.0191   23.5519 H   0  0  0  0  0  0  0  0  0  0  0  0
   13.9342   15.3440   21.4562 H   0  0  0  0  0  0  0  0  0  0  0  0
   11.6682   13.4691   24.5847 H   0  0  0  0  0  0  0  0  0  0  0  0
   11.8386   16.1207   20.3930 H   0  0  0  0  0  0  0  0  0  0  0  0
    6.3838   13.9988   25.0653 H   0  0  0  0  0  0  0  0  0  0  0  0
   10.3214    9.9134   23.1638 H   0  0  0  0  0  0  0  0  0  0  0  0
    6.0646    9.3188   26.3727 H   0  0  0  0  0  0  0  0  0  0  0  0
    4.6773    9.7364   25.3107 H   0  0  0  0  0  0  0  0  0  0  0  0
    6.0732    8.8585   24.6356 H   0  0  0  0  0  0  0  0  0  0  0  0
    8.0045   17.1644   21.1472 H   0  0  0  0  0  0  0  0  0  0  0  0
    9.6778   17.7041   21.4889 H   0  0  0  0  0  0  0  0  0  0  0  0
    8.7101   16.9221   22.7666 H   0  0  0  0  0  0  0  0  0  0  0  0
  1  2  1  0  0  0  0
  1  3  2  0  0  0  0
  2  4  2  0  0  0  0
  3  8  1  0  0  0  0
  4  9  1  0  0  0  0
  5  7  1  0  0  0  0
  5 14  2  0  0  0  0
  6 15  1  0  0  0  0
  6 16  2  0  0  0  0
  7 10  1  0  0  0  0
  7 11  2  0  0  0  0
  8  9  2  0  0  0  0
  8 18  1  0  0  0  0
  9 19  1  0  0  0  0
 10 15  2  0  0  0  0
 10 17  1  0  0  0  0
 11 16  1  0  0  0  0
 11 18  1  0  0  0  0
 12 17  1  0  0  0  0
 13 19  1  0  0  0  0
 14 17  1  0  0  0  0
  1 20  1  0  0  0  0
  2 21  1  0  0  0  0
  3 22  1  0  0  0  0
  4 23  1  0  0  0  0
  5 24  1  0  0  0  0
  6 25  1  0  0  0  0
 12 26  1  0  0  0  0
 12 27  1  0  0  0  0
 12 28  1  0  0  0  0
 13 29  1  0  0  0  0
 13 30  1  0  0  0  0
 13 31  1  0  0  0  0
M  END
> <idnumber>
Z228654120

> <heavy_atoms>
19

> <LogS>
-3.493

> <LogP>
1.203

> <rotating_bonds>
3

> <PSA>
62.06

> <hb_acceptors>
4

> <hb_donors>
0

> <Collection>
HTS

> <link>
https://www.enaminestore.com/catalog/Z228654120

> <ROCS_ShapeQuery>
x0446_0A_x1080_0A_x0929_0A_x0812_0A_x0719_0A_x1140_0A_x0528_0A_x0310_0A

> <ROCS_TanimotoCombo>
0.463 

> <ROCS_ShapeTanimoto>
0.239 

> <ROCS_ColorTanimoto>
0.225 

> <ROCS_RefTversky>
0.217 

> <ROCS_RefColorTversky>
0.232 

> <ROCS_RefTverskyCombo>
0.449 

> <ROCS_FitTversky>
1.738 

> <ROCS_FitColorTversky>
0.873 

> <ROCS_FitTverskyCombo>
2.611 

> <ROCS_ColorScore>
-8.293

> <ROCS_Overlap>
2558.054

> <ROCS_Rank>
185                 

$$$$
untitled-dbase-541241_104
  -OEChem-02092406493D

 36 39  0     0  0  0  0  0  0999 V2000
    5.9816   12.8449   25.7965 C   0  0  0  0  0  0  0  0  0  0  0  0
    5.4189   11.5922   25.5384 C   0  0  0  0  0  0  0  0  0  0  0  0
    7.2851   13.1525   25.3835 C   0  0  0  0  0  0  0  0  0  0  0  0
    6.1335   10.6003   24.8600 C   0  0  0  0  0  0  0  0  0  0  0  0
    8.0235   12.1719   24.6999 C   0  0  0  0  0  0  0  0  0  0  0  0
    9.3070   12.0664   24.1340 C   0  0  0  0  0  0  0  0  0  0  0  0
    7.4275   10.9292   24.4595 C   0  0  0  0  0  0  0  0  0  0  0  0
    9.4205   10.8124   23.5991 C   0  0  0  0  0  0  0  0  0  0  0  0
   11.1791   14.9301   21.5106 C   0  0  0  0  0  0  0  0  0  0  0  0
   10.5775   10.3142   22.9321 C   0  0  0  0  0  0  0  0  0  0  0  0
   11.3989   12.5766   23.4748 C   0  0  0  0  0  0  0  0  0  0  0  0
   12.3483   19.4272   21.2211 C   0  0  0  0  0  0  0  0  0  0  0  0
   12.4725   18.0954   21.2000 C   0  0  0  0  0  0  0  0  0  0  0  0
   12.6079   13.4563   23.3271 C   0  0  0  0  0  0  0  0  0  0  0  0
   11.9986   17.1968   22.2995 C   0  0  0  0  0  0  0  0  0  0  0  0
   10.0176   14.4587   21.1195 N   0  0  0  0  0  0  0  0  0  0  0  0
    9.1415   15.5177   21.1984 N   0  0  0  0  0  0  0  0  0  0  0  0
    9.7549   16.6131   21.6296 N   0  0  0  0  0  0  0  0  0  0  0  0
   10.3330   13.0189   24.0857 N   0  0  0  0  0  0  0  0  0  0  0  0
   11.0284   16.2433   21.8238 N   0  0  0  0  0  0  0  0  0  0  0  0
   11.5663   11.3011   22.9112 N   0  0  0  0  0  0  0  0  0  0  0  0
   10.6962    9.1946   22.4486 O   0  0  0  0  0  0  0  0  0  0  0  0
    8.2856   10.0984   23.7853 O   0  0  0  0  0  0  0  0  0  0  0  0
   12.7132   14.0583   21.6309 S   0  0  0  0  0  0  0  0  0  0  0  0
    5.3995   13.5945   26.3265 H   0  0  0  0  0  0  0  0  0  0  0  0
    4.4050   11.3839   25.8715 H   0  0  0  0  0  0  0  0  0  0  0  0
    7.7077   14.1307   25.5917 H   0  0  0  0  0  0  0  0  0  0  0  0
    5.7017    9.6274   24.6574 H   0  0  0  0  0  0  0  0  0  0  0  0
   12.7053   20.0432   20.4032 H   0  0  0  0  0  0  0  0  0  0  0  0
   11.8839   19.9223   22.0669 H   0  0  0  0  0  0  0  0  0  0  0  0
   12.9577   17.6327   20.3443 H   0  0  0  0  0  0  0  0  0  0  0  0
   13.4990   12.8820   23.5717 H   0  0  0  0  0  0  0  0  0  0  0  0
   12.5287   14.2948   24.0159 H   0  0  0  0  0  0  0  0  0  0  0  0
   11.5380   17.7533   23.1246 H   0  0  0  0  0  0  0  0  0  0  0  0
   12.8429   16.6384   22.7196 H   0  0  0  0  0  0  0  0  0  0  0  0
   12.4532   11.0846   22.4647 H   0  0  0  0  0  0  0  0  0  0  0  0
  1  2  1  0  0  0  0
  1  3  2  0  0  0  0
  2  4  2  0  0  0  0
  3  5  1  0  0  0  0
  4  7  1  0  0  0  0
  5  6  1  0  0  0  0
  5  7  2  0  0  0  0
  6  8  2  0  0  0  0
  6 19  1  0  0  0  0
  7 23  1  0  0  0  0
  8 10  1  0  0  0  0
  8 23  1  0  0  0  0
  9 16  2  0  0  0  0
  9 20  1  0  0  0  0
  9 24  1  0  0  0  0
 10 21  1  0  0  0  0
 10 22  2  0  0  0  0
 11 14  1  0  0  0  0
 11 19  2  0  0  0  0
 11 21  1  0  0  0  0
 12 13  2  0  0  0  0
 13 15  1  0  0  0  0
 14 24  1  0  0  0  0
 15 20  1  0  0  0  0
 16 17  1  0  0  0  0
 17 18  2  0  0  0  0
 18 20  1  0  0  0  0
  1 25  1  0  0  0  0
  2 26  1  0  0  0  0
  3 27  1  0  0  0  0
  4 28  1  0  0  0  0
 12 29  1  0  0  0  0
 12 30  1  0  0  0  0
 13 31  1  0  0  0  0
 14 32  1  0  0  0  0
 14 33  1  0  0  0  0
 15 34  1  0  0  0  0
 15 35  1  0  0  0  0
 21 36  1  0  0  0  0
M  END
> <idnumber>
Z1116584676

> <heavy_atoms>
24

> <LogS>
-4.985

> <LogP>
1.577

> <rotating_bonds>
5

> <PSA>
98.2

> <hb_acceptors>
5

> <hb_donors>
1

> <Collection>
Legacy

> <link>
https://www.enaminestore.com/catalog/Z1116584676

> <ROCS_ShapeQuery>
x0446_0A_x1080_0A_x0929_0A_x0812_0A_x0719_0A_x1140_0A_x0528_0A_x0310_0A

> <ROCS_TanimotoCombo>
0.463 

> <ROCS_ShapeTanimoto>
0.258 

> <ROCS_ColorTanimoto>
0.205 

> <ROCS_RefTversky>
0.234 

> <ROCS_RefColorTversky>
0.236 

> <ROCS_RefTverskyCombo>
0.470 

> <ROCS_FitTversky>
1.650 

> <ROCS_FitColorTversky>
0.609 

> <ROCS_FitTverskyCombo>
2.259 

> <ROCS_ColorScore>
-8.483

> <ROCS_Overlap>
2769.535

> <ROCS_Rank>
186                 

$$$$
untitled-dbase-787046_131
  -OEChem-02092406493D

 51 54  0     1  0  0  0  0  0999 V2000
   13.3727   15.2131   21.6684 C   0  0  0  0  0  0  0  0  0  0  0  0
   12.7639   16.3080   21.0552 C   0  0  0  0  0  0  0  0  0  0  0  0
   12.5903   14.2063   22.2341 C   0  0  0  0  0  0  0  0  0  0  0  0
   11.3726   16.3962   21.0078 C   0  0  0  0  0  0  0  0  0  0  0  0
   11.1991   14.2945   22.1867 C   0  0  0  0  0  0  0  0  0  0  0  0
   10.5902   15.3895   21.5735 C   0  0  0  0  0  0  0  0  0  0  0  0
   10.1313   13.5177   24.0956 C   0  0  0  0  0  0  0  0  0  0  0  0
    8.8135   12.8873   24.4140 C   0  0  2  0  0  0  0  0  0  0  0  0
    8.9562   11.4292   24.8632 C   0  0  1  0  0  0  0  0  0  0  0  0
    7.7362   10.5855   24.5234 C   0  0  1  0  0  0  0  0  0  0  0  0
    6.4761   11.4071   24.3378 C   0  0  2  0  0  0  0  0  0  0  0  0
    6.6672   12.5978   23.4052 C   0  0  2  0  0  0  0  0  0  0  0  0
    9.4835    9.8602   23.2629 C   0  0  0  0  0  0  0  0  0  0  0  0
    5.3624   13.1819   25.2024 C   0  0  0  0  0  0  0  0  0  0  0  0
    9.9732   10.2188   21.8669 C   0  0  0  0  0  0  0  0  0  0  0  0
    9.9066    8.4455   23.6445 C   0  0  0  0  0  0  0  0  0  0  0  0
    3.8694   12.8793   25.0741 C   0  0  0  0  0  0  0  0  0  0  0  0
    5.5959   14.2531   26.2588 C   0  0  0  0  0  0  0  0  0  0  0  0
    8.5836   14.9126   20.3894 C   0  0  0  0  0  0  0  0  0  0  0  0
   10.8131   14.1329   24.9045 O   0  0  0  0  0  0  0  0  0  0  0  0
    8.0320   12.9938   23.2340 O   0  0  0  0  0  0  0  0  0  0  0  0
   10.0463   10.7733   24.2069 O   0  0  0  0  0  0  0  0  0  0  0  0
    8.0595    9.9482   23.2866 O   0  0  0  0  0  0  0  0  0  0  0  0
    6.0632   11.9908   25.5751 O   0  0  0  0  0  0  0  0  0  0  0  0
    5.8467   13.6448   23.9368 O   0  0  0  0  0  0  0  0  0  0  0  0
   10.4269   13.2803   22.7580 O   0  0  0  0  0  0  0  0  0  0  0  0
    9.2325   15.4878   21.5219 O   0  0  0  0  0  0  0  0  0  0  0  0
   14.4563   15.1442   21.7051 H   0  0  0  0  0  0  0  0  0  0  0  0
   13.3729   17.0917   20.6149 H   0  0  0  0  0  0  0  0  0  0  0  0
   13.0709   13.3558   22.7101 H   0  0  0  0  0  0  0  0  0  0  0  0
   10.9048   17.2527   20.5301 H   0  0  0  0  0  0  0  0  0  0  0  0
    8.3418   13.4866   25.2138 H   0  0  0  0  0  0  0  0  0  0  0  0
    9.1675   11.4036   25.9470 H   0  0  0  0  0  0  0  0  0  0  0  0
    7.5878    9.8003   25.2800 H   0  0  0  0  0  0  0  0  0  0  0  0
    5.6532   10.7785   23.9656 H   0  0  0  0  0  0  0  0  0  0  0  0
    6.2832   12.3686   22.4067 H   0  0  0  0  0  0  0  0  0  0  0  0
    9.6622   11.2319   21.6111 H   0  0  0  0  0  0  0  0  0  0  0  0
    9.5562    9.5260   21.1358 H   0  0  0  0  0  0  0  0  0  0  0  0
   11.0612   10.1624   21.8271 H   0  0  0  0  0  0  0  0  0  0  0  0
    9.5468    8.2096   24.6448 H   0  0  0  0  0  0  0  0  0  0  0  0
   10.9925    8.3680   23.6288 H   0  0  0  0  0  0  0  0  0  0  0  0
    9.4877    7.7314   22.9373 H   0  0  0  0  0  0  0  0  0  0  0  0
    3.7112   12.1126   24.3170 H   0  0  0  0  0  0  0  0  0  0  0  0
    3.3327   13.7816   24.7847 H   0  0  0  0  0  0  0  0  0  0  0  0
    3.4809   12.5239   26.0274 H   0  0  0  0  0  0  0  0  0  0  0  0
    6.6617   14.4652   26.3464 H   0  0  0  0  0  0  0  0  0  0  0  0
    5.2230   13.9122   27.2249 H   0  0  0  0  0  0  0  0  0  0  0  0
    5.0747   15.1700   25.9824 H   0  0  0  0  0  0  0  0  0  0  0  0
    7.5042   15.0607   20.4729 H   0  0  0  0  0  0  0  0  0  0  0  0
    8.8130   13.8452   20.3402 H   0  0  0  0  0  0  0  0  0  0  0  0
    8.9475   15.4037   19.4838 H   0  0  0  0  0  0  0  0  0  0  0  0
  1  2  1  0  0  0  0
  1  3  2  0  0  0  0
  2  4  2  0  0  0  0
  3  5  1  0  0  0  0
  4  6  1  0  0  0  0
  5  6  2  0  0  0  0
  5 26  1  0  0  0  0
  6 27  1  0  0  0  0
  7  8  1  1  0  0  0
  7 20  2  0  0  0  0
  7 26  1  0  0  0  0
  8  9  1  0  0  0  0
  8 21  1  0  0  0  0
  9 10  1  0  0  0  0
  9 22  1  1  0  0  0
 10 11  1  0  0  0  0
 10 23  1  1  0  0  0
 11 12  1  0  0  0  0
 11 24  1  6  0  0  0
 12 21  1  0  0  0  0
 12 25  1  6  0  0  0
 13 15  1  0  0  0  0
 13 16  1  0  0  0  0
 13 22  1  0  0  0  0
 13 23  1  0  0  0  0
 14 17  1  0  0  0  0
 14 18  1  0  0  0  0
 14 24  1  0  0  0  0
 14 25  1  0  0  0  0
 19 27  1  0  0  0  0
  1 28  1  0  0  0  0
  2 29  1  0  0  0  0
  3 30  1  0  0  0  0
  4 31  1  0  0  0  0
  8 32  1  0  0  0  0
  9 33  1  0  0  0  0
 10 34  1  0  0  0  0
 11 35  1  0  0  0  0
 12 36  1  0  0  0  0
 15 37  1  0  0  0  0
 15 38  1  0  0  0  0
 15 39  1  0  0  0  0
 16 40  1  0  0  0  0
 16 41  1  0  0  0  0
 16 42  1  0  0  0  0
 17 43  1  0  0  0  0
 17 44  1  0  0  0  0
 17 45  1  0  0  0  0
 18 46  1  0  0  0  0
 18 47  1  0  0  0  0
 18 48  1  0  0  0  0
 19 49  1  0  0  0  0
 19 50  1  0  0  0  0
 19 51  1  0  0  0  0
M  END
> <idnumber>
Z1801318723

> <heavy_atoms>
27

> <LogS>
-4.22

> <LogP>
2.08

> <rotating_bonds>
4

> <PSA>
81.68

> <hb_acceptors>
7

> <hb_donors>
0

> <Collection>
Legacy

> <link>
https://www.enaminestore.com/catalog/Z1801318723

> <ROCS_ShapeQuery>
x0446_0A_x1080_0A_x0929_0A_x0812_0A_x0719_0A_x1140_0A_x0528_0A_x0310_0A

> <ROCS_TanimotoCombo>
0.463 

> <ROCS_ShapeTanimoto>
0.289 

> <ROCS_ColorTanimoto>
0.174 

> <ROCS_RefTversky>
0.258 

> <ROCS_RefColorTversky>
0.208 

> <ROCS_RefTverskyCombo>
0.466 

> <ROCS_FitTversky>
1.684 

> <ROCS_FitColorTversky>
0.522 

> <ROCS_FitTverskyCombo>
2.205 

> <ROCS_ColorScore>
-7.474

> <ROCS_Overlap>
3054.458

> <ROCS_Rank>
187                 

$$$$
untitled-dbase-322994_164
  -OEChem-02092406493D

 43 46  0     0  0  0  0  0  0999 V2000
    5.7939   12.9556   25.4938 C   0  0  0  0  0  0  0  0  0  0  0  0
    5.5447   11.5917   25.5971 C   0  0  0  0  0  0  0  0  0  0  0  0
   11.5307    7.7855   22.0239 C   0  0  0  0  0  0  0  0  0  0  0  0
    6.9685   13.3951   24.8911 C   0  0  0  0  0  0  0  0  0  0  0  0
   13.0162   14.2864   22.9565 C   0  0  0  0  0  0  0  0  0  0  0  0
    6.4697   10.6702   25.0976 C   0  0  0  0  0  0  0  0  0  0  0  0
   11.7992   13.9933   23.5718 C   0  0  0  0  0  0  0  0  0  0  0  0
   10.3333    8.4443   22.4268 C   0  0  0  0  0  0  0  0  0  0  0  0
   11.8486   15.5060   21.2283 C   0  0  0  0  0  0  0  0  0  0  0  0
   12.6467    8.5646   22.2367 C   0  0  0  0  0  0  0  0  0  0  0  0
    7.8937   12.4622   24.3912 C   0  0  0  0  0  0  0  0  0  0  0  0
   13.0409   15.0428   21.7847 C   0  0  0  0  0  0  0  0  0  0  0  0
    7.6531   11.0820   24.4895 C   0  0  0  0  0  0  0  0  0  0  0  0
   10.6069   14.4564   23.0155 C   0  0  0  0  0  0  0  0  0  0  0  0
   10.6316   15.2128   21.8437 C   0  0  0  0  0  0  0  0  0  0  0  0
   10.5797    9.7019   22.9324 C   0  0  0  0  0  0  0  0  0  0  0  0
    9.0862   12.8351   23.7775 C   0  0  0  0  0  0  0  0  0  0  0  0
    9.6500   10.6690   23.4417 C   0  0  0  0  0  0  0  0  0  0  0  0
   14.3099   15.3502   21.1444 C   0  0  0  0  0  0  0  0  0  0  0  0
   14.2716   16.1680   19.8861 C   0  0  0  0  0  0  0  0  0  0  0  0
    8.8290   14.8284   20.3407 C   0  0  0  0  0  0  0  0  0  0  0  0
    8.5310   10.1811   24.0147 N   0  0  0  0  0  0  0  0  0  0  0  0
    9.9867   11.9601   23.2916 N   0  0  0  0  0  0  0  0  0  0  0  0
   15.4143   14.9862   21.5539 O   0  0  0  0  0  0  0  0  0  0  0  0
    9.4093   14.1596   23.6341 O   0  0  0  0  0  0  0  0  0  0  0  0
    9.4743   15.6730   21.2918 O   0  0  0  0  0  0  0  0  0  0  0  0
   12.2489   10.0838   22.9197 S   0  0  0  0  0  0  0  0  0  0  0  0
    5.0763   13.6728   25.8805 H   0  0  0  0  0  0  0  0  0  0  0  0
    4.6312   11.2407   26.0684 H   0  0  0  0  0  0  0  0  0  0  0  0
   11.5721    6.7906   21.6002 H   0  0  0  0  0  0  0  0  0  0  0  0
    7.1500   14.4646   24.8189 H   0  0  0  0  0  0  0  0  0  0  0  0
   13.9391   13.9204   23.3990 H   0  0  0  0  0  0  0  0  0  0  0  0
    6.2516    9.6080   25.1910 H   0  0  0  0  0  0  0  0  0  0  0  0
   11.7867   13.4034   24.4842 H   0  0  0  0  0  0  0  0  0  0  0  0
    9.3444    8.0096   22.3476 H   0  0  0  0  0  0  0  0  0  0  0  0
   11.8645   16.0981   20.3161 H   0  0  0  0  0  0  0  0  0  0  0  0
   13.6765    8.3143   22.0242 H   0  0  0  0  0  0  0  0  0  0  0  0
   14.3314   17.2544   20.0574 H   0  0  0  0  0  0  0  0  0  0  0  0
   13.3762   15.9790   19.2739 H   0  0  0  0  0  0  0  0  0  0  0  0
   15.1183   15.9624   19.2071 H   0  0  0  0  0  0  0  0  0  0  0  0
    7.9193   15.3140   19.9792 H   0  0  0  0  0  0  0  0  0  0  0  0
    8.5830   13.8721   20.8092 H   0  0  0  0  0  0  0  0  0  0  0  0
    9.5062   14.6568   19.5007 H   0  0  0  0  0  0  0  0  0  0  0  0
  1  2  1  0  0  0  0
  1  4  2  0  0  0  0
  2  6  2  0  0  0  0
  3  8  1  0  0  0  0
  3 10  2  0  0  0  0
  4 11  1  0  0  0  0
  5  7  2  0  0  0  0
  5 12  1  0  0  0  0
  6 13  1  0  0  0  0
  7 14  1  0  0  0  0
  8 16  2  0  0  0  0
  9 12  2  0  0  0  0
  9 15  1  0  0  0  0
 10 27  1  0  0  0  0
 11 13  1  0  0  0  0
 11 17  2  0  0  0  0
 12 19  1  0  0  0  0
 13 22  2  0  0  0  0
 14 15  2  0  0  0  0
 14 25  1  0  0  0  0
 15 26  1  0  0  0  0
 16 18  1  0  0  0  0
 16 27  1  0  0  0  0
 17 23  1  0  0  0  0
 17 25  1  0  0  0  0
 18 22  1  0  0  0  0
 18 23  2  0  0  0  0
 19 20  1  0  0  0  0
 19 24  2  0  0  0  0
 21 26  1  0  0  0  0
  1 28  1  0  0  0  0
  2 29  1  0  0  0  0
  3 30  1  0  0  0  0
  4 31  1  0  0  0  0
  5 32  1  0  0  0  0
  6 33  1  0  0  0  0
  7 34  1  0  0  0  0
  8 35  1  0  0  0  0
  9 36  1  0  0  0  0
 10 37  1  0  0  0  0
 20 38  1  0  0  0  0
 20 39  1  0  0  0  0
 20 40  1  0  0  0  0
 21 41  1  0  0  0  0
 21 42  1  0  0  0  0
 21 43  1  0  0  0  0
M  END
> <idnumber>
Z31120760

> <heavy_atoms>
27

> <LogS>
-6.58

> <LogP>
4.478

> <rotating_bonds>
5

> <PSA>
61.31

> <hb_acceptors>
4

> <hb_donors>
0

> <Collection>
HTS

> <link>
https://www.enaminestore.com/catalog/Z31120760

> <ROCS_ShapeQuery>
x0446_0A_x1080_0A_x0929_0A_x0812_0A_x0719_0A_x1140_0A_x0528_0A_x0310_0A

> <ROCS_TanimotoCombo>
0.463 

> <ROCS_ShapeTanimoto>
0.270 

> <ROCS_ColorTanimoto>
0.193 

> <ROCS_RefTversky>
0.245 

> <ROCS_RefColorTversky>
0.209 

> <ROCS_RefTverskyCombo>
0.454 

> <ROCS_FitTversky>
1.605 

> <ROCS_FitColorTversky>
0.715 

> <ROCS_FitTverskyCombo>
2.321 

> <ROCS_ColorScore>
-7.462

> <ROCS_Overlap>
2902.129

> <ROCS_Rank>
188                 

$$$$
untitled-dbase-1070438_157
  -OEChem-02092406493D

 47 49  0     1  0  0  0  0  0999 V2000
    8.0705   12.1291   24.2667 C   0  0  0  0  0  0  0  0  0  0  0  0
    9.3291   11.8963   23.7753 C   0  0  0  0  0  0  0  0  0  0  0  0
    7.4942   10.8483   24.4069 C   0  0  0  0  0  0  0  0  0  0  0  0
   10.3585   12.8327   23.4517 C   0  0  0  0  0  0  0  0  0  0  0  0
    7.3348   13.3622   24.6282 C   0  0  0  0  0  0  0  0  0  0  0  0
   10.0051   14.9152   20.3614 C   0  0  0  0  0  0  0  0  0  0  0  0
   10.4451   15.7863   22.1807 C   0  0  0  0  0  0  0  0  0  0  0  0
    6.0966   10.6584   24.8893 C   0  0  1  0  0  0  0  0  0  0  0  0
    5.8204   13.0512   24.6720 C   0  0  2  0  0  0  0  0  0  0  0  0
   11.3182   15.0344   21.1581 C   0  0  0  0  0  0  0  0  0  0  0  0
    5.9727    9.5732   25.9512 C   0  0  0  0  0  0  0  0  0  0  0  0
    5.0462   14.2079   25.2879 C   0  0  0  0  0  0  0  0  0  0  0  0
   12.3725   15.9064   20.4852 C   0  0  0  0  0  0  0  0  0  0  0  0
   11.3461    9.1422   24.2827 C   0  0  0  0  0  0  0  0  0  0  0  0
   11.8751   13.7395   21.6437 C   0  0  0  0  0  0  0  0  0  0  0  0
   10.5620    9.7947   23.1572 C   0  0  0  0  0  0  0  0  0  0  0  0
    8.3116    9.8700   24.0118 N   0  0  0  0  0  0  0  0  0  0  0  0
    9.4229   10.5384   23.6438 N   0  0  0  0  0  0  0  0  0  0  0  0
   10.8264   12.8668   22.1204 N   0  0  0  0  0  0  0  0  0  0  0  0
   10.8530   13.5923   24.3226 O   0  0  0  0  0  0  0  0  0  0  0  0
    9.3374   15.8449   21.2492 O   0  0  0  0  0  0  0  0  0  0  0  0
    5.5739   11.8783   25.4764 O   0  0  0  0  0  0  0  0  0  0  0  0
    7.6798   13.6885   25.6172 H   0  0  0  0  0  0  0  0  0  0  0  0
    7.5351   14.1683   23.9143 H   0  0  0  0  0  0  0  0  0  0  0  0
   10.0291   15.2873   19.3328 H   0  0  0  0  0  0  0  0  0  0  0  0
    9.5133   13.9371   20.3795 H   0  0  0  0  0  0  0  0  0  0  0  0
   10.1670   15.2318   23.0830 H   0  0  0  0  0  0  0  0  0  0  0  0
   10.7866   16.7865   22.4635 H   0  0  0  0  0  0  0  0  0  0  0  0
    5.4525   10.4032   24.0388 H   0  0  0  0  0  0  0  0  0  0  0  0
    5.4353   12.8656   23.6604 H   0  0  0  0  0  0  0  0  0  0  0  0
    6.6076    9.8120   26.8045 H   0  0  0  0  0  0  0  0  0  0  0  0
    6.2805    8.6118   25.5397 H   0  0  0  0  0  0  0  0  0  0  0  0
    4.9390    9.4986   26.2894 H   0  0  0  0  0  0  0  0  0  0  0  0
    5.4129   14.4099   26.2949 H   0  0  0  0  0  0  0  0  0  0  0  0
    3.9852   13.9616   25.3421 H   0  0  0  0  0  0  0  0  0  0  0  0
    5.1692   15.1059   24.6812 H   0  0  0  0  0  0  0  0  0  0  0  0
   13.2705   15.9459   21.1011 H   0  0  0  0  0  0  0  0  0  0  0  0
   11.9888   16.9176   20.3524 H   0  0  0  0  0  0  0  0  0  0  0  0
   12.6291   15.4934   19.5100 H   0  0  0  0  0  0  0  0  0  0  0  0
   11.7164    9.8897   24.9923 H   0  0  0  0  0  0  0  0  0  0  0  0
   12.2062    8.5983   23.8802 H   0  0  0  0  0  0  0  0  0  0  0  0
   10.7237    8.4335   24.8391 H   0  0  0  0  0  0  0  0  0  0  0  0
   12.4061   13.2446   20.8172 H   0  0  0  0  0  0  0  0  0  0  0  0
   12.5791   13.9371   22.4655 H   0  0  0  0  0  0  0  0  0  0  0  0
   10.1959    9.0392   22.4528 H   0  0  0  0  0  0  0  0  0  0  0  0
   11.1990   10.4846   22.5921 H   0  0  0  0  0  0  0  0  0  0  0  0
   10.4485   12.1957   21.4596 H   0  0  0  0  0  0  0  0  0  0  0  0
  1  2  2  0  0  0  0
  1  3  1  0  0  0  0
  1  5  1  0  0  0  0
  2  4  1  0  0  0  0
  2 18  1  0  0  0  0
  3  8  1  0  0  0  0
  3 17  2  0  0  0  0
  4 19  1  0  0  0  0
  4 20  2  0  0  0  0
  5  9  1  0  0  0  0
  6 10  1  0  0  0  0
  6 21  1  0  0  0  0
  7 10  1  0  0  0  0
  7 21  1  0  0  0  0
  8 11  1  1  0  0  0
  8 22  1  0  0  0  0
  9 12  1  1  0  0  0
  9 22  1  0  0  0  0
 10 13  1  0  0  0  0
 10 15  1  0  0  0  0
 14 16  1  0  0  0  0
 15 19  1  0  0  0  0
 16 18  1  0  0  0  0
 17 18  1  0  0  0  0
  5 23  1  0  0  0  0
  5 24  1  0  0  0  0
  6 25  1  0  0  0  0
  6 26  1  0  0  0  0
  7 27  1  0  0  0  0
  7 28  1  0  0  0  0
  8 29  1  0  0  0  0
  9 30  1  0  0  0  0
 11 31  1  0  0  0  0
 11 32  1  0  0  0  0
 11 33  1  0  0  0  0
 12 34  1  0  0  0  0
 12 35  1  0  0  0  0
 12 36  1  0  0  0  0
 13 37  1  0  0  0  0
 13 38  1  0  0  0  0
 13 39  1  0  0  0  0
 14 40  1  0  0  0  0
 14 41  1  0  0  0  0
 14 42  1  0  0  0  0
 15 43  1  0  0  0  0
 15 44  1  0  0  0  0
 16 45  1  0  0  0  0
 16 46  1  0  0  0  0
 19 47  1  0  0  0  0
M  END
> <idnumber>
Z4105194787

> <heavy_atoms>
22

> <LogS>
-1.707

> <LogP>
-0.138

> <rotating_bonds>
4

> <PSA>
65.38

> <hb_acceptors>
4

> <hb_donors>
1

> <Collection>
Advanced

> <link>
https://www.enaminestore.com/catalog/Z4105194787

> <ROCS_ShapeQuery>
x0446_0A_x1080_0A_x0929_0A_x0812_0A_x0719_0A_x1140_0A_x0528_0A_x0310_0A

> <ROCS_TanimotoCombo>
0.463 

> <ROCS_ShapeTanimoto>
0.252 

> <ROCS_ColorTanimoto>
0.211 

> <ROCS_RefTversky>
0.228 

> <ROCS_RefColorTversky>
0.221 

> <ROCS_RefTverskyCombo>
0.448 

> <ROCS_FitTversky>
1.731 

> <ROCS_FitColorTversky>
0.832 

> <ROCS_FitTverskyCombo>
2.563 

> <ROCS_ColorScore>
-7.884

> <ROCS_Overlap>
2687.769

> <ROCS_Rank>
189                 

$$$$
untitled-dbase-191948_15
  -OEChem-02092406493D

 56 61  0     1  0  0  0  0  0999 V2000
    6.3852   13.4610   25.0500 C   0  0  0  0  0  0  0  0  0  0  0  0
    5.8642   12.2896   25.5788 C   0  0  0  0  0  0  0  0  0  0  0  0
    7.5465   13.4086   24.2819 C   0  0  0  0  0  0  0  0  0  0  0  0
    6.5100   11.0793   25.3327 C   0  0  0  0  0  0  0  0  0  0  0  0
    9.7297   13.3365   20.8046 C   0  0  0  0  0  0  0  0  0  0  0  0
   11.4085   14.5240   22.0137 C   0  0  0  0  0  0  0  0  0  0  0  0
   10.9493   13.3143   21.4799 C   0  0  0  0  0  0  0  0  0  0  0  0
    8.1941   12.2002   24.0340 C   0  0  0  0  0  0  0  0  0  0  0  0
    7.6708   11.0221   24.5639 C   0  0  0  0  0  0  0  0  0  0  0  0
    9.0431   14.5405   20.6979 C   0  0  0  0  0  0  0  0  0  0  0  0
   12.5181   14.9913   22.7399 C   0  0  0  0  0  0  0  0  0  0  0  0
    9.9240   10.9854   23.0474 C   0  0  0  0  0  0  0  0  0  0  0  0
    9.4081    9.8014   23.5725 C   0  0  0  0  0  0  0  0  0  0  0  0
   10.6267   15.6553   21.8370 C   0  0  0  0  0  0  0  0  0  0  0  0
   11.7118   12.0630   21.6177 C   0  0  0  0  0  0  0  0  0  0  0  0
    6.5120   15.0564   20.6625 C   0  0  0  0  0  0  0  0  0  0  0  0
    6.6582   13.5895   20.4040 C   0  0  0  0  0  0  0  0  0  0  0  0
   11.9099    9.7186   22.3192 C   0  0  0  0  0  0  0  0  0  0  0  0
   11.0177    8.4932   22.2857 C   0  0  0  0  0  0  0  0  0  0  0  0
    7.7400   14.5383   19.9650 C   0  0  0  0  0  0  0  0  0  0  0  0
   14.5710   12.5630   24.9294 C   0  0  0  0  0  0  0  0  0  0  0  0
    9.3865    7.3575   23.8072 C   0  0  0  0  0  0  0  0  0  0  0  0
   13.6860   14.2297   23.2147 C   0  0  0  0  0  0  0  0  0  0  0  0
   13.3750   13.3783   24.4638 C   0  0  0  0  0  0  0  0  0  0  0  0
    9.3098   12.1655   23.2948 N   0  0  0  0  0  0  0  0  0  0  0  0
    8.2822    9.8513   24.3321 N   0  0  0  0  0  0  0  0  0  0  0  0
    9.4457   15.7336   21.1964 N   0  0  0  0  0  0  0  0  0  0  0  0
   12.4409   16.3002   22.9966 N   0  0  0  0  0  0  0  0  0  0  0  0
   11.1388   10.9604   22.2777 N   0  0  0  0  0  0  0  0  0  0  0  0
   10.0277    8.5756   23.3427 N   0  0  2  0  0  0  0  0  0  0  0  0
   12.8175   12.0530   21.0731 O   0  0  0  0  0  0  0  0  0  0  0  0
   11.2455   16.7173   22.4255 O   0  0  0  0  0  0  0  0  0  0  0  0
    5.8926   14.4111   25.2322 H   0  0  0  0  0  0  0  0  0  0  0  0
    4.9606   12.3144   26.1802 H   0  0  0  0  0  0  0  0  0  0  0  0
    7.9472   14.3330   23.8718 H   0  0  0  0  0  0  0  0  0  0  0  0
    6.0930   10.1668   25.7537 H   0  0  0  0  0  0  0  0  0  0  0  0
    9.3254   12.4267   20.3687 H   0  0  0  0  0  0  0  0  0  0  0  0
    5.7950   15.6052   20.0631 H   0  0  0  0  0  0  0  0  0  0  0  0
    6.5871   15.3965   21.6883 H   0  0  0  0  0  0  0  0  0  0  0  0
    6.8337   12.9436   21.2562 H   0  0  0  0  0  0  0  0  0  0  0  0
    6.0394   13.1485   19.6317 H   0  0  0  0  0  0  0  0  0  0  0  0
   12.5205    9.6799   23.2237 H   0  0  0  0  0  0  0  0  0  0  0  0
   12.5904    9.7274   21.4619 H   0  0  0  0  0  0  0  0  0  0  0  0
   10.5298    8.4340   21.3060 H   0  0  0  0  0  0  0  0  0  0  0  0
   11.6150    7.5806   22.4048 H   0  0  0  0  0  0  0  0  0  0  0  0
    7.8133   14.7318   18.9041 H   0  0  0  0  0  0  0  0  0  0  0  0
   14.9248   11.8973   24.1356 H   0  0  0  0  0  0  0  0  0  0  0  0
   15.3985   13.2152   25.2263 H   0  0  0  0  0  0  0  0  0  0  0  0
   14.2974   11.9473   25.7919 H   0  0  0  0  0  0  0  0  0  0  0  0
   10.0098    6.4905   23.5427 H   0  0  0  0  0  0  0  0  0  0  0  0
    9.2641    7.4013   24.8995 H   0  0  0  0  0  0  0  0  0  0  0  0
    8.3997    7.2583   23.3314 H   0  0  0  0  0  0  0  0  0  0  0  0
   14.0793   13.5560   22.4249 H   0  0  0  0  0  0  0  0  0  0  0  0
   14.5373   14.9002   23.4554 H   0  0  0  0  0  0  0  0  0  0  0  0
   13.0468   14.0326   25.2806 H   0  0  0  0  0  0  0  0  0  0  0  0
   12.5409   12.7000   24.2466 H   0  0  0  0  0  0  0  0  0  0  0  0
  1  2  1  0  0  0  0
  1  3  2  0  0  0  0
  2  4  2  0  0  0  0
  3  8  1  0  0  0  0
  4  9  1  0  0  0  0
  5  7  2  0  0  0  0
  5 10  1  0  0  0  0
  6  7  1  0  0  0  0
  6 11  1  0  0  0  0
  6 14  2  0  0  0  0
  7 15  1  0  0  0  0
  8  9  1  0  0  0  0
  8 25  2  0  0  0  0
  9 26  2  0  0  0  0
 10 20  1  0  0  0  0
 10 27  2  0  0  0  0
 11 23  1  0  0  0  0
 11 28  2  0  0  0  0
 12 13  2  0  0  0  0
 12 25  1  0  0  0  0
 12 29  1  0  0  0  0
 13 26  1  0  0  0  0
 13 30  1  0  0  0  0
 14 27  1  0  0  0  0
 14 32  1  0  0  0  0
 15 29  1  0  0  0  0
 15 31  2  0  0  0  0
 16 17  1  0  0  0  0
 16 20  1  0  0  0  0
 17 20  1  0  0  0  0
 18 19  1  0  0  0  0
 18 29  1  0  0  0  0
 19 30  1  0  0  0  0
 21 24  1  0  0  0  0
 22 30  1  0  0  0  0
 23 24  1  0  0  0  0
 28 32  1  0  0  0  0
  1 33  1  0  0  0  0
  2 34  1  0  0  0  0
  3 35  1  0  0  0  0
  4 36  1  0  0  0  0
  5 37  1  0  0  0  0
 16 38  1  0  0  0  0
 16 39  1  0  0  0  0
 17 40  1  0  0  0  0
 17 41  1  0  0  0  0
 18 42  1  0  0  0  0
 18 43  1  0  0  0  0
 19 44  1  0  0  0  0
 19 45  1  0  0  0  0
 20 46  1  0  0  0  0
 21 47  1  0  0  0  0
 21 48  1  0  0  0  0
 21 49  1  0  0  0  0
 22 50  1  0  0  0  0
 22 51  1  0  0  0  0
 22 52  1  0  0  0  0
 23 53  1  0  0  0  0
 23 54  1  0  0  0  0
 24 55  1  0  0  0  0
 24 56  1  0  0  0  0
M  END
> <idnumber>
Z442923544

> <heavy_atoms>
32

> <LogS>
-5.51

> <LogP>
3.758

> <rotating_bonds>
4

> <PSA>
88.25

> <hb_acceptors>
6

> <hb_donors>
0

> <Collection>
Legacy

> <link>
https://www.enaminestore.com/catalog/Z442923544

> <ROCS_ShapeQuery>
x0446_0A_x1080_0A_x0929_0A_x0812_0A_x0719_0A_x1140_0A_x0528_0A_x0310_0A

> <ROCS_TanimotoCombo>
0.463 

> <ROCS_ShapeTanimoto>
0.285 

> <ROCS_ColorTanimoto>
0.178 

> <ROCS_RefTversky>
0.260 

> <ROCS_RefColorTversky>
0.203 

> <ROCS_RefTverskyCombo>
0.463 

> <ROCS_FitTversky>
1.497 

> <ROCS_FitColorTversky>
0.590 

> <ROCS_FitTverskyCombo>
2.087 

> <ROCS_ColorScore>
-7.290

> <ROCS_Overlap>
3080.859

> <ROCS_Rank>
190                 

$$$$
untitled-dbase-452075_6
  -OEChem-02092406493D

 44 48  0     0  0  0  0  0  0999 V2000
   11.8365   16.3311   21.5143 C   0  0  0  0  0  0  0  0  0  0  0  0
   12.1176   13.8557   22.8972 C   0  0  0  0  0  0  0  0  0  0  0  0
    7.9369   12.4651   23.6345 C   0  0  0  0  0  0  0  0  0  0  0  0
    6.8031   13.3365   23.7578 C   0  0  0  0  0  0  0  0  0  0  0  0
   13.0882   15.8879   21.9613 C   0  0  0  0  0  0  0  0  0  0  0  0
   13.2240   14.6728   22.6397 C   0  0  0  0  0  0  0  0  0  0  0  0
   10.7195   15.5213   21.7661 C   0  0  0  0  0  0  0  0  0  0  0  0
   10.8854   14.3202   22.4420 C   0  0  0  0  0  0  0  0  0  0  0  0
    5.7429   12.7101   24.3873 C   0  0  0  0  0  0  0  0  0  0  0  0
    9.2113   12.6267   23.0781 C   0  0  0  0  0  0  0  0  0  0  0  0
    7.6688   11.2199   24.1910 C   0  0  0  0  0  0  0  0  0  0  0  0
    9.7024   10.4595   23.6778 C   0  0  0  0  0  0  0  0  0  0  0  0
    6.7040   14.7487   23.2606 C   0  0  0  0  0  0  0  0  0  0  0  0
    4.4225   13.3462   24.6916 C   0  0  0  0  0  0  0  0  0  0  0  0
    5.5125   15.4939   23.8816 C   0  0  0  0  0  0  0  0  0  0  0  0
    4.2413   14.6337   23.8736 C   0  0  0  0  0  0  0  0  0  0  0  0
   14.2827   16.7474   21.6951 C   0  0  0  0  0  0  0  0  0  0  0  0
   14.5677   14.2134   23.1099 C   0  0  0  0  0  0  0  0  0  0  0  0
   10.7095    9.3577   23.6883 C   0  0  0  0  0  0  0  0  0  0  0  0
    9.3958   15.6893   21.4558 N   0  0  0  0  0  0  0  0  0  0  0  0
   10.1000   11.6108   23.1029 N   0  0  0  0  0  0  0  0  0  0  0  0
    8.5164   10.1740   24.2428 N   0  0  0  0  0  0  0  0  0  0  0  0
    8.7286   14.6357   21.9139 N   0  0  0  0  0  0  0  0  0  0  0  0
    9.6175   13.8184   22.5024 N   0  0  0  0  0  0  0  0  0  0  0  0
    6.0969   11.1091   24.8385 S   0  0  0  0  0  0  0  0  0  0  0  0
   11.7299   17.2736   20.9866 H   0  0  0  0  0  0  0  0  0  0  0  0
   12.2146   12.9122   23.4229 H   0  0  0  0  0  0  0  0  0  0  0  0
    7.6327   15.2752   23.5125 H   0  0  0  0  0  0  0  0  0  0  0  0
    6.5925   14.7706   22.1715 H   0  0  0  0  0  0  0  0  0  0  0  0
    3.6221   12.6403   24.4375 H   0  0  0  0  0  0  0  0  0  0  0  0
    4.3331   13.5778   25.7591 H   0  0  0  0  0  0  0  0  0  0  0  0
    5.7603   15.7865   24.9081 H   0  0  0  0  0  0  0  0  0  0  0  0
    5.3233   16.4181   23.3207 H   0  0  0  0  0  0  0  0  0  0  0  0
    3.9684   14.3772   22.8438 H   0  0  0  0  0  0  0  0  0  0  0  0
    3.4106   15.2190   24.2885 H   0  0  0  0  0  0  0  0  0  0  0  0
   14.4361   17.4482   22.5231 H   0  0  0  0  0  0  0  0  0  0  0  0
   15.1875   16.1397   21.5771 H   0  0  0  0  0  0  0  0  0  0  0  0
   14.1578   17.3201   20.7686 H   0  0  0  0  0  0  0  0  0  0  0  0
   15.0550   13.6146   22.3329 H   0  0  0  0  0  0  0  0  0  0  0  0
   15.2126   15.0658   23.3531 H   0  0  0  0  0  0  0  0  0  0  0  0
   14.4808   13.6067   24.0188 H   0  0  0  0  0  0  0  0  0  0  0  0
   11.3192    9.4080   24.5982 H   0  0  0  0  0  0  0  0  0  0  0  0
   10.2233    8.3749   23.6479 H   0  0  0  0  0  0  0  0  0  0  0  0
   11.3752    9.4199   22.8182 H   0  0  0  0  0  0  0  0  0  0  0  0
  1  5  1  0  0  0  0
  1  7  2  0  0  0  0
  2  6  1  0  0  0  0
  2  8  2  0  0  0  0
  3  4  1  0  0  0  0
  3 10  2  0  0  0  0
  3 11  1  0  0  0  0
  4  9  2  0  0  0  0
  4 13  1  0  0  0  0
  5  6  2  0  0  0  0
  5 17  1  0  0  0  0
  6 18  1  0  0  0  0
  7  8  1  0  0  0  0
  7 20  1  0  0  0  0
  8 24  1  0  0  0  0
  9 14  1  0  0  0  0
  9 25  1  0  0  0  0
 10 21  1  0  0  0  0
 10 24  1  0  0  0  0
 11 22  2  0  0  0  0
 11 25  1  0  0  0  0
 12 19  1  0  0  0  0
 12 21  2  0  0  0  0
 12 22  1  0  0  0  0
 13 15  1  0  0  0  0
 14 16  1  0  0  0  0
 15 16  1  0  0  0  0
 20 23  2  0  0  0  0
 23 24  1  0  0  0  0
  1 26  1  0  0  0  0
  2 27  1  0  0  0  0
 13 28  1  0  0  0  0
 13 29  1  0  0  0  0
 14 30  1  0  0  0  0
 14 31  1  0  0  0  0
 15 32  1  0  0  0  0
 15 33  1  0  0  0  0
 16 34  1  0  0  0  0
 16 35  1  0  0  0  0
 17 36  1  0  0  0  0
 17 37  1  0  0  0  0
 17 38  1  0  0  0  0
 18 39  1  0  0  0  0
 18 40  1  0  0  0  0
 18 41  1  0  0  0  0
 19 42  1  0  0  0  0
 19 43  1  0  0  0  0
 19 44  1  0  0  0  0
M  END
> <idnumber>
Z56881412

> <heavy_atoms>
25

> <LogS>
-6.6

> <LogP>
5.83

> <rotating_bonds>
1

> <PSA>
56.49

> <hb_acceptors>
4

> <hb_donors>
0

> <Collection>
Legacy

> <link>
https://www.enaminestore.com/catalog/Z56881412

> <ROCS_ShapeQuery>
x0446_0A_x1080_0A_x0929_0A_x0812_0A_x0719_0A_x1140_0A_x0528_0A_x0310_0A

> <ROCS_TanimotoCombo>
0.463 

> <ROCS_ShapeTanimoto>
0.271 

> <ROCS_ColorTanimoto>
0.191 

> <ROCS_RefTversky>
0.245 

> <ROCS_RefColorTversky>
0.209 

> <ROCS_RefTverskyCombo>
0.454 

> <ROCS_FitTversky>
1.669 

> <ROCS_FitColorTversky>
0.694 

> <ROCS_FitTverskyCombo>
2.363 

> <ROCS_ColorScore>
-7.485

> <ROCS_Overlap>
2894.210

> <ROCS_Rank>
191                 

$$$$
untitled-dbase-323049_117
  -OEChem-02092406493D

 43 46  0     0  0  0  0  0  0999 V2000
    6.4061   17.1029   23.8854 C   0  0  0  0  0  0  0  0  0  0  0  0
   13.1577   14.6077   22.3488 C   0  0  0  0  0  0  0  0  0  0  0  0
   12.2006   14.2674   23.3047 C   0  0  0  0  0  0  0  0  0  0  0  0
    6.2244   15.7340   23.5342 C   0  0  0  0  0  0  0  0  0  0  0  0
   11.4068   15.3589   20.8631 C   0  0  0  0  0  0  0  0  0  0  0  0
    7.2101   17.2503   24.9941 C   0  0  0  0  0  0  0  0  0  0  0  0
    5.7235   12.6916   24.3486 C   0  0  0  0  0  0  0  0  0  0  0  0
    8.0411   12.5813   24.0818 C   0  0  0  0  0  0  0  0  0  0  0  0
    6.8943   13.4144   24.2744 C   0  0  0  0  0  0  0  0  0  0  0  0
   12.7608   15.1535   21.1280 C   0  0  0  0  0  0  0  0  0  0  0  0
   10.8466   14.4728   23.0398 C   0  0  0  0  0  0  0  0  0  0  0  0
   10.4497   15.0186   21.8191 C   0  0  0  0  0  0  0  0  0  0  0  0
    6.8968   14.8873   24.3879 C   0  0  0  0  0  0  0  0  0  0  0  0
    9.4063   12.8549   23.9511 C   0  0  0  0  0  0  0  0  0  0  0  0
    7.6750   11.2431   24.0185 C   0  0  0  0  0  0  0  0  0  0  0  0
    9.7907   10.5956   23.7332 C   0  0  0  0  0  0  0  0  0  0  0  0
   13.7589   15.5102   20.1322 C   0  0  0  0  0  0  0  0  0  0  0  0
   10.7925    9.5064   23.5379 C   0  0  0  0  0  0  0  0  0  0  0  0
   13.8233   16.9459   19.6983 C   0  0  0  0  0  0  0  0  0  0  0  0
    8.4204   14.1581   20.9261 C   0  0  0  0  0  0  0  0  0  0  0  0
   10.2877   11.8473   23.7751 N   0  0  0  0  0  0  0  0  0  0  0  0
    8.5101   10.2000   23.8447 N   0  0  0  0  0  0  0  0  0  0  0  0
   14.5529   14.7223   19.6140 O   0  0  0  0  0  0  0  0  0  0  0  0
    9.9103   14.1322   23.9931 O   0  0  0  0  0  0  0  0  0  0  0  0
    9.1307   15.2264   21.5494 O   0  0  0  0  0  0  0  0  0  0  0  0
    7.7423   15.7425   25.6069 S   0  0  0  0  0  0  0  0  0  0  0  0
    5.9951   11.0105   24.1867 S   0  0  0  0  0  0  0  0  0  0  0  0
    5.9697   17.9369   23.3513 H   0  0  0  0  0  0  0  0  0  0  0  0
   14.2099   14.4433   22.5660 H   0  0  0  0  0  0  0  0  0  0  0  0
   12.5162   13.8423   24.2535 H   0  0  0  0  0  0  0  0  0  0  0  0
    5.6284   15.3960   22.6952 H   0  0  0  0  0  0  0  0  0  0  0  0
   11.0941   15.7866   19.9132 H   0  0  0  0  0  0  0  0  0  0  0  0
    7.5111   18.1711   25.4735 H   0  0  0  0  0  0  0  0  0  0  0  0
    4.7171   13.0633   24.4890 H   0  0  0  0  0  0  0  0  0  0  0  0
   11.1608    9.1496   24.5070 H   0  0  0  0  0  0  0  0  0  0  0  0
   10.3558    8.6576   22.9966 H   0  0  0  0  0  0  0  0  0  0  0  0
   11.6482    9.8553   22.9462 H   0  0  0  0  0  0  0  0  0  0  0  0
   14.5053   17.5650   20.3023 H   0  0  0  0  0  0  0  0  0  0  0  0
   12.8406   17.4424   19.6969 H   0  0  0  0  0  0  0  0  0  0  0  0
   14.1978   17.0728   18.6669 H   0  0  0  0  0  0  0  0  0  0  0  0
    7.3807   14.4546   20.7672 H   0  0  0  0  0  0  0  0  0  0  0  0
    8.4642   13.2703   21.5620 H   0  0  0  0  0  0  0  0  0  0  0  0
    8.8851   13.9368   19.9624 H   0  0  0  0  0  0  0  0  0  0  0  0
  1  4  1  0  0  0  0
  1  6  2  0  0  0  0
  2  3  2  0  0  0  0
  2 10  1  0  0  0  0
  3 11  1  0  0  0  0
  4 13  2  0  0  0  0
  5 10  2  0  0  0  0
  5 12  1  0  0  0  0
  6 26  1  0  0  0  0
  7  9  2  0  0  0  0
  7 27  1  0  0  0  0
  8  9  1  0  0  0  0
  8 14  2  0  0  0  0
  8 15  1  0  0  0  0
  9 13  1  0  0  0  0
 10 17  1  0  0  0  0
 11 12  2  0  0  0  0
 11 24  1  0  0  0  0
 12 25  1  0  0  0  0
 13 26  1  0  0  0  0
 14 21  1  0  0  0  0
 14 24  1  0  0  0  0
 15 22  2  0  0  0  0
 15 27  1  0  0  0  0
 16 18  1  0  0  0  0
 16 21  2  0  0  0  0
 16 22  1  0  0  0  0
 17 19  1  0  0  0  0
 17 23  2  0  0  0  0
 20 25  1  0  0  0  0
  1 28  1  0  0  0  0
  2 29  1  0  0  0  0
  3 30  1  0  0  0  0
  4 31  1  0  0  0  0
  5 32  1  0  0  0  0
  6 33  1  0  0  0  0
  7 34  1  0  0  0  0
 18 35  1  0  0  0  0
 18 36  1  0  0  0  0
 18 37  1  0  0  0  0
 19 38  1  0  0  0  0
 19 39  1  0  0  0  0
 19 40  1  0  0  0  0
 20 41  1  0  0  0  0
 20 42  1  0  0  0  0
 20 43  1  0  0  0  0
M  END
> <idnumber>
Z31120789

> <heavy_atoms>
27

> <LogS>
-6.59

> <LogP>
4.543

> <rotating_bonds>
5

> <PSA>
61.31

> <hb_acceptors>
4

> <hb_donors>
0

> <Collection>
Legacy

> <link>
https://www.enaminestore.com/catalog/Z31120789

> <ROCS_ShapeQuery>
x0446_0A_x1080_0A_x0929_0A_x0812_0A_x0719_0A_x1140_0A_x0528_0A_x0310_0A

> <ROCS_TanimotoCombo>
0.463 

> <ROCS_ShapeTanimoto>
0.259 

> <ROCS_ColorTanimoto>
0.204 

> <ROCS_RefTversky>
0.237 

> <ROCS_RefColorTversky>
0.218 

> <ROCS_RefTverskyCombo>
0.455 

> <ROCS_FitTversky>
1.570 

> <ROCS_FitColorTversky>
0.749 

> <ROCS_FitTverskyCombo>
2.318 

> <ROCS_ColorScore>
-7.817

> <ROCS_Overlap>
2802.238

> <ROCS_Rank>
192                 

$$$$
untitled-dbase-180191_96
  -OEChem-02092406493D

 49 53  0     0  0  0  0  0  0999 V2000
    8.3167   13.9941   22.2334 C   0  0  0  0  0  0  0  0  0  0  0  0
    7.1539   15.4950   21.3326 C   0  0  0  0  0  0  0  0  0  0  0  0
    4.0237   14.3763   20.3543 C   0  0  0  0  0  0  0  0  0  0  0  0
    2.8201   11.0154   19.4727 C   0  0  0  0  0  0  0  0  0  0  0  0
    4.2011   11.0059   18.8294 C   0  0  0  0  0  0  0  0  0  0  0  0
    9.6949   11.2325   25.2910 C   0  0  0  0  0  0  0  0  0  0  0  0
    9.7932   10.0030   23.1085 C   0  0  0  0  0  0  0  0  0  0  0  0
    7.6064   10.2569   24.3067 C   0  0  0  0  0  0  0  0  0  0  0  0
   10.0980   12.4898   23.1611 C   0  0  0  0  0  0  0  0  0  0  0  0
    7.9179   12.7452   24.3721 C   0  0  0  0  0  0  0  0  0  0  0  0
    8.0172   11.5044   22.1693 C   0  0  0  0  0  0  0  0  0  0  0  0
    2.9245   12.1500   20.4801 C   0  0  0  0  0  0  0  0  0  0  0  0
    4.5457   12.4858   18.7388 C   0  0  0  0  0  0  0  0  0  0  0  0
   10.3705   11.1757   23.9137 C   0  0  0  0  0  0  0  0  0  0  0  0
    8.1817   11.4272   25.1212 C   0  0  0  0  0  0  0  0  0  0  0  0
    8.2806   10.1909   22.9265 C   0  0  0  0  0  0  0  0  0  0  0  0
    8.5707   12.7275   22.9583 C   0  0  0  0  0  0  0  0  0  0  0  0
    5.0338   15.2187   19.6174 C   0  0  0  0  0  0  0  0  0  0  0  0
    9.1680   14.8804   21.7724 N   0  0  0  0  0  0  0  0  0  0  0  0
    8.4031   15.8678   21.1800 N   0  0  0  0  0  0  0  0  0  0  0  0
    3.8566   13.0899   19.8748 N   0  0  0  0  0  0  0  0  0  0  0  0
    3.4116   14.8373   21.3191 O   0  0  0  0  0  0  0  0  0  0  0  0
    7.0154   14.3131   21.9934 O   0  0  0  0  0  0  0  0  0  0  0  0
    5.7959   16.4118   20.7515 S   0  0  0  0  0  0  0  0  0  0  0  0
    2.0546   11.2431   18.7216 H   0  0  0  0  0  0  0  0  0  0  0  0
    2.5732   10.0594   19.9425 H   0  0  0  0  0  0  0  0  0  0  0  0
    4.9169   10.4888   19.4792 H   0  0  0  0  0  0  0  0  0  0  0  0
    4.2016   10.5157   17.8519 H   0  0  0  0  0  0  0  0  0  0  0  0
    9.8946   10.3073   25.8456 H   0  0  0  0  0  0  0  0  0  0  0  0
   10.1156   12.0550   25.8824 H   0  0  0  0  0  0  0  0  0  0  0  0
   10.2846    9.9411   22.1298 H   0  0  0  0  0  0  0  0  0  0  0  0
    9.9946    9.0570   23.6261 H   0  0  0  0  0  0  0  0  0  0  0  0
    7.7642    9.3141   24.8449 H   0  0  0  0  0  0  0  0  0  0  0  0
    6.5224   10.3783   24.1895 H   0  0  0  0  0  0  0  0  0  0  0  0
   10.5382   13.3295   23.7160 H   0  0  0  0  0  0  0  0  0  0  0  0
   10.6071   12.4686   22.1879 H   0  0  0  0  0  0  0  0  0  0  0  0
    6.8350   12.9061   24.2821 H   0  0  0  0  0  0  0  0  0  0  0  0
    8.3064   13.5889   24.9584 H   0  0  0  0  0  0  0  0  0  0  0  0
    8.4769   11.4565   21.1730 H   0  0  0  0  0  0  0  0  0  0  0  0
    6.9376   11.6230   22.0045 H   0  0  0  0  0  0  0  0  0  0  0  0
    1.9642   12.6311   20.6880 H   0  0  0  0  0  0  0  0  0  0  0  0
    3.3616   11.8103   21.4256 H   0  0  0  0  0  0  0  0  0  0  0  0
    5.6221   12.6714   18.7852 H   0  0  0  0  0  0  0  0  0  0  0  0
    4.1425   12.9353   17.8249 H   0  0  0  0  0  0  0  0  0  0  0  0
   11.4508   11.0407   24.0384 H   0  0  0  0  0  0  0  0  0  0  0  0
    7.7016   11.4618   26.1056 H   0  0  0  0  0  0  0  0  0  0  0  0
    7.8705    9.3498   22.3564 H   0  0  0  0  0  0  0  0  0  0  0  0
    4.5457   15.7595   18.8016 H   0  0  0  0  0  0  0  0  0  0  0  0
    5.8113   14.5823   19.1851 H   0  0  0  0  0  0  0  0  0  0  0  0
  1 17  1  0  0  0  0
  1 19  2  0  0  0  0
  1 23  1  0  0  0  0
  2 20  2  0  0  0  0
  2 23  1  0  0  0  0
  2 24  1  0  0  0  0
  3 18  1  0  0  0  0
  3 21  1  0  0  0  0
  3 22  2  0  0  0  0
  4  5  1  0  0  0  0
  4 12  1  0  0  0  0
  5 13  1  0  0  0  0
  6 14  1  0  0  0  0
  6 15  1  0  0  0  0
  7 14  1  0  0  0  0
  7 16  1  0  0  0  0
  8 15  1  0  0  0  0
  8 16  1  0  0  0  0
  9 14  1  0  0  0  0
  9 17  1  0  0  0  0
 10 15  1  0  0  0  0
 10 17  1  0  0  0  0
 11 16  1  0  0  0  0
 11 17  1  0  0  0  0
 12 21  1  0  0  0  0
 13 21  1  0  0  0  0
 18 24  1  0  0  0  0
 19 20  1  0  0  0  0
  4 25  1  0  0  0  0
  4 26  1  0  0  0  0
  5 27  1  0  0  0  0
  5 28  1  0  0  0  0
  6 29  1  0  0  0  0
  6 30  1  0  0  0  0
  7 31  1  0  0  0  0
  7 32  1  0  0  0  0
  8 33  1  0  0  0  0
  8 34  1  0  0  0  0
  9 35  1  0  0  0  0
  9 36  1  0  0  0  0
 10 37  1  0  0  0  0
 10 38  1  0  0  0  0
 11 39  1  0  0  0  0
 11 40  1  0  0  0  0
 12 41  1  0  0  0  0
 12 42  1  0  0  0  0
 13 43  1  0  0  0  0
 13 44  1  0  0  0  0
 14 45  1  0  0  0  0
 15 46  1  0  0  0  0
 16 47  1  0  0  0  0
 18 48  1  0  0  0  0
 18 49  1  0  0  0  0
M  END
> <idnumber>
Z152355858

> <heavy_atoms>
24

> <LogS>
-5.36

> <LogP>
2.822

> <rotating_bonds>
4

> <PSA>
59.23

> <hb_acceptors>
3

> <hb_donors>
0

> <Collection>
HTS

> <link>
https://www.enaminestore.com/catalog/Z152355858

> <ROCS_ShapeQuery>
x0446_0A_x1080_0A_x0929_0A_x0812_0A_x0719_0A_x1140_0A_x0528_0A_x0310_0A

> <ROCS_TanimotoCombo>
0.463 

> <ROCS_ShapeTanimoto>
0.233 

> <ROCS_ColorTanimoto>
0.230 

> <ROCS_RefTversky>
0.215 

> <ROCS_RefColorTversky>
0.255 

> <ROCS_RefTverskyCombo>
0.470 

> <ROCS_FitTversky>
1.536 

> <ROCS_FitColorTversky>
0.702 

> <ROCS_FitTverskyCombo>
2.238 

> <ROCS_ColorScore>
-9.151

> <ROCS_Overlap>
2544.423

> <ROCS_Rank>
193                 

$$$$
untitled-dbase-915608_177
  -OEChem-02092406493D

 46 49  0     1  0  0  0  0  0999 V2000
    5.6071   11.8873   24.6275 C   0  0  0  0  0  0  0  0  0  0  0  0
    6.2052   13.1589   24.6785 C   0  0  0  0  0  0  0  0  0  0  0  0
    6.3766   10.7486   24.3767 C   0  0  0  0  0  0  0  0  0  0  0  0
   11.3856   14.5841   21.7780 C   0  0  0  0  0  0  0  0  0  0  0  0
    7.5799   13.3072   24.4793 C   0  0  0  0  0  0  0  0  0  0  0  0
    7.7317   10.9214   24.1836 C   0  0  0  0  0  0  0  0  0  0  0  0
    8.3177   12.1675   24.2334 C   0  0  0  0  0  0  0  0  0  0  0  0
   11.2158   15.5682   22.7242 C   0  0  0  0  0  0  0  0  0  0  0  0
   13.2993   15.5992   22.2494 C   0  0  0  0  0  0  0  0  0  0  0  0
   14.7503   15.9176   22.1405 C   0  0  0  0  0  0  0  0  0  0  0  0
   15.5361   14.7818   21.4804 C   0  0  0  0  0  0  0  0  0  0  0  0
   14.8172   14.2754   20.2281 C   0  0  0  0  0  0  0  0  0  0  0  0
   13.4273   13.7435   20.5780 C   0  0  0  0  0  0  0  0  0  0  0  0
    9.8386   10.7065   23.8266 C   0  0  0  0  0  0  0  0  0  0  0  0
    6.7588   16.4018   22.3365 C   0  0  0  0  0  0  0  0  0  0  0  0
    8.2198   14.6644   24.5314 C   0  0  0  0  0  0  0  0  0  0  0  0
    9.9745   15.9734   23.4013 C   0  0  0  0  0  0  0  0  0  0  0  0
   12.4043   16.1947   23.0116 N   0  0  0  0  0  0  0  0  0  0  0  0
   12.7155   14.6192   21.4860 N   0  0  0  0  0  0  0  0  0  0  0  0
    8.9015   15.0126   23.2438 N   0  0  2  0  0  0  0  0  0  0  0  0
    8.6359   15.6057   20.7042 O   0  0  0  0  0  0  0  0  0  0  0  0
    7.1181   13.8852   21.7361 O   0  0  0  0  0  0  0  0  0  0  0  0
    8.6340    9.9337   23.9288 O   0  0  0  0  0  0  0  0  0  0  0  0
    9.6612   12.1177   24.0160 O   0  0  0  0  0  0  0  0  0  0  0  0
   10.3838   10.4986   22.6019 F   0  0  0  0  0  0  0  0  0  0  0  0
   10.7239   10.2538   24.7494 F   0  0  0  0  0  0  0  0  0  0  0  0
    7.8835   15.1131   21.8426 S   0  0  0  0  0  0  0  0  0  0  0  0
    4.5360   11.7919   24.7839 H   0  0  0  0  0  0  0  0  0  0  0  0
    5.5827   14.0282   24.8765 H   0  0  0  0  0  0  0  0  0  0  0  0
    5.9189    9.7669   24.3359 H   0  0  0  0  0  0  0  0  0  0  0  0
   10.7016   13.8877   21.3128 H   0  0  0  0  0  0  0  0  0  0  0  0
   14.8608   16.8325   21.5460 H   0  0  0  0  0  0  0  0  0  0  0  0
   15.1642   16.1238   23.1336 H   0  0  0  0  0  0  0  0  0  0  0  0
   16.5418   15.1317   21.2219 H   0  0  0  0  0  0  0  0  0  0  0  0
   15.6555   13.9525   22.1897 H   0  0  0  0  0  0  0  0  0  0  0  0
   14.7263   15.0977   19.5073 H   0  0  0  0  0  0  0  0  0  0  0  0
   15.4046   13.4872   19.7444 H   0  0  0  0  0  0  0  0  0  0  0  0
   12.8217   13.6257   19.6733 H   0  0  0  0  0  0  0  0  0  0  0  0
   13.5037   12.7719   21.0793 H   0  0  0  0  0  0  0  0  0  0  0  0
    6.0482   16.5682   21.5254 H   0  0  0  0  0  0  0  0  0  0  0  0
    6.2393   16.0780   23.2396 H   0  0  0  0  0  0  0  0  0  0  0  0
    7.3362   17.3068   22.5308 H   0  0  0  0  0  0  0  0  0  0  0  0
    7.4705   15.4369   24.7360 H   0  0  0  0  0  0  0  0  0  0  0  0
    8.9668   14.7162   25.3304 H   0  0  0  0  0  0  0  0  0  0  0  0
   10.1187   16.1080   24.4902 H   0  0  0  0  0  0  0  0  0  0  0  0
    9.5849   16.9397   23.0289 H   0  0  0  0  0  0  0  0  0  0  0  0
  1  2  2  0  0  0  0
  1  3  1  0  0  0  0
  2  5  1  0  0  0  0
  3  6  2  0  0  0  0
  4  8  2  0  0  0  0
  4 19  1  0  0  0  0
  5  7  2  0  0  0  0
  5 16  1  0  0  0  0
  6  7  1  0  0  0  0
  6 23  1  0  0  0  0
  7 24  1  0  0  0  0
  8 17  1  0  0  0  0
  8 18  1  0  0  0  0
  9 10  1  0  0  0  0
  9 18  2  0  0  0  0
  9 19  1  0  0  0  0
 10 11  1  0  0  0  0
 11 12  1  0  0  0  0
 12 13  1  0  0  0  0
 13 19  1  0  0  0  0
 14 23  1  0  0  0  0
 14 24  1  0  0  0  0
 14 25  1  0  0  0  0
 14 26  1  0  0  0  0
 15 27  1  0  0  0  0
 16 20  1  0  0  0  0
 17 20  1  0  0  0  0
 20 27  1  0  0  0  0
 21 27  2  0  0  0  0
 22 27  2  0  0  0  0
  1 28  1  0  0  0  0
  2 29  1  0  0  0  0
  3 30  1  0  0  0  0
  4 31  1  0  0  0  0
 10 32  1  0  0  0  0
 10 33  1  0  0  0  0
 11 34  1  0  0  0  0
 11 35  1  0  0  0  0
 12 36  1  0  0  0  0
 12 37  1  0  0  0  0
 13 38  1  0  0  0  0
 13 39  1  0  0  0  0
 15 40  1  0  0  0  0
 15 41  1  0  0  0  0
 15 42  1  0  0  0  0
 16 43  1  0  0  0  0
 16 44  1  0  0  0  0
 17 45  1  0  0  0  0
 17 46  1  0  0  0  0
M  END
> <idnumber>
Z2504521007

> <heavy_atoms>
27

> <LogS>
-3.345

> <LogP>
3.26

> <rotating_bonds>
4

> <PSA>
73.66

> <hb_acceptors>
5

> <hb_donors>
0

> <Collection>
HTS

> <link>
https://www.enaminestore.com/catalog/Z2504521007

> <ROCS_ShapeQuery>
x0446_0A_x1080_0A_x0929_0A_x0812_0A_x0719_0A_x1140_0A_x0528_0A_x0310_0A

> <ROCS_TanimotoCombo>
0.463 

> <ROCS_ShapeTanimoto>
0.260 

> <ROCS_ColorTanimoto>
0.203 

> <ROCS_RefTversky>
0.237 

> <ROCS_RefColorTversky>
0.223 

> <ROCS_RefTverskyCombo>
0.460 

> <ROCS_FitTversky>
1.562 

> <ROCS_FitColorTversky>
0.699 

> <ROCS_FitTverskyCombo>
2.261 

> <ROCS_ColorScore>
-7.980

> <ROCS_Overlap>
2806.968

> <ROCS_Rank>
194                 

$$$$
untitled-dbase-960295_182
  -OEChem-02092406493D

 46 49  0     1  0  0  0  0  0999 V2000
   11.1477   14.4938   23.1911 C   0  0  0  0  0  0  0  0  0  0  0  0
   10.0855   16.0254   21.2798 C   0  0  0  0  0  0  0  0  0  0  0  0
    9.8969   14.2268   22.6793 C   0  0  0  0  0  0  0  0  0  0  0  0
   11.3359   16.2930   21.7920 C   0  0  0  0  0  0  0  0  0  0  0  0
    3.5283   10.3712   19.1454 C   0  0  0  0  0  0  0  0  0  0  0  0
    2.6325   10.8955   18.2998 C   0  0  0  0  0  0  0  0  0  0  0  0
    4.3126   11.2080   20.0193 C   0  0  0  0  0  0  0  0  0  0  0  0
    4.1527   12.5406   19.9955 C   0  0  0  0  0  0  0  0  0  0  0  0
    2.4419   12.3735   18.2602 C   0  0  0  0  0  0  0  0  0  0  0  0
    6.9195   13.0996   22.2860 C   0  0  0  0  0  0  0  0  0  0  0  0
    7.4782   11.0520   24.3574 C   0  0  0  0  0  0  0  0  0  0  0  0
    8.3382   12.0088   25.1891 C   0  0  0  0  0  0  0  0  0  0  0  0
   10.3553   11.1358   23.9675 C   0  0  0  0  0  0  0  0  0  0  0  0
    8.2356   12.3838   22.3409 C   0  0  2  0  0  0  0  0  0  0  0  0
    8.0566   10.9631   22.9340 C   0  0  1  0  0  0  0  0  0  0  0  0
    9.6097   12.4111   24.4112 C   0  0  1  0  0  0  0  0  0  0  0  0
    9.4499   10.3205   23.0390 C   0  0  0  0  0  0  0  0  0  0  0  0
    4.9180   13.4772   20.8598 C   0  0  0  0  0  0  0  0  0  0  0  0
    9.3435   14.9875   21.7143 N   0  0  0  0  0  0  0  0  0  0  0  0
   11.8895   15.5319   22.7569 N   0  0  0  0  0  0  0  0  0  0  0  0
    3.2349   13.1036   19.1316 N   0  0  0  0  0  0  0  0  0  0  0  0
    9.1941   13.1315   23.1852 N   0  0  1  0  0  0  0  0  0  0  0  0
    6.2106   12.8850   21.1194 N   0  0  0  0  0  0  0  0  0  0  0  0
    1.6245   12.8726   17.4909 O   0  0  0  0  0  0  0  0  0  0  0  0
    6.5700   13.7951   23.2325 O   0  0  0  0  0  0  0  0  0  0  0  0
   12.0335   17.3378   21.3255 F   0  0  0  0  0  0  0  0  0  0  0  0
   10.0119   10.2354   21.8074 F   0  0  0  0  0  0  0  0  0  0  0  0
    9.3452    9.0498   23.4997 F   0  0  0  0  0  0  0  0  0  0  0  0
   11.6024   13.8886   23.9668 H   0  0  0  0  0  0  0  0  0  0  0  0
    9.6418   16.6365   20.5036 H   0  0  0  0  0  0  0  0  0  0  0  0
    3.6851    9.2993   19.1922 H   0  0  0  0  0  0  0  0  0  0  0  0
    2.0366   10.2790   17.6381 H   0  0  0  0  0  0  0  0  0  0  0  0
    5.0224   10.7269   20.6830 H   0  0  0  0  0  0  0  0  0  0  0  0
    7.4641   10.0628   24.8254 H   0  0  0  0  0  0  0  0  0  0  0  0
    6.4420   11.4007   24.3377 H   0  0  0  0  0  0  0  0  0  0  0  0
    7.7595   12.9046   25.4515 H   0  0  0  0  0  0  0  0  0  0  0  0
    8.6162   11.5306   26.1376 H   0  0  0  0  0  0  0  0  0  0  0  0
   11.2864   11.3988   23.4577 H   0  0  0  0  0  0  0  0  0  0  0  0
   10.6180   10.5402   24.8464 H   0  0  0  0  0  0  0  0  0  0  0  0
    8.6048   12.2951   21.3097 H   0  0  0  0  0  0  0  0  0  0  0  0
    7.3991   10.3554   22.3014 H   0  0  0  0  0  0  0  0  0  0  0  0
   10.2501   13.0374   25.0456 H   0  0  0  0  0  0  0  0  0  0  0  0
    4.3744   13.6296   21.7955 H   0  0  0  0  0  0  0  0  0  0  0  0
    5.0339   14.4325   20.3419 H   0  0  0  0  0  0  0  0  0  0  0  0
    3.1345   14.1147   19.1348 H   0  0  0  0  0  0  0  0  0  0  0  0
    6.6174   12.2822   20.4105 H   0  0  0  0  0  0  0  0  0  0  0  0
  1  3  2  0  0  0  0
  1 20  1  0  0  0  0
  2  4  1  0  0  0  0
  2 19  2  0  0  0  0
  3 19  1  0  0  0  0
  3 22  1  0  0  0  0
  4 20  2  0  0  0  0
  4 26  1  0  0  0  0
  5  6  2  0  0  0  0
  5  7  1  0  0  0  0
  6  9  1  0  0  0  0
  7  8  2  0  0  0  0
  8 18  1  0  0  0  0
  8 21  1  0  0  0  0
  9 21  1  0  0  0  0
  9 24  2  0  0  0  0
 10 14  1  6  0  0  0
 10 23  1  0  0  0  0
 10 25  2  0  0  0  0
 11 12  1  0  0  0  0
 11 15  1  6  0  0  0
 12 16  1  0  0  0  0
 13 16  1  0  0  0  0
 13 17  1  0  0  0  0
 14 15  1  0  0  0  0
 14 22  1  0  0  0  0
 15 17  1  0  0  0  0
 16 22  1  1  0  0  0
 17 27  1  0  0  0  0
 17 28  1  0  0  0  0
 18 23  1  0  0  0  0
  1 29  1  0  0  0  0
  2 30  1  0  0  0  0
  5 31  1  0  0  0  0
  6 32  1  0  0  0  0
  7 33  1  0  0  0  0
 11 34  1  0  0  0  0
 11 35  1  0  0  0  0
 12 36  1  0  0  0  0
 12 37  1  0  0  0  0
 13 38  1  0  0  0  0
 13 39  1  0  0  0  0
 14 40  1  0  0  0  0
 15 41  1  0  0  0  0
 16 42  1  0  0  0  0
 18 43  1  0  0  0  0
 18 44  1  0  0  0  0
 21 45  1  0  0  0  0
 23 46  1  0  0  0  0
M  END
> <idnumber>
Z2803829970

> <heavy_atoms>
28

> <LogS>
-4.309

> <LogP>
-0.7

> <rotating_bonds>
4

> <PSA>
87.22

> <hb_acceptors>
5

> <hb_donors>
2

> <Collection>
Advanced

> <link>
https://www.enaminestore.com/catalog/Z2803829970

> <ROCS_ShapeQuery>
x0446_0A_x1080_0A_x0929_0A_x0812_0A_x0719_0A_x1140_0A_x0528_0A_x0310_0A

> <ROCS_TanimotoCombo>
0.463 

> <ROCS_ShapeTanimoto>
0.279 

> <ROCS_ColorTanimoto>
0.183 

> <ROCS_RefTversky>
0.253 

> <ROCS_RefColorTversky>
0.220 

> <ROCS_RefTverskyCombo>
0.473 

> <ROCS_FitTversky>
1.607 

> <ROCS_FitColorTversky>
0.523 

> <ROCS_FitTverskyCombo>
2.130 

> <ROCS_ColorScore>
-7.937

> <ROCS_Overlap>
2988.220

> <ROCS_Rank>
195                 

$$$$
untitled-dbase-326101_20
  -OEChem-02092406493D

 39 43  0     0  0  0  0  0  0999 V2000
    5.7957   12.9672   25.4777 C   0  0  0  0  0  0  0  0  0  0  0  0
    5.5423   11.6043   25.5854 C   0  0  0  0  0  0  0  0  0  0  0  0
   13.0156   14.2578   23.0071 C   0  0  0  0  0  0  0  0  0  0  0  0
   10.7097   16.6988   19.5150 C   0  0  0  0  0  0  0  0  0  0  0  0
   11.6262    7.6983   22.3597 C   0  0  0  0  0  0  0  0  0  0  0  0
    6.9732   13.4010   24.8766 C   0  0  0  0  0  0  0  0  0  0  0  0
   13.0626   15.0079   21.8355 C   0  0  0  0  0  0  0  0  0  0  0  0
   11.8966   16.2422   20.0696 C   0  0  0  0  0  0  0  0  0  0  0  0
    6.4660   10.6783   25.0919 C   0  0  0  0  0  0  0  0  0  0  0  0
   11.7878   13.9816   23.5958 C   0  0  0  0  0  0  0  0  0  0  0  0
   10.4898    8.3154   22.9580 C   0  0  0  0  0  0  0  0  0  0  0  0
    9.5360   16.3780   20.1663 C   0  0  0  0  0  0  0  0  0  0  0  0
   12.5405    8.6246   21.9087 C   0  0  0  0  0  0  0  0  0  0  0  0
   11.8782   15.4849   21.2487 C   0  0  0  0  0  0  0  0  0  0  0  0
    7.8971   12.4635   24.3828 C   0  0  0  0  0  0  0  0  0  0  0  0
    7.6522   11.0844   24.4856 C   0  0  0  0  0  0  0  0  0  0  0  0
   10.6282   15.2085   21.8410 C   0  0  0  0  0  0  0  0  0  0  0  0
   10.6105   14.4560   23.0121 C   0  0  0  0  0  0  0  0  0  0  0  0
   10.5791    9.6900   22.9418 C   0  0  0  0  0  0  0  0  0  0  0  0
    9.0923   12.8306   23.7710 C   0  0  0  0  0  0  0  0  0  0  0  0
    9.6508   10.6617   23.4448 C   0  0  0  0  0  0  0  0  0  0  0  0
    9.4747   15.6502   21.3050 N   0  0  0  0  0  0  0  0  0  0  0  0
    8.5288   10.1792   24.0165 N   0  0  0  0  0  0  0  0  0  0  0  0
    9.9917   11.9513   23.2909 N   0  0  0  0  0  0  0  0  0  0  0  0
    9.4224   14.1644   23.6223 O   0  0  0  0  0  0  0  0  0  0  0  0
   12.0282   10.2311   22.2071 S   0  0  0  0  0  0  0  0  0  0  0  0
    5.0792   13.6879   25.8597 H   0  0  0  0  0  0  0  0  0  0  0  0
    4.6265   11.2577   26.0555 H   0  0  0  0  0  0  0  0  0  0  0  0
   13.9329   13.8902   23.4570 H   0  0  0  0  0  0  0  0  0  0  0  0
   10.7055   17.2859   18.6041 H   0  0  0  0  0  0  0  0  0  0  0  0
   11.7665    6.6294   22.2652 H   0  0  0  0  0  0  0  0  0  0  0  0
    7.1580   14.4696   24.8009 H   0  0  0  0  0  0  0  0  0  0  0  0
   14.0289   15.2169   21.3818 H   0  0  0  0  0  0  0  0  0  0  0  0
   12.8364   16.4804   19.5770 H   0  0  0  0  0  0  0  0  0  0  0  0
    6.2446    9.6171   25.1887 H   0  0  0  0  0  0  0  0  0  0  0  0
   11.7495   13.3966   24.5108 H   0  0  0  0  0  0  0  0  0  0  0  0
    9.6534    7.7707   23.3785 H   0  0  0  0  0  0  0  0  0  0  0  0
    8.5774   16.7083   19.7798 H   0  0  0  0  0  0  0  0  0  0  0  0
   13.4852    8.4348   21.4188 H   0  0  0  0  0  0  0  0  0  0  0  0
  1  2  1  0  0  0  0
  1  6  2  0  0  0  0
  2  9  2  0  0  0  0
  3  7  1  0  0  0  0
  3 10  2  0  0  0  0
  4  8  2  0  0  0  0
  4 12  1  0  0  0  0
  5 11  1  0  0  0  0
  5 13  2  0  0  0  0
  6 15  1  0  0  0  0
  7 14  2  0  0  0  0
  8 14  1  0  0  0  0
  9 16  1  0  0  0  0
 10 18  1  0  0  0  0
 11 19  2  0  0  0  0
 12 22  2  0  0  0  0
 13 26  1  0  0  0  0
 14 17  1  0  0  0  0
 15 16  1  0  0  0  0
 15 20  2  0  0  0  0
 16 23  2  0  0  0  0
 17 18  2  0  0  0  0
 17 22  1  0  0  0  0
 18 25  1  0  0  0  0
 19 21  1  0  0  0  0
 19 26  1  0  0  0  0
 20 24  1  0  0  0  0
 20 25  1  0  0  0  0
 21 23  1  0  0  0  0
 21 24  2  0  0  0  0
  1 27  1  0  0  0  0
  2 28  1  0  0  0  0
  3 29  1  0  0  0  0
  4 30  1  0  0  0  0
  5 31  1  0  0  0  0
  6 32  1  0  0  0  0
  7 33  1  0  0  0  0
  8 34  1  0  0  0  0
  9 35  1  0  0  0  0
 10 36  1  0  0  0  0
 11 37  1  0  0  0  0
 12 38  1  0  0  0  0
 13 39  1  0  0  0  0
M  END
> <idnumber>
Z31203798

> <heavy_atoms>
26

> <LogS>
-6.86

> <LogP>
5.056

> <rotating_bonds>
3

> <PSA>
47.9

> <hb_acceptors>
3

> <hb_donors>
0

> <Collection>
Legacy

> <link>
https://www.enaminestore.com/catalog/Z31203798

> <ROCS_ShapeQuery>
x0446_0A_x1080_0A_x0929_0A_x0812_0A_x0719_0A_x1140_0A_x0528_0A_x0310_0A

> <ROCS_TanimotoCombo>
0.463 

> <ROCS_ShapeTanimoto>
0.269 

> <ROCS_ColorTanimoto>
0.193 

> <ROCS_RefTversky>
0.244 

> <ROCS_RefColorTversky>
0.209 

> <ROCS_RefTverskyCombo>
0.454 

> <ROCS_FitTversky>
1.612 

> <ROCS_FitColorTversky>
0.717 

> <ROCS_FitTverskyCombo>
2.329 

> <ROCS_ColorScore>
-7.487

> <ROCS_Overlap>
2889.716

> <ROCS_Rank>
196                 

$$$$
untitled-dbase-1131064_21
  -OEChem-02092406493D

 43 46  0     1  0  0  0  0  0999 V2000
    1.8561   13.6047   20.6758 C   0  0  0  0  0  0  0  0  0  0  0  0
    2.4664   14.8337   20.5886 C   0  0  0  0  0  0  0  0  0  0  0  0
   10.3927   14.3686   22.4840 C   0  0  0  0  0  0  0  0  0  0  0  0
   11.4749   14.7569   21.7197 C   0  0  0  0  0  0  0  0  0  0  0  0
    3.4900   13.5264   22.0376 C   0  0  0  0  0  0  0  0  0  0  0  0
    4.5370   13.2179   23.0271 C   0  0  0  0  0  0  0  0  0  0  0  0
    4.6635   12.0509   23.6762 C   0  0  0  0  0  0  0  0  0  0  0  0
   10.4752   13.4637   23.6376 C   0  0  0  0  0  0  0  0  0  0  0  0
    5.7265   11.7917   24.6688 C   0  0  0  0  0  0  0  0  0  0  0  0
    9.0563   10.2726   22.6395 C   0  0  0  0  0  0  0  0  0  0  0  0
    9.4439   10.0445   24.1117 C   0  0  0  0  0  0  0  0  0  0  0  0
    7.4531   12.2179   22.8471 C   0  0  0  0  0  0  0  0  0  0  0  0
    8.1094   11.8529   25.2702 C   0  0  0  0  0  0  0  0  0  0  0  0
    8.8934   11.7925   22.5097 C   0  0  1  0  0  0  0  0  0  0  0  0
    9.4866   11.4487   24.7240 C   0  0  2  0  0  0  0  0  0  0  0  0
   12.9068   14.4197   21.8043 C   0  0  0  0  0  0  0  0  0  0  0  0
    2.4978   12.7957   21.5797 N   0  0  0  0  0  0  0  0  0  0  0  0
    9.1699   14.8948   22.0983 N   0  0  0  0  0  0  0  0  0  0  0  0
    9.2926   15.6860   21.0444 N   0  0  0  0  0  0  0  0  0  0  0  0
    3.5110   14.7687   21.4670 N   0  0  0  0  0  0  0  0  0  0  0  0
    9.7493   12.2897   23.5743 N   0  0  0  0  0  0  0  0  0  0  0  0
    7.0517   11.8857   24.2369 N   0  0  0  0  0  0  0  0  0  0  0  0
   11.1807   13.8152   24.5804 O   0  0  0  0  0  0  0  0  0  0  0  0
    5.3838   11.5166   25.8199 O   0  0  0  0  0  0  0  0  0  0  0  0
   10.8736   15.8081   20.5040 S   0  0  0  0  0  0  0  0  0  0  0  0
    0.9862   13.2608   20.1352 H   0  0  0  0  0  0  0  0  0  0  0  0
    2.2601   15.7186   20.0042 H   0  0  0  0  0  0  0  0  0  0  0  0
    5.2347   14.0265   23.2376 H   0  0  0  0  0  0  0  0  0  0  0  0
    3.9730   11.2297   23.5105 H   0  0  0  0  0  0  0  0  0  0  0  0
    9.8680    9.9196   21.9925 H   0  0  0  0  0  0  0  0  0  0  0  0
    8.1492    9.7226   22.3686 H   0  0  0  0  0  0  0  0  0  0  0  0
    8.7379    9.3778   24.6172 H   0  0  0  0  0  0  0  0  0  0  0  0
   10.4357    9.5798   24.1569 H   0  0  0  0  0  0  0  0  0  0  0  0
    7.3501   13.3044   22.7466 H   0  0  0  0  0  0  0  0  0  0  0  0
    6.7475   11.7594   22.1475 H   0  0  0  0  0  0  0  0  0  0  0  0
    7.8224   11.1558   26.0659 H   0  0  0  0  0  0  0  0  0  0  0  0
    8.1547   12.8586   25.7091 H   0  0  0  0  0  0  0  0  0  0  0  0
    9.1925   12.1689   21.5299 H   0  0  0  0  0  0  0  0  0  0  0  0
   10.2529   11.5376   25.5027 H   0  0  0  0  0  0  0  0  0  0  0  0
   13.1431   13.5250   21.2036 H   0  0  0  0  0  0  0  0  0  0  0  0
   13.5501   15.2419   21.4442 H   0  0  0  0  0  0  0  0  0  0  0  0
   13.2263   14.2180   22.8421 H   0  0  0  0  0  0  0  0  0  0  0  0
    4.1739   15.5096   21.6559 H   0  0  0  0  0  0  0  0  0  0  0  0
  1  2  2  0  0  0  0
  1 17  1  0  0  0  0
  2 20  1  0  0  0  0
  3  4  2  0  0  0  0
  3  8  1  0  0  0  0
  3 18  1  0  0  0  0
  4 16  1  0  0  0  0
  4 25  1  0  0  0  0
  5  6  1  0  0  0  0
  5 17  2  0  0  0  0
  5 20  1  0  0  0  0
  6  7  2  0  0  0  0
  7  9  1  4  0  0  0
  8 21  1  0  0  0  0
  8 23  2  0  0  0  0
  9 22  1  0  0  0  0
  9 24  2  0  0  0  0
 10 11  1  0  0  0  0
 10 14  1  0  0  0  0
 11 15  1  0  0  0  0
 12 14  1  0  0  0  0
 12 22  1  0  0  0  0
 13 15  1  0  0  0  0
 13 22  1  0  0  0  0
 14 21  1  6  0  0  0
 15 21  1  6  0  0  0
 18 19  2  0  0  0  0
 19 25  1  0  0  0  0
  1 26  1  0  0  0  0
  2 27  1  0  0  0  0
  6 28  1  0  0  0  0
  7 29  1  0  0  0  0
 10 30  1  0  0  0  0
 10 31  1  0  0  0  0
 11 32  1  0  0  0  0
 11 33  1  0  0  0  0
 12 34  1  0  0  0  0
 12 35  1  0  0  0  0
 13 36  1  0  0  0  0
 13 37  1  0  0  0  0
 14 38  1  0  0  0  0
 15 39  1  0  0  0  0
 16 40  1  0  0  0  0
 16 41  1  0  0  0  0
 16 42  1  0  0  0  0
 20 43  1  0  0  0  0
M  END
> <idnumber>
Z5606587311

> <heavy_atoms>
25

> <LogS>
-3.267

> <LogP>
-0.476

> <rotating_bonds>
3

> <PSA>
95.08

> <hb_acceptors>
5

> <hb_donors>
1

> <Collection>
Advanced

> <link>
https://www.enaminestore.com/catalog/Z5606587311

> <ROCS_ShapeQuery>
x0446_0A_x1080_0A_x0929_0A_x0812_0A_x0719_0A_x1140_0A_x0528_0A_x0310_0A

> <ROCS_TanimotoCombo>
0.462 

> <ROCS_ShapeTanimoto>
0.240 

> <ROCS_ColorTanimoto>
0.223 

> <ROCS_RefTversky>
0.221 

> <ROCS_RefColorTversky>
0.265 

> <ROCS_RefTverskyCombo>
0.486 

> <ROCS_FitTversky>
1.535 

> <ROCS_FitColorTversky>
0.586 

> <ROCS_FitTverskyCombo>
2.121 

> <ROCS_ColorScore>
-9.548

> <ROCS_Overlap>
2613.303

> <ROCS_Rank>
197                 

$$$$
untitled-dbase-325532_7
  -OEChem-02092406493D

 42 47  0     0  0  0  0  0  0999 V2000
   13.0412   15.9895   22.2659 C   0  0  0  0  0  0  0  0  0  0  0  0
   13.1318   14.7512   22.9089 C   0  0  0  0  0  0  0  0  0  0  0  0
   10.5726    6.9933   21.6334 C   0  0  0  0  0  0  0  0  0  0  0  0
   11.8373   16.4215   21.6942 C   0  0  0  0  0  0  0  0  0  0  0  0
   12.0263   13.8988   23.0055 C   0  0  0  0  0  0  0  0  0  0  0  0
    9.5737    7.8658   22.1541 C   0  0  0  0  0  0  0  0  0  0  0  0
   11.7716    7.6410   21.4323 C   0  0  0  0  0  0  0  0  0  0  0  0
    8.1139   12.4899   23.7336 C   0  0  0  0  0  0  0  0  0  0  0  0
    7.2780   13.4580   24.3851 C   0  0  0  0  0  0  0  0  0  0  0  0
   10.7216   15.5764   21.7841 C   0  0  0  0  0  0  0  0  0  0  0  0
   10.8421   14.3529   22.4287 C   0  0  0  0  0  0  0  0  0  0  0  0
   10.0475    9.1473   22.3313 C   0  0  0  0  0  0  0  0  0  0  0  0
    6.3825   12.8591   25.2522 C   0  0  0  0  0  0  0  0  0  0  0  0
    9.1535   12.5963   22.8022 C   0  0  0  0  0  0  0  0  0  0  0  0
    7.7919   11.2009   24.1422 C   0  0  0  0  0  0  0  0  0  0  0  0
    9.3600   10.3043   22.8328 C   0  0  0  0  0  0  0  0  0  0  0  0
    7.3377   14.9476   24.2153 C   0  0  0  0  0  0  0  0  0  0  0  0
    5.3586   13.5826   26.0701 C   0  0  0  0  0  0  0  0  0  0  0  0
    6.0800   15.6390   24.7637 C   0  0  0  0  0  0  0  0  0  0  0  0
    5.6824   15.0827   26.1377 C   0  0  0  0  0  0  0  0  0  0  0  0
    9.4381   15.7263   21.3293 N   0  0  0  0  0  0  0  0  0  0  0  0
    9.7799   11.4893   22.3499 N   0  0  0  0  0  0  0  0  0  0  0  0
    8.3823   10.0644   23.7239 N   0  0  0  0  0  0  0  0  0  0  0  0
    8.7522   14.6397   21.6669 N   0  0  0  0  0  0  0  0  0  0  0  0
    9.5900   13.8198   22.3228 N   0  0  0  0  0  0  0  0  0  0  0  0
   11.6902    9.2944   21.8706 S   0  0  0  0  0  0  0  0  0  0  0  0
    6.5233   11.1645   25.2787 S   0  0  0  0  0  0  0  0  0  0  0  0
   13.9192   16.6278   22.2075 H   0  0  0  0  0  0  0  0  0  0  0  0
   14.0801   14.4438   23.3433 H   0  0  0  0  0  0  0  0  0  0  0  0
   10.4202    5.9439   21.4178 H   0  0  0  0  0  0  0  0  0  0  0  0
   11.7762   17.3842   21.1975 H   0  0  0  0  0  0  0  0  0  0  0  0
   12.0973   12.9390   23.5039 H   0  0  0  0  0  0  0  0  0  0  0  0
    8.5608    7.5603   22.3857 H   0  0  0  0  0  0  0  0  0  0  0  0
   12.6917    7.2222   21.0495 H   0  0  0  0  0  0  0  0  0  0  0  0
    8.2205   15.3262   24.7450 H   0  0  0  0  0  0  0  0  0  0  0  0
    7.4423   15.2143   23.1583 H   0  0  0  0  0  0  0  0  0  0  0  0
    4.3738   13.4458   25.6066 H   0  0  0  0  0  0  0  0  0  0  0  0
    5.3069   13.1762   27.0865 H   0  0  0  0  0  0  0  0  0  0  0  0
    6.2572   16.7184   24.8322 H   0  0  0  0  0  0  0  0  0  0  0  0
    5.2467   15.4946   24.0641 H   0  0  0  0  0  0  0  0  0  0  0  0
    4.8135   15.6265   26.5255 H   0  0  0  0  0  0  0  0  0  0  0  0
    6.5059   15.2496   26.8440 H   0  0  0  0  0  0  0  0  0  0  0  0
  1  2  1  0  0  0  0
  1  4  2  0  0  0  0
  2  5  2  0  0  0  0
  3  6  1  0  0  0  0
  3  7  2  0  0  0  0
  4 10  1  0  0  0  0
  5 11  1  0  0  0  0
  6 12  2  0  0  0  0
  7 26  1  0  0  0  0
  8  9  1  0  0  0  0
  8 14  1  0  0  0  0
  8 15  2  0  0  0  0
  9 13  2  0  0  0  0
  9 17  1  0  0  0  0
 10 11  2  0  0  0  0
 10 21  1  0  0  0  0
 11 25  1  0  0  0  0
 12 16  1  0  0  0  0
 12 26  1  0  0  0  0
 13 18  1  0  0  0  0
 13 27  1  0  0  0  0
 14 22  2  0  0  0  0
 14 25  1  0  0  0  0
 15 23  1  0  0  0  0
 15 27  1  0  0  0  0
 16 22  1  0  0  0  0
 16 23  2  0  0  0  0
 17 19  1  0  0  0  0
 18 20  1  0  0  0  0
 19 20  1  0  0  0  0
 21 24  2  0  0  0  0
 24 25  1  0  0  0  0
  1 28  1  0  0  0  0
  2 29  1  0  0  0  0
  3 30  1  0  0  0  0
  4 31  1  0  0  0  0
  5 32  1  0  0  0  0
  6 33  1  0  0  0  0
  7 34  1  0  0  0  0
 17 35  1  0  0  0  0
 17 36  1  0  0  0  0
 18 37  1  0  0  0  0
 18 38  1  0  0  0  0
 19 39  1  0  0  0  0
 19 40  1  0  0  0  0
 20 41  1  0  0  0  0
 20 42  1  0  0  0  0
M  END
> <idnumber>
Z31204235

> <heavy_atoms>
27

> <LogS>
-7.66

> <LogP>
6.374

> <rotating_bonds>
2

> <PSA>
56.49

> <hb_acceptors>
4

> <hb_donors>
0

> <Collection>
Legacy

> <link>
https://www.enaminestore.com/catalog/Z31204235

> <ROCS_ShapeQuery>
x0446_0A_x1080_0A_x0929_0A_x0812_0A_x0719_0A_x1140_0A_x0528_0A_x0310_0A

> <ROCS_TanimotoCombo>
0.462 

> <ROCS_ShapeTanimoto>
0.277 

> <ROCS_ColorTanimoto>
0.185 

> <ROCS_RefTversky>
0.251 

> <ROCS_RefColorTversky>
0.207 

> <ROCS_RefTverskyCombo>
0.458 

> <ROCS_FitTversky>
1.622 

> <ROCS_FitColorTversky>
0.633 

> <ROCS_FitTverskyCombo>
2.255 

> <ROCS_ColorScore>
-7.433

> <ROCS_Overlap>
2964.181

> <ROCS_Rank>
198                 

$$$$
untitled-dbase-738763_3
  -OEChem-02092406493D

 53 56  0     1  0  0  0  0  0999 V2000
   13.0783   15.3391   22.7203 C   0  0  0  0  0  0  0  0  0  0  0  0
   12.0409   15.0151   23.5875 C   0  0  0  0  0  0  0  0  0  0  0  0
   10.7264   15.0556   23.1359 C   0  0  0  0  0  0  0  0  0  0  0  0
   12.7511   15.6943   21.4216 C   0  0  0  0  0  0  0  0  0  0  0  0
   10.5044   15.4237   21.8187 C   0  0  0  0  0  0  0  0  0  0  0  0
    8.9448    9.4821   24.7304 C   0  0  0  0  0  0  0  0  0  0  0  0
    7.6291   10.2796   24.8335 C   0  0  0  0  0  0  0  0  0  0  0  0
   10.2050   11.5454   24.1133 C   0  0  0  0  0  0  0  0  0  0  0  0
    6.5892   12.1803   23.4051 C   0  0  0  0  0  0  0  0  0  0  0  0
    9.6934   10.1852   23.5694 C   0  0  2  0  0  0  0  0  0  0  0  0
    8.9057   12.3317   24.3392 C   0  0  2  0  0  0  0  0  0  0  0  0
    7.8256   11.3716   23.7552 C   0  0  1  0  0  0  0  0  0  0  0  0
    8.5525   10.5966   22.6085 C   0  0  0  0  0  0  0  0  0  0  0  0
   12.3612   14.6289   24.9935 C   0  0  0  0  0  0  0  0  0  0  0  0
   13.8385   16.0490   20.4634 C   0  0  0  0  0  0  0  0  0  0  0  0
    9.0294   11.4093   21.3894 C   0  0  0  0  0  0  0  0  0  0  0  0
    7.7582    9.4082   22.0222 C   0  0  0  0  0  0  0  0  0  0  0  0
    9.0688   15.8615   19.9739 C   0  0  0  0  0  0  0  0  0  0  0  0
    9.5829   14.7130   24.0465 C   0  0  0  0  0  0  0  0  0  0  0  0
   11.4863   15.7452   20.9468 N   0  0  0  0  0  0  0  0  0  0  0  0
    8.7918   13.5735   23.5362 N   0  0  2  0  0  0  0  0  0  0  0  0
    6.5290   14.6871   24.1964 O   0  0  0  0  0  0  0  0  0  0  0  0
    7.0142   14.2280   21.7548 O   0  0  0  0  0  0  0  0  0  0  0  0
    9.2233   15.4761   21.3345 O   0  0  0  0  0  0  0  0  0  0  0  0
    7.1259   13.8749   23.1543 S   0  0  0  0  0  0  0  0  0  0  0  0
   14.1116   15.3147   23.0515 H   0  0  0  0  0  0  0  0  0  0  0  0
    9.5107    9.5116   25.6675 H   0  0  0  0  0  0  0  0  0  0  0  0
    8.7445    8.4304   24.5004 H   0  0  0  0  0  0  0  0  0  0  0  0
    6.7604    9.6450   24.6295 H   0  0  0  0  0  0  0  0  0  0  0  0
    7.4929   10.6961   25.8377 H   0  0  0  0  0  0  0  0  0  0  0  0
   10.7557   11.4151   25.0515 H   0  0  0  0  0  0  0  0  0  0  0  0
   10.8824   12.0348   23.4065 H   0  0  0  0  0  0  0  0  0  0  0  0
    6.0920   11.8308   22.4977 H   0  0  0  0  0  0  0  0  0  0  0  0
    5.8724   12.1927   24.2319 H   0  0  0  0  0  0  0  0  0  0  0  0
   10.4848    9.5719   23.1322 H   0  0  0  0  0  0  0  0  0  0  0  0
    8.7436   12.5614   25.3992 H   0  0  0  0  0  0  0  0  0  0  0  0
   12.3744   15.5157   25.6380 H   0  0  0  0  0  0  0  0  0  0  0  0
   11.6222   13.9208   25.3889 H   0  0  0  0  0  0  0  0  0  0  0  0
   13.3399   14.1366   25.0567 H   0  0  0  0  0  0  0  0  0  0  0  0
   14.1849   15.1545   19.9319 H   0  0  0  0  0  0  0  0  0  0  0  0
   13.4931   16.7822   19.7235 H   0  0  0  0  0  0  0  0  0  0  0  0
   14.6944   16.4995   20.9822 H   0  0  0  0  0  0  0  0  0  0  0  0
    8.1743   11.6563   20.7702 H   0  0  0  0  0  0  0  0  0  0  0  0
    9.7354   10.8151   20.8201 H   0  0  0  0  0  0  0  0  0  0  0  0
    9.5085   12.3190   21.7338 H   0  0  0  0  0  0  0  0  0  0  0  0
    6.9863    9.7909   21.3662 H   0  0  0  0  0  0  0  0  0  0  0  0
    7.3104    8.8499   22.8348 H   0  0  0  0  0  0  0  0  0  0  0  0
    8.4360    8.7730   21.4656 H   0  0  0  0  0  0  0  0  0  0  0  0
    8.0076   15.8640   19.7134 H   0  0  0  0  0  0  0  0  0  0  0  0
    9.6108   15.1621   19.3324 H   0  0  0  0  0  0  0  0  0  0  0  0
    9.4767   16.8662   19.8405 H   0  0  0  0  0  0  0  0  0  0  0  0
    9.9498   14.4489   25.0443 H   0  0  0  0  0  0  0  0  0  0  0  0
    8.9053   15.5651   24.1641 H   0  0  0  0  0  0  0  0  0  0  0  0
  1  2  2  0  0  0  0
  1  4  1  0  0  0  0
  2  3  1  0  0  0  0
  2 14  1  0  0  0  0
  3  5  2  0  0  0  0
  3 19  1  0  0  0  0
  4 15  1  0  0  0  0
  4 20  2  0  0  0  0
  5 20  1  0  0  0  0
  5 24  1  0  0  0  0
  6  7  1  0  0  0  0
  6 10  1  0  0  0  0
  7 12  1  1  0  0  0
  8 10  1  1  0  0  0
  8 11  1  0  0  0  0
  9 12  1  0  0  0  0
  9 25  1  0  0  0  0
 10 13  1  0  0  0  0
 11 12  1  0  0  0  0
 11 21  1  6  0  0  0
 12 13  1  0  0  0  0
 13 16  1  0  0  0  0
 13 17  1  0  0  0  0
 18 24  1  0  0  0  0
 19 21  1  0  0  0  0
 21 25  1  0  0  0  0
 22 25  2  0  0  0  0
 23 25  2  0  0  0  0
  1 26  1  0  0  0  0
  6 27  1  0  0  0  0
  6 28  1  0  0  0  0
  7 29  1  0  0  0  0
  7 30  1  0  0  0  0
  8 31  1  0  0  0  0
  8 32  1  0  0  0  0
  9 33  1  0  0  0  0
  9 34  1  0  0  0  0
 10 35  1  0  0  0  0
 11 36  1  0  0  0  0
 14 37  1  0  0  0  0
 14 38  1  0  0  0  0
 14 39  1  0  0  0  0
 15 40  1  0  0  0  0
 15 41  1  0  0  0  0
 15 42  1  0  0  0  0
 16 43  1  0  0  0  0
 16 44  1  0  0  0  0
 16 45  1  0  0  0  0
 17 46  1  0  0  0  0
 17 47  1  0  0  0  0
 17 48  1  0  0  0  0
 18 49  1  0  0  0  0
 18 50  1  0  0  0  0
 18 51  1  0  0  0  0
 19 52  1  0  0  0  0
 19 53  1  0  0  0  0
M  END
> <idnumber>
Z2144503862

> <heavy_atoms>
25

> <LogS>
-3.77

> <LogP>
3.707

> <rotating_bonds>
3

> <PSA>
59.5

> <hb_acceptors>
4

> <hb_donors>
0

> <Collection>
HTS

> <link>
https://www.enaminestore.com/catalog/Z2144503862

> <ROCS_ShapeQuery>
x0446_0A_x1080_0A_x0929_0A_x0812_0A_x0719_0A_x1140_0A_x0528_0A_x0310_0A

> <ROCS_TanimotoCombo>
0.462 

> <ROCS_ShapeTanimoto>
0.258 

> <ROCS_ColorTanimoto>
0.205 

> <ROCS_RefTversky>
0.234 

> <ROCS_RefColorTversky>
0.239 

> <ROCS_RefTverskyCombo>
0.473 

> <ROCS_FitTversky>
1.644 

> <ROCS_FitColorTversky>
0.589 

> <ROCS_FitTverskyCombo>
2.233 

> <ROCS_ColorScore>
-8.591

> <ROCS_Overlap>
2767.608

> <ROCS_Rank>
199                 

$$$$
untitled-dbase-326249_48
  -OEChem-02092406493D

 40 43  0     0  0  0  0  0  0999 V2000
    5.7968   12.9569   25.4969 C   0  0  0  0  0  0  0  0  0  0  0  0
    5.5467   11.5931   25.6000 C   0  0  0  0  0  0  0  0  0  0  0  0
   13.0175   14.2854   22.9540 C   0  0  0  0  0  0  0  0  0  0  0  0
   13.0416   15.0424   21.7827 C   0  0  0  0  0  0  0  0  0  0  0  0
   12.4841    8.2527   23.2124 C   0  0  0  0  0  0  0  0  0  0  0  0
    6.9710   13.3957   24.8929 C   0  0  0  0  0  0  0  0  0  0  0  0
   11.5983    9.1900   23.7321 C   0  0  0  0  0  0  0  0  0  0  0  0
    6.4705   10.6711   25.0991 C   0  0  0  0  0  0  0  0  0  0  0  0
   11.8008   13.9918   23.5698 C   0  0  0  0  0  0  0  0  0  0  0  0
   11.8490   15.5058   21.2271 C   0  0  0  0  0  0  0  0  0  0  0  0
   12.3120    7.8583   21.8953 C   0  0  0  0  0  0  0  0  0  0  0  0
   10.4949    9.2380   21.6257 C   0  0  0  0  0  0  0  0  0  0  0  0
    7.8950   12.4623   24.3917 C   0  0  0  0  0  0  0  0  0  0  0  0
   10.5818    9.6970   22.9302 C   0  0  0  0  0  0  0  0  0  0  0  0
    7.6535   11.0822   24.4898 C   0  0  0  0  0  0  0  0  0  0  0  0
   10.6082   14.4552   23.0142 C   0  0  0  0  0  0  0  0  0  0  0  0
   10.6323   15.2122   21.8429 C   0  0  0  0  0  0  0  0  0  0  0  0
    9.0870   12.8345   23.7768 C   0  0  0  0  0  0  0  0  0  0  0  0
    9.6488   10.6681   23.4396 C   0  0  0  0  0  0  0  0  0  0  0  0
    8.8301   14.8269   20.3397 C   0  0  0  0  0  0  0  0  0  0  0  0
   11.3368    8.3284   21.0857 N   0  0  0  0  0  0  0  0  0  0  0  0
    8.5301   10.1809   24.0137 N   0  0  0  0  0  0  0  0  0  0  0  0
    9.9864   11.9590   23.2896 N   0  0  0  0  0  0  0  0  0  0  0  0
    9.4110   14.1588   23.6338 O   0  0  0  0  0  0  0  0  0  0  0  0
    9.4745   15.6716   21.2913 O   0  0  0  0  0  0  0  0  0  0  0  0
    5.0805   13.6743   25.8853 H   0  0  0  0  0  0  0  0  0  0  0  0
    4.6324   11.2424   26.0704 H   0  0  0  0  0  0  0  0  0  0  0  0
   13.9463   13.9244   23.3865 H   0  0  0  0  0  0  0  0  0  0  0  0
   13.9887   15.2710   21.3034 H   0  0  0  0  0  0  0  0  0  0  0  0
   13.2847    7.8441   23.8181 H   0  0  0  0  0  0  0  0  0  0  0  0
    7.1522   14.4649   24.8192 H   0  0  0  0  0  0  0  0  0  0  0  0
   11.7120    9.5158   24.7630 H   0  0  0  0  0  0  0  0  0  0  0  0
    6.2505    9.6092   25.1935 H   0  0  0  0  0  0  0  0  0  0  0  0
   11.7889   13.4014   24.4820 H   0  0  0  0  0  0  0  0  0  0  0  0
   11.8750   16.0964   20.3155 H   0  0  0  0  0  0  0  0  0  0  0  0
   12.9765    7.1291   21.4428 H   0  0  0  0  0  0  0  0  0  0  0  0
    9.7247    9.5952   20.9481 H   0  0  0  0  0  0  0  0  0  0  0  0
    7.9199   15.3117   19.9785 H   0  0  0  0  0  0  0  0  0  0  0  0
    8.5850   13.8701   20.8076 H   0  0  0  0  0  0  0  0  0  0  0  0
    9.5075   14.6564   19.4995 H   0  0  0  0  0  0  0  0  0  0  0  0
  1  2  1  0  0  0  0
  1  6  2  0  0  0  0
  2  8  2  0  0  0  0
  3  4  1  0  0  0  0
  3  9  2  0  0  0  0
  4 10  2  0  0  0  0
  5  7  2  0  0  0  0
  5 11  1  0  0  0  0
  6 13  1  0  0  0  0
  7 14  1  0  0  0  0
  8 15  1  0  0  0  0
  9 16  1  0  0  0  0
 10 17  1  0  0  0  0
 11 21  2  0  0  0  0
 12 14  2  0  0  0  0
 12 21  1  0  0  0  0
 13 15  1  0  0  0  0
 13 18  2  0  0  0  0
 14 19  1  0  0  0  0
 15 22  2  0  0  0  0
 16 17  2  0  0  0  0
 16 24  1  0  0  0  0
 17 25  1  0  0  0  0
 18 23  1  0  0  0  0
 18 24  1  0  0  0  0
 19 22  1  0  0  0  0
 19 23  2  0  0  0  0
 20 25  1  0  0  0  0
  1 26  1  0  0  0  0
  2 27  1  0  0  0  0
  3 28  1  0  0  0  0
  4 29  1  0  0  0  0
  5 30  1  0  0  0  0
  6 31  1  0  0  0  0
  7 32  1  0  0  0  0
  8 33  1  0  0  0  0
  9 34  1  0  0  0  0
 10 35  1  0  0  0  0
 11 36  1  0  0  0  0
 12 37  1  0  0  0  0
 20 38  1  0  0  0  0
 20 39  1  0  0  0  0
 20 40  1  0  0  0  0
M  END
> <idnumber>
Z31211777

> <heavy_atoms>
25

> <LogS>
-5.51

> <LogP>
3.451

> <rotating_bonds>
4

> <PSA>
57.13

> <hb_acceptors>
4

> <hb_donors>
0

> <Collection>
HTS

> <link>
https://www.enaminestore.com/catalog/Z31211777

> <ROCS_ShapeQuery>
x0446_0A_x1080_0A_x0929_0A_x0812_0A_x0719_0A_x1140_0A_x0528_0A_x0310_0A

> <ROCS_TanimotoCombo>
0.462 

> <ROCS_ShapeTanimoto>
0.270 

> <ROCS_ColorTanimoto>
0.193 

> <ROCS_RefTversky>
0.244 

> <ROCS_RefColorTversky>
0.209 

> <ROCS_RefTverskyCombo>
0.452 

> <ROCS_FitTversky>
1.654 

> <ROCS_FitColorTversky>
0.715 

> <ROCS_FitTverskyCombo>
2.369 

> <ROCS_ColorScore>
-7.462

> <ROCS_Overlap>
2882.348

> <ROCS_Rank>
200                 

$$$$
untitled-dbase-614411_181
  -OEChem-02092406493D

 38 41  0     0  0  0  0  0  0999 V2000
   11.9568    7.3325   22.1301 C   0  0  0  0  0  0  0  0  0  0  0  0
   12.5205    8.4344   22.7732 C   0  0  0  0  0  0  0  0  0  0  0  0
   10.5784    7.2749   21.9244 C   0  0  0  0  0  0  0  0  0  0  0  0
   13.1665   14.6163   22.4442 C   0  0  0  0  0  0  0  0  0  0  0  0
   12.8274   15.1364   21.1952 C   0  0  0  0  0  0  0  0  0  0  0  0
   11.7057    9.4786   23.2108 C   0  0  0  0  0  0  0  0  0  0  0  0
    9.7636    8.3191   22.3620 C   0  0  0  0  0  0  0  0  0  0  0  0
   12.1653   14.2903   23.3592 C   0  0  0  0  0  0  0  0  0  0  0  0
   11.4871   15.3306   20.8611 C   0  0  0  0  0  0  0  0  0  0  0  0
    6.0585   12.7064   24.9156 C   0  0  0  0  0  0  0  0  0  0  0  0
   10.3273    9.4210   23.0052 C   0  0  0  0  0  0  0  0  0  0  0  0
   10.8251   14.4845   23.0251 C   0  0  0  0  0  0  0  0  0  0  0  0
   10.4859   15.0047   21.7761 C   0  0  0  0  0  0  0  0  0  0  0  0
    7.5028   11.3416   24.2382 C   0  0  0  0  0  0  0  0  0  0  0  0
   10.1316   11.8600   23.4742 C   0  0  0  0  0  0  0  0  0  0  0  0
    9.4756   10.5126   23.4628 C   0  0  0  0  0  0  0  0  0  0  0  0
    9.3597   12.8755   23.8824 C   0  0  0  0  0  0  0  0  0  0  0  0
    8.7795   16.5275   21.1231 C   0  0  0  0  0  0  0  0  0  0  0  0
    6.2518   11.3885   24.6502 N   0  0  0  0  0  0  0  0  0  0  0  0
    7.1030   13.5013   24.7008 N   0  0  0  0  0  0  0  0  0  0  0  0
    8.2483   10.2758   23.8312 N   0  0  0  0  0  0  0  0  0  0  0  0
    8.0430   12.6278   24.2628 N   0  0  0  0  0  0  0  0  0  0  0  0
    9.8543   14.1625   23.9301 O   0  0  0  0  0  0  0  0  0  0  0  0
    9.1808   15.2001   21.4385 O   0  0  0  0  0  0  0  0  0  0  0  0
    7.4557   16.4936   20.8219 F   0  0  0  0  0  0  0  0  0  0  0  0
    8.9039   17.3043   22.2271 F   0  0  0  0  0  0  0  0  0  0  0  0
   12.5912    6.5195   21.7894 H   0  0  0  0  0  0  0  0  0  0  0  0
   13.5937    8.4791   22.9335 H   0  0  0  0  0  0  0  0  0  0  0  0
   10.1395    6.4171   21.4233 H   0  0  0  0  0  0  0  0  0  0  0  0
   14.2103   14.4648   22.7043 H   0  0  0  0  0  0  0  0  0  0  0  0
   13.6068   15.3902   20.4830 H   0  0  0  0  0  0  0  0  0  0  0  0
   12.1555   10.3326   23.7109 H   0  0  0  0  0  0  0  0  0  0  0  0
    8.6908    8.2634   22.1964 H   0  0  0  0  0  0  0  0  0  0  0  0
   12.4362   13.8853   24.3305 H   0  0  0  0  0  0  0  0  0  0  0  0
   11.2300   15.7377   19.8871 H   0  0  0  0  0  0  0  0  0  0  0  0
    5.1230   13.1045   25.2792 H   0  0  0  0  0  0  0  0  0  0  0  0
   11.1618   11.9780   23.1641 H   0  0  0  0  0  0  0  0  0  0  0  0
    9.3206   16.9560   20.2726 H   0  0  0  0  0  0  0  0  0  0  0  0
  1  2  1  0  0  0  0
  1  3  2  0  0  0  0
  2  6  2  0  0  0  0
  3  7  1  0  0  0  0
  4  5  1  0  0  0  0
  4  8  2  0  0  0  0
  5  9  2  0  0  0  0
  6 11  1  0  0  0  0
  7 11  2  0  0  0  0
  8 12  1  0  0  0  0
  9 13  1  0  0  0  0
 10 19  1  0  0  0  0
 10 20  2  0  0  0  0
 11 16  1  0  0  0  0
 12 13  2  0  0  0  0
 12 23  1  0  0  0  0
 13 24  1  0  0  0  0
 14 19  2  0  0  0  0
 14 21  1  0  0  0  0
 14 22  1  0  0  0  0
 15 16  1  0  0  0  0
 15 17  2  0  0  0  0
 16 21  2  0  0  0  0
 17 22  1  0  0  0  0
 17 23  1  0  0  0  0
 18 24  1  0  0  0  0
 18 25  1  0  0  0  0
 18 26  1  0  0  0  0
 20 22  1  0  0  0  0
  1 27  1  0  0  0  0
  2 28  1  0  0  0  0
  3 29  1  0  0  0  0
  4 30  1  0  0  0  0
  5 31  1  0  0  0  0
  6 32  1  0  0  0  0
  7 33  1  0  0  0  0
  8 34  1  0  0  0  0
  9 35  1  0  0  0  0
 10 36  1  0  0  0  0
 15 37  1  0  0  0  0
 18 38  1  0  0  0  0
M  END
> <idnumber>
Z1140379436

> <heavy_atoms>
26

> <LogS>
-6.621

> <LogP>
3.565

> <rotating_bonds>
5

> <PSA>
61.54

> <hb_acceptors>
4

> <hb_donors>
0

> <Collection>
Advanced

> <link>
https://www.enaminestore.com/catalog/Z1140379436

> <ROCS_ShapeQuery>
x0446_0A_x1080_0A_x0929_0A_x0812_0A_x0719_0A_x1140_0A_x0528_0A_x0310_0A

> <ROCS_TanimotoCombo>
0.462 

> <ROCS_ShapeTanimoto>
0.266 

> <ROCS_ColorTanimoto>
0.197 

> <ROCS_RefTversky>
0.242 

> <ROCS_RefColorTversky>
0.212 

> <ROCS_RefTverskyCombo>
0.454 

> <ROCS_FitTversky>
1.597 

> <ROCS_FitColorTversky>
0.727 

> <ROCS_FitTverskyCombo>
2.324 

> <ROCS_ColorScore>
-7.601

> <ROCS_Overlap>
2856.792

> <ROCS_Rank>
201                 

$$$$
untitled-dbase-455562_41
  -OEChem-02092406493D

 46 49  0     0  0  0  0  0  0999 V2000
   12.2592    8.1385   21.2098 C   0  0  0  0  0  0  0  0  0  0  0  0
   11.4341    9.0101   20.4992 C   0  0  0  0  0  0  0  0  0  0  0  0
   12.1042    8.0001   22.5892 C   0  0  0  0  0  0  0  0  0  0  0  0
   13.5843   15.5935   21.7303 C   0  0  0  0  0  0  0  0  0  0  0  0
   12.9085   16.3556   20.7774 C   0  0  0  0  0  0  0  0  0  0  0  0
   10.4540    9.7435   21.1679 C   0  0  0  0  0  0  0  0  0  0  0  0
   11.1241    8.7336   23.2579 C   0  0  0  0  0  0  0  0  0  0  0  0
   12.8731   14.7361   22.5699 C   0  0  0  0  0  0  0  0  0  0  0  0
   11.5215   16.2605   20.6642 C   0  0  0  0  0  0  0  0  0  0  0  0
   10.2990    9.6053   22.5473 C   0  0  0  0  0  0  0  0  0  0  0  0
   11.4861   14.6411   22.4567 C   0  0  0  0  0  0  0  0  0  0  0  0
   10.8103   15.4033   21.5038 C   0  0  0  0  0  0  0  0  0  0  0  0
    9.2933   10.3580   23.2339 C   0  0  0  0  0  0  0  0  0  0  0  0
    9.2140   11.7295   23.2751 C   0  0  0  0  0  0  0  0  0  0  0  0
    7.5650   10.7831   24.4227 C   0  0  0  0  0  0  0  0  0  0  0  0
    6.4659   13.2617   25.1556 C   0  0  0  0  0  0  0  0  0  0  0  0
    5.8683   12.0066   25.5812 C   0  0  0  0  0  0  0  0  0  0  0  0
    7.5695   13.2352   24.3944 C   0  0  0  0  0  0  0  0  0  0  0  0
    6.3793   10.7988   25.2408 C   0  0  0  0  0  0  0  0  0  0  0  0
   10.7547   13.7297   23.3533 C   0  0  0  0  0  0  0  0  0  0  0  0
    5.7049    9.5396   25.7198 C   0  0  0  0  0  0  0  0  0  0  0  0
    8.6769   16.2225   22.1622 C   0  0  0  0  0  0  0  0  0  0  0  0
    8.2732    9.7789   23.9439 N   0  0  0  0  0  0  0  0  0  0  0  0
    8.1072   12.0054   24.0361 N   0  0  0  0  0  0  0  0  0  0  0  0
   10.0103   12.6955   22.7159 N   0  0  0  0  0  0  0  0  0  0  0  0
   10.7730   13.8911   24.5717 O   0  0  0  0  0  0  0  0  0  0  0  0
    9.4556   15.3228   21.3765 O   0  0  0  0  0  0  0  0  0  0  0  0
   13.0217    7.5665   20.6892 H   0  0  0  0  0  0  0  0  0  0  0  0
   11.5538    9.1170   19.4251 H   0  0  0  0  0  0  0  0  0  0  0  0
   12.7459    7.3204   23.1420 H   0  0  0  0  0  0  0  0  0  0  0  0
   14.6645   15.6677   21.8183 H   0  0  0  0  0  0  0  0  0  0  0  0
   13.4628   17.0233   20.1244 H   0  0  0  0  0  0  0  0  0  0  0  0
    9.8186   10.4190   20.5999 H   0  0  0  0  0  0  0  0  0  0  0  0
   11.0160    8.6144   24.3335 H   0  0  0  0  0  0  0  0  0  0  0  0
   13.4103   14.1466   23.3085 H   0  0  0  0  0  0  0  0  0  0  0  0
   11.0012   16.8569   19.9196 H   0  0  0  0  0  0  0  0  0  0  0  0
    6.0059   14.1928   25.4634 H   0  0  0  0  0  0  0  0  0  0  0  0
    4.9766   12.0861   26.1960 H   0  0  0  0  0  0  0  0  0  0  0  0
    8.0588   14.1370   24.0475 H   0  0  0  0  0  0  0  0  0  0  0  0
    6.1278    9.2510   26.6769 H   0  0  0  0  0  0  0  0  0  0  0  0
    5.8647    8.7502   24.9917 H   0  0  0  0  0  0  0  0  0  0  0  0
    4.6402    9.7239   25.8262 H   0  0  0  0  0  0  0  0  0  0  0  0
    7.6153   16.0534   21.9663 H   0  0  0  0  0  0  0  0  0  0  0  0
    8.9452   17.2520   21.9120 H   0  0  0  0  0  0  0  0  0  0  0  0
    8.8833   16.0410   23.2197 H   0  0  0  0  0  0  0  0  0  0  0  0
   10.0808   12.6697   21.6816 H   0  0  0  0  0  0  0  0  0  0  0  0
  1  2  1  0  0  0  0
  1  3  2  0  0  0  0
  2  6  2  0  0  0  0
  3  7  1  0  0  0  0
  4  5  1  0  0  0  0
  4  8  2  0  0  0  0
  5  9  2  0  0  0  0
  6 10  1  0  0  0  0
  7 10  2  0  0  0  0
  8 11  1  0  0  0  0
  9 12  1  0  0  0  0
 10 13  1  0  0  0  0
 11 12  2  0  0  0  0
 11 20  1  0  0  0  0
 12 27  1  0  0  0  0
 13 14  2  0  0  0  0
 13 23  1  0  0  0  0
 14 24  1  0  0  0  0
 14 25  1  0  0  0  0
 15 19  1  0  0  0  0
 15 23  2  0  0  0  0
 15 24  1  0  0  0  0
 16 17  1  0  0  0  0
 16 18  2  0  0  0  0
 17 19  2  0  0  0  0
 18 24  1  0  0  0  0
 19 21  1  0  0  0  0
 20 25  1  0  0  0  0
 20 26  2  0  0  0  0
 22 27  1  0  0  0  0
  1 28  1  0  0  0  0
  2 29  1  0  0  0  0
  3 30  1  0  0  0  0
  4 31  1  0  0  0  0
  5 32  1  0  0  0  0
  6 33  1  0  0  0  0
  7 34  1  0  0  0  0
  8 35  1  0  0  0  0
  9 36  1  0  0  0  0
 16 37  1  0  0  0  0
 17 38  1  0  0  0  0
 18 39  1  0  0  0  0
 21 40  1  0  0  0  0
 21 41  1  0  0  0  0
 21 42  1  0  0  0  0
 22 43  1  0  0  0  0
 22 44  1  0  0  0  0
 22 45  1  0  0  0  0
 25 46  1  0  0  0  0
M  END
> <idnumber>
Z57016263

> <heavy_atoms>
27

> <LogS>
-6.117

> <LogP>
4.339

> <rotating_bonds>
4

> <PSA>
55.63

> <hb_acceptors>
3

> <hb_donors>
1

> <Collection>
HTS

> <link>
https://www.enaminestore.com/catalog/Z57016263

> <ROCS_ShapeQuery>
x0446_0A_x1080_0A_x0929_0A_x0812_0A_x0719_0A_x1140_0A_x0528_0A_x0310_0A

> <ROCS_TanimotoCombo>
0.462 

> <ROCS_ShapeTanimoto>
0.272 

> <ROCS_ColorTanimoto>
0.190 

> <ROCS_RefTversky>
0.247 

> <ROCS_RefColorTversky>
0.206 

> <ROCS_RefTverskyCombo>
0.453 

> <ROCS_FitTversky>
1.603 

> <ROCS_FitColorTversky>
0.707 

> <ROCS_FitTverskyCombo>
2.311 

> <ROCS_ColorScore>
-7.380

> <ROCS_Overlap>
2920.435

> <ROCS_Rank>
202                 

$$$$
untitled-dbase-960300_23
  -OEChem-02092406493D

 54 58  0     1  0  0  0  0  0999 V2000
   11.4909   14.0425   23.6096 C   0  0  0  0  0  0  0  0  0  0  0  0
   10.6585   15.9623   21.9268 C   0  0  0  0  0  0  0  0  0  0  0  0
   12.3036   15.0919   23.2320 C   0  0  0  0  0  0  0  0  0  0  0  0
   10.2225   14.0442   23.0661 C   0  0  0  0  0  0  0  0  0  0  0  0
    7.1125   13.4145   22.5511 C   0  0  0  0  0  0  0  0  0  0  0  0
    7.3683   11.0382   24.3163 C   0  0  0  0  0  0  0  0  0  0  0  0
    8.3452   11.7426   25.2631 C   0  0  0  0  0  0  0  0  0  0  0  0
    3.9203   13.5694   20.8498 C   0  0  0  0  0  0  0  0  0  0  0  0
    5.6110   12.8599   19.0799 C   0  0  0  0  0  0  0  0  0  0  0  0
    4.0868   11.0599   20.1553 C   0  0  0  0  0  0  0  0  0  0  0  0
   10.2325   10.7724   23.9139 C   0  0  0  0  0  0  0  0  0  0  0  0
    5.1514   14.3273   21.3511 C   0  0  0  0  0  0  0  0  0  0  0  0
    6.7275   12.8368   20.1237 C   0  0  0  0  0  0  0  0  0  0  0  0
    2.8410   11.1384   19.2810 C   0  0  0  0  0  0  0  0  0  0  0  0
    8.3236   12.5151   22.4943 C   0  0  2  0  0  0  0  0  0  0  0  0
    7.9423   11.0655   22.8887 C   0  0  1  0  0  0  0  0  0  0  0  0
    9.6680   12.0663   24.5354 C   0  0  1  0  0  0  0  0  0  0  0  0
    4.2870   12.5439   19.7678 C   0  0  0  0  0  0  0  0  0  0  0  0
    9.2312   10.2265   22.8912 C   0  0  0  0  0  0  0  0  0  0  0  0
   13.6936   15.1750   23.7675 C   0  0  0  0  0  0  0  0  0  0  0  0
   11.9184   16.0727   22.3894 N   0  0  0  0  0  0  0  0  0  0  0  0
    9.7714   14.9919   22.2184 N   0  0  0  0  0  0  0  0  0  0  0  0
    9.3688   12.9989   23.4238 N   0  0  1  0  0  0  0  0  0  0  0  0
    6.3482   13.4889   21.3848 N   0  0  0  0  0  0  0  0  0  0  0  0
    6.8520   14.0196   23.5933 O   0  0  0  0  0  0  0  0  0  0  0  0
    3.2149   12.4446   18.7871 O   0  0  0  0  0  0  0  0  0  0  0  0
    9.7877   10.2335   21.6541 F   0  0  0  0  0  0  0  0  0  0  0  0
    8.9457    8.9318   23.1743 F   0  0  0  0  0  0  0  0  0  0  0  0
   11.8310   13.2692   24.2882 H   0  0  0  0  0  0  0  0  0  0  0  0
   10.3230   16.7363   21.2477 H   0  0  0  0  0  0  0  0  0  0  0  0
    7.2117   10.0060   24.6445 H   0  0  0  0  0  0  0  0  0  0  0  0
    6.3911   11.5276   24.3547 H   0  0  0  0  0  0  0  0  0  0  0  0
    7.8947   12.6659   25.6513 H   0  0  0  0  0  0  0  0  0  0  0  0
    8.5446   11.1047   26.1343 H   0  0  0  0  0  0  0  0  0  0  0  0
    3.4368   13.0571   21.6972 H   0  0  0  0  0  0  0  0  0  0  0  0
    3.1831   14.2915   20.4646 H   0  0  0  0  0  0  0  0  0  0  0  0
    5.5808   13.8405   18.6046 H   0  0  0  0  0  0  0  0  0  0  0  0
    5.8192   12.1192   18.3068 H   0  0  0  0  0  0  0  0  0  0  0  0
    3.8889   10.8690   21.2119 H   0  0  0  0  0  0  0  0  0  0  0  0
    4.8516   10.3693   19.7945 H   0  0  0  0  0  0  0  0  0  0  0  0
   11.1960   10.9702   23.4360 H   0  0  0  0  0  0  0  0  0  0  0  0
   10.4010   10.0312   24.7003 H   0  0  0  0  0  0  0  0  0  0  0  0
    5.3733   15.1799   20.6881 H   0  0  0  0  0  0  0  0  0  0  0  0
    4.9405   14.7515   22.3451 H   0  0  0  0  0  0  0  0  0  0  0  0
    7.0512   11.7966   20.2822 H   0  0  0  0  0  0  0  0  0  0  0  0
    7.6162   13.3746   19.7459 H   0  0  0  0  0  0  0  0  0  0  0  0
    2.7897   10.4047   18.4736 H   0  0  0  0  0  0  0  0  0  0  0  0
    1.8922   11.1718   19.8210 H   0  0  0  0  0  0  0  0  0  0  0  0
    8.6831   12.5209   21.4567 H   0  0  0  0  0  0  0  0  0  0  0  0
    7.2107   10.6470   22.1862 H   0  0  0  0  0  0  0  0  0  0  0  0
   10.3832   12.5041   25.2435 H   0  0  0  0  0  0  0  0  0  0  0  0
   14.3895   14.6451   23.1060 H   0  0  0  0  0  0  0  0  0  0  0  0
   14.0239   16.2178   23.8572 H   0  0  0  0  0  0  0  0  0  0  0  0
   13.7608   14.7329   24.7700 H   0  0  0  0  0  0  0  0  0  0  0  0
  1  3  1  0  0  0  0
  1  4  2  0  0  0  0
  2 21  1  0  0  0  0
  2 22  2  0  0  0  0
  3 20  1  0  0  0  0
  3 21  2  0  0  0  0
  4 22  1  0  0  0  0
  4 23  1  0  0  0  0
  5 15  1  6  0  0  0
  5 24  1  0  0  0  0
  5 25  2  0  0  0  0
  6  7  1  0  0  0  0
  6 16  1  6  0  0  0
  7 17  1  0  0  0  0
  8 12  1  0  0  0  0
  8 18  1  0  0  0  0
  9 13  1  0  0  0  0
  9 18  1  0  0  0  0
 10 14  1  0  0  0  0
 10 18  1  0  0  0  0
 11 17  1  0  0  0  0
 11 19  1  0  0  0  0
 12 24  1  0  0  0  0
 13 24  1  0  0  0  0
 14 26  1  0  0  0  0
 15 16  1  0  0  0  0
 15 23  1  0  0  0  0
 16 19  1  0  0  0  0
 17 23  1  1  0  0  0
 18 26  1  0  0  0  0
 19 27  1  0  0  0  0
 19 28  1  0  0  0  0
  1 29  1  0  0  0  0
  2 30  1  0  0  0  0
  6 31  1  0  0  0  0
  6 32  1  0  0  0  0
  7 33  1  0  0  0  0
  7 34  1  0  0  0  0
  8 35  1  0  0  0  0
  8 36  1  0  0  0  0
  9 37  1  0  0  0  0
  9 38  1  0  0  0  0
 10 39  1  0  0  0  0
 10 40  1  0  0  0  0
 11 41  1  0  0  0  0
 11 42  1  0  0  0  0
 12 43  1  0  0  0  0
 12 44  1  0  0  0  0
 13 45  1  0  0  0  0
 13 46  1  0  0  0  0
 14 47  1  0  0  0  0
 14 48  1  0  0  0  0
 15 49  1  0  0  0  0
 16 50  1  0  0  0  0
 17 51  1  0  0  0  0
 20 52  1  0  0  0  0
 20 53  1  0  0  0  0
 20 54  1  0  0  0  0
M  END
> <idnumber>
Z2803836360

> <heavy_atoms>
28

> <LogS>
-4.503

> <LogP>
0.275

> <rotating_bonds>
2

> <PSA>
58.56

> <hb_acceptors>
5

> <hb_donors>
0

> <Collection>
Advanced

> <link>
https://www.enaminestore.com/catalog/Z2803836360

> <ROCS_ShapeQuery>
x0446_0A_x1080_0A_x0929_0A_x0812_0A_x0719_0A_x1140_0A_x0528_0A_x0310_0A

> <ROCS_TanimotoCombo>
0.462 

> <ROCS_ShapeTanimoto>
0.277 

> <ROCS_ColorTanimoto>
0.185 

> <ROCS_RefTversky>
0.251 

> <ROCS_RefColorTversky>
0.218 

> <ROCS_RefTverskyCombo>
0.469 

> <ROCS_FitTversky>
1.598 

> <ROCS_FitColorTversky>
0.551 

> <ROCS_FitTverskyCombo>
2.149 

> <ROCS_ColorScore>
-7.849

> <ROCS_Overlap>
2966.898

> <ROCS_Rank>
203                 

$$$$
untitled-dbase-1071091_84
  -OEChem-02092406493D

 46 49  0     1  0  0  0  0  0999 V2000
    9.6952   16.8619   22.6788 C   0  0  0  0  0  0  0  0  0  0  0  0
   10.8547   16.3858   22.1202 C   0  0  0  0  0  0  0  0  0  0  0  0
    8.1214   12.1832   24.1070 C   0  0  0  0  0  0  0  0  0  0  0  0
    9.3880   11.8933   23.6693 C   0  0  0  0  0  0  0  0  0  0  0  0
    7.5697   10.9357   24.4697 C   0  0  0  0  0  0  0  0  0  0  0  0
   10.3950   12.7765   23.1726 C   0  0  0  0  0  0  0  0  0  0  0  0
    7.3540   13.4437   24.2291 C   0  0  0  0  0  0  0  0  0  0  0  0
   12.1549   15.1812   19.4238 C   0  0  0  0  0  0  0  0  0  0  0  0
   10.9810   14.3406   19.0293 C   0  0  0  0  0  0  0  0  0  0  0  0
    6.1960   10.8128   25.0353 C   0  0  2  0  0  0  0  0  0  0  0  0
    6.1788   13.2250   25.2106 C   0  0  1  0  0  0  0  0  0  0  0  0
   11.3106   14.5226   20.5001 C   0  0  0  0  0  0  0  0  0  0  0  0
    5.3828    9.6957   24.3936 C   0  0  0  0  0  0  0  0  0  0  0  0
    5.2136   14.4013   25.1727 C   0  0  0  0  0  0  0  0  0  0  0  0
   10.6812    9.7465   23.4758 C   0  0  0  0  0  0  0  0  0  0  0  0
   11.8976   13.3594   21.2246 C   0  0  0  0  0  0  0  0  0  0  0  0
    8.6317   16.1364   22.2184 N   0  0  0  0  0  0  0  0  0  0  0  0
    8.4257    9.9256   24.3009 N   0  0  0  0  0  0  0  0  0  0  0  0
    9.0976   15.2141   21.3833 N   0  0  0  0  0  0  0  0  0  0  0  0
   10.4307   15.3652   21.3260 N   0  0  0  0  0  0  0  0  0  0  0  0
    9.5180   10.5386   23.8028 N   0  0  0  0  0  0  0  0  0  0  0  0
   10.8687   12.5673   21.8594 N   0  0  0  0  0  0  0  0  0  0  0  0
   10.8660   13.7013   23.8820 O   0  0  0  0  0  0  0  0  0  0  0  0
    5.4407   12.0380   24.8500 O   0  0  0  0  0  0  0  0  0  0  0  0
    9.5724   17.6761   23.3767 H   0  0  0  0  0  0  0  0  0  0  0  0
   11.8923   16.6726   22.2167 H   0  0  0  0  0  0  0  0  0  0  0  0
    7.9905   14.2645   24.5767 H   0  0  0  0  0  0  0  0  0  0  0  0
    6.9694   13.7067   23.2359 H   0  0  0  0  0  0  0  0  0  0  0  0
   13.1452   14.7863   19.2289 H   0  0  0  0  0  0  0  0  0  0  0  0
   12.0741   16.2532   19.2875 H   0  0  0  0  0  0  0  0  0  0  0  0
   10.1115   14.8483   18.6280 H   0  0  0  0  0  0  0  0  0  0  0  0
   11.1814   13.3807   18.5685 H   0  0  0  0  0  0  0  0  0  0  0  0
    6.2649   10.6316   26.1150 H   0  0  0  0  0  0  0  0  0  0  0  0
    6.5506   13.1044   26.2366 H   0  0  0  0  0  0  0  0  0  0  0  0
    5.3048    9.8611   23.3189 H   0  0  0  0  0  0  0  0  0  0  0  0
    4.3804    9.6713   24.8211 H   0  0  0  0  0  0  0  0  0  0  0  0
    5.8659    8.7344   24.5693 H   0  0  0  0  0  0  0  0  0  0  0  0
    4.8312   14.5395   24.1607 H   0  0  0  0  0  0  0  0  0  0  0  0
    5.7229   15.3138   25.4846 H   0  0  0  0  0  0  0  0  0  0  0  0
    4.3742   14.2187   25.8448 H   0  0  0  0  0  0  0  0  0  0  0  0
   11.3130    9.6914   24.3662 H   0  0  0  0  0  0  0  0  0  0  0  0
   10.3654    8.7456   23.1685 H   0  0  0  0  0  0  0  0  0  0  0  0
   11.2211   10.2205   22.6513 H   0  0  0  0  0  0  0  0  0  0  0  0
   12.4450   12.7292   20.5082 H   0  0  0  0  0  0  0  0  0  0  0  0
   12.5921   13.7286   21.9935 H   0  0  0  0  0  0  0  0  0  0  0  0
   10.5112   11.7727   21.3393 H   0  0  0  0  0  0  0  0  0  0  0  0
  1  2  2  0  0  0  0
  1 17  1  0  0  0  0
  2 20  1  0  0  0  0
  3  4  2  0  0  0  0
  3  5  1  0  0  0  0
  3  7  1  0  0  0  0
  4  6  1  0  0  0  0
  4 21  1  0  0  0  0
  5 10  1  0  0  0  0
  5 18  2  0  0  0  0
  6 22  1  0  0  0  0
  6 23  2  0  0  0  0
  7 11  1  0  0  0  0
  8  9  1  0  0  0  0
  8 12  1  0  0  0  0
  9 12  1  0  0  0  0
 10 13  1  6  0  0  0
 10 24  1  0  0  0  0
 11 14  1  6  0  0  0
 11 24  1  0  0  0  0
 12 16  1  0  0  0  0
 12 20  1  0  0  0  0
 15 21  1  0  0  0  0
 16 22  1  0  0  0  0
 17 19  2  0  0  0  0
 18 21  1  0  0  0  0
 19 20  1  0  0  0  0
  1 25  1  0  0  0  0
  2 26  1  0  0  0  0
  7 27  1  0  0  0  0
  7 28  1  0  0  0  0
  8 29  1  0  0  0  0
  8 30  1  0  0  0  0
  9 31  1  0  0  0  0
  9 32  1  0  0  0  0
 10 33  1  0  0  0  0
 11 34  1  0  0  0  0
 13 35  1  0  0  0  0
 13 36  1  0  0  0  0
 13 37  1  0  0  0  0
 14 38  1  0  0  0  0
 14 39  1  0  0  0  0
 14 40  1  0  0  0  0
 15 41  1  0  0  0  0
 15 42  1  0  0  0  0
 15 43  1  0  0  0  0
 16 44  1  0  0  0  0
 16 45  1  0  0  0  0
 22 46  1  0  0  0  0
M  END
> <idnumber>
Z4107124428

> <heavy_atoms>
24

> <LogS>
-1.156

> <LogP>
-0.295

> <rotating_bonds>
4

> <PSA>
86.86

> <hb_acceptors>
5

> <hb_donors>
1

> <Collection>
HTS

> <link>
https://www.enaminestore.com/catalog/Z4107124428

> <ROCS_ShapeQuery>
x0446_0A_x1080_0A_x0929_0A_x0812_0A_x0719_0A_x1140_0A_x0528_0A_x0310_0A

> <ROCS_TanimotoCombo>
0.462 

> <ROCS_ShapeTanimoto>
0.249 

> <ROCS_ColorTanimoto>
0.213 

> <ROCS_RefTversky>
0.227 

> <ROCS_RefColorTversky>
0.229 

> <ROCS_RefTverskyCombo>
0.456 

> <ROCS_FitTversky>
1.610 

> <ROCS_FitColorTversky>
0.761 

> <ROCS_FitTverskyCombo>
2.371 

> <ROCS_ColorScore>
-8.182

> <ROCS_Overlap>
2687.063

> <ROCS_Rank>
204                 

$$$$
untitled-dbase-1177544_99
  -OEChem-02092406493D

 33 35  0     1  0  0  0  0  0999 V2000
   12.3479   13.8280   22.8473 C   0  0  0  0  0  0  0  0  0  0  0  0
   11.1055   13.7045   22.3713 C   0  0  0  0  0  0  0  0  0  0  0  0
   12.8944   15.1864   23.0025 C   0  0  0  0  0  0  0  0  0  0  0  0
   10.3565   14.9491   22.0298 C   0  0  0  0  0  0  0  0  0  0  0  0
   10.2418   11.9807   24.5967 C   0  0  0  0  0  0  0  0  0  0  0  0
    9.0248   11.6231   25.4661 C   0  0  0  0  0  0  0  0  0  0  0  0
    8.2715   12.4974   23.3601 C   0  0  0  0  0  0  0  0  0  0  0  0
    9.2986   10.4543   22.8643 C   0  0  0  0  0  0  0  0  0  0  0  0
    9.6653   11.9107   23.1683 C   0  0  2  0  0  0  0  0  0  0  0  0
    7.9176   11.4537   24.4129 C   0  0  2  0  0  0  0  0  0  0  0  0
    6.5099   11.5000   24.9550 C   0  0  0  0  0  0  0  0  0  0  0  0
    4.1930   10.3048   26.9786 N   0  5  0  0  0  0  0  0  0  0  0  0
   12.2682   16.2782   22.7143 N   0  0  0  0  0  0  0  0  0  0  0  0
    6.3340   10.4269   25.9356 N   0  0  0  0  0  0  0  0  0  0  0  0
    5.2158   10.3666   26.4775 N   0  3  0  0  0  0  0  0  0  0  0  0
   11.0107   16.1431   22.2331 N   0  0  0  0  0  0  0  0  0  0  0  0
   10.4690   12.5437   22.1729 N   0  0  0  0  0  0  0  0  0  0  0  0
    9.2087   14.8906   21.5892 O   0  0  0  0  0  0  0  0  0  0  0  0
    8.1732   10.1970   23.7383 O   0  0  0  0  0  0  0  0  0  0  0  0
   14.4989   15.3847   23.6159 Cl  0  0  0  0  0  0  0  0  0  0  0  0
   12.9573   12.9745   23.1187 H   0  0  0  0  0  0  0  0  0  0  0  0
   10.5891   12.9913   24.8424 H   0  0  0  0  0  0  0  0  0  0  0  0
   11.0724   11.2843   24.7516 H   0  0  0  0  0  0  0  0  0  0  0  0
    9.2047   10.7007   26.0284 H   0  0  0  0  0  0  0  0  0  0  0  0
    8.8079   12.4354   26.1681 H   0  0  0  0  0  0  0  0  0  0  0  0
    8.2627   13.5248   23.7390 H   0  0  0  0  0  0  0  0  0  0  0  0
    7.6542   12.4214   22.4578 H   0  0  0  0  0  0  0  0  0  0  0  0
    8.9563   10.3100   21.8339 H   0  0  0  0  0  0  0  0  0  0  0  0
   10.1006    9.7430   23.0840 H   0  0  0  0  0  0  0  0  0  0  0  0
    5.7808   11.3725   24.1462 H   0  0  0  0  0  0  0  0  0  0  0  0
    6.3139   12.4648   25.4376 H   0  0  0  0  0  0  0  0  0  0  0  0
   10.5074   16.9940   22.0025 H   0  0  0  0  0  0  0  0  0  0  0  0
   10.5850   12.1130   21.2463 H   0  0  0  0  0  0  0  0  0  0  0  0
  1  2  2  0  0  0  0
  1  3  1  0  0  0  0
  2  4  1  0  0  0  0
  2 17  1  0  0  0  0
  3 13  2  0  0  0  0
  3 20  1  0  0  0  0
  4 16  1  0  0  0  0
  4 18  2  0  0  0  0
  5  6  1  0  0  0  0
  5  9  1  0  0  0  0
  6 10  1  0  0  0  0
  7  9  1  0  0  0  0
  7 10  1  0  0  0  0
  8  9  1  0  0  0  0
  8 19  1  0  0  0  0
  9 17  1  0  0  0  0
 10 11  1  0  0  0  0
 10 19  1  0  0  0  0
 11 14  1  0  0  0  0
 12 15  2  0  0  0  0
 13 16  1  0  0  0  0
 14 15  2  0  0  0  0
  1 21  1  0  0  0  0
  5 22  1  0  0  0  0
  5 23  1  0  0  0  0
  6 24  1  0  0  0  0
  6 25  1  0  0  0  0
  7 26  1  0  0  0  0
  7 27  1  0  0  0  0
  8 28  1  0  0  0  0
  8 29  1  0  0  0  0
 11 30  1  0  0  0  0
 11 31  1  0  0  0  0
 16 32  1  0  0  0  0
 17 33  1  0  0  0  0
M  CHG  2  12  -1  15   1
M  END
> <idnumber>
Z8759528379

> <heavy_atoms>
20

> <LogS>
-3.321

> <LogP>
1.263

> <rotating_bonds>
4

> <PSA>
92.15

> <hb_acceptors>
6

> <hb_donors>
2

> <Collection>
Advanced

> <link>
https://www.enaminestore.com/catalog/Z8759528379

> <ROCS_ShapeQuery>
x0446_0A_x1080_0A_x0929_0A_x0812_0A_x0719_0A_x1140_0A_x0528_0A_x0310_0A

> <ROCS_TanimotoCombo>
0.462 

> <ROCS_ShapeTanimoto>
0.230 

> <ROCS_ColorTanimoto>
0.232 

> <ROCS_RefTversky>
0.211 

> <ROCS_RefColorTversky>
0.260 

> <ROCS_RefTverskyCombo>
0.470 

> <ROCS_FitTversky>
1.672 

> <ROCS_FitColorTversky>
0.685 

> <ROCS_FitTverskyCombo>
2.357 

> <ROCS_ColorScore>
-9.332

> <ROCS_Overlap>
2487.260

> <ROCS_Rank>
205                 

$$$$
untitled-dbase-393462_7
  -OEChem-02092406493D

 37 39  0     0  0  0  0  0  0999 V2000
   13.1585   14.6057   22.3398 C   0  0  0  0  0  0  0  0  0  0  0  0
   12.7579   15.1544   21.1217 C   0  0  0  0  0  0  0  0  0  0  0  0
   12.2043   14.2634   23.2981 C   0  0  0  0  0  0  0  0  0  0  0  0
   11.4031   15.3611   20.8617 C   0  0  0  0  0  0  0  0  0  0  0  0
    9.7876   10.5920   23.7290 C   0  0  0  0  0  0  0  0  0  0  0  0
    8.0452   12.5822   24.0878 C   0  0  0  0  0  0  0  0  0  0  0  0
    6.9017   13.4183   24.2866 C   0  0  0  0  0  0  0  0  0  0  0  0
   10.8496   14.4701   23.0381 C   0  0  0  0  0  0  0  0  0  0  0  0
   10.4489   15.0189   21.8199 C   0  0  0  0  0  0  0  0  0  0  0  0
    5.7291   12.6987   24.3654 C   0  0  0  0  0  0  0  0  0  0  0  0
    9.4106   12.8521   23.9513 C   0  0  0  0  0  0  0  0  0  0  0  0
    7.6750   11.2451   24.0247 C   0  0  0  0  0  0  0  0  0  0  0  0
    6.9597   14.8982   24.3975 C   0  0  0  0  0  0  0  0  0  0  0  0
    4.3477   13.1918   24.5646 C   0  0  0  0  0  0  0  0  0  0  0  0
    8.7219   15.1475   20.1901 C   0  0  0  0  0  0  0  0  0  0  0  0
    7.2892   14.6853   20.1297 C   0  0  0  0  0  0  0  0  0  0  0  0
   10.2883   11.8422   23.7701 N   0  0  0  0  0  0  0  0  0  0  0  0
    8.5064   10.1999   23.8458 N   0  0  0  0  0  0  0  0  0  0  0  0
    9.9163   14.1286   23.9941 O   0  0  0  0  0  0  0  0  0  0  0  0
    9.1290   15.2267   21.5547 O   0  0  0  0  0  0  0  0  0  0  0  0
    7.1557   13.4727   20.7102 F   0  0  0  0  0  0  0  0  0  0  0  0
    6.8621   14.5795   18.8536 F   0  0  0  0  0  0  0  0  0  0  0  0
    6.4706   15.5422   20.7760 F   0  0  0  0  0  0  0  0  0  0  0  0
    5.9953   11.0171   24.2002 S   0  0  0  0  0  0  0  0  0  0  0  0
   14.2136   14.4446   22.5422 H   0  0  0  0  0  0  0  0  0  0  0  0
   13.5006   15.4209   20.3758 H   0  0  0  0  0  0  0  0  0  0  0  0
   12.5230   13.8361   24.2450 H   0  0  0  0  0  0  0  0  0  0  0  0
   11.0980   15.7905   19.9114 H   0  0  0  0  0  0  0  0  0  0  0  0
   10.5127    9.7990   23.5827 H   0  0  0  0  0  0  0  0  0  0  0  0
    6.8570   15.3659   23.4082 H   0  0  0  0  0  0  0  0  0  0  0  0
    6.1602   15.2872   25.0452 H   0  0  0  0  0  0  0  0  0  0  0  0
    7.9100   15.2340   24.8385 H   0  0  0  0  0  0  0  0  0  0  0  0
    3.8629   13.4035   23.5992 H   0  0  0  0  0  0  0  0  0  0  0  0
    3.7250   12.4593   25.1028 H   0  0  0  0  0  0  0  0  0  0  0  0
    4.3252   14.1156   25.1648 H   0  0  0  0  0  0  0  0  0  0  0  0
    9.3753   14.4423   19.6681 H   0  0  0  0  0  0  0  0  0  0  0  0
    8.8263   16.1361   19.7334 H   0  0  0  0  0  0  0  0  0  0  0  0
  1  2  1  0  0  0  0
  1  3  2  0  0  0  0
  2  4  2  0  0  0  0
  3  8  1  0  0  0  0
  4  9  1  0  0  0  0
  5 17  1  0  0  0  0
  5 18  2  0  0  0  0
  6  7  1  0  0  0  0
  6 11  1  0  0  0  0
  6 12  2  0  0  0  0
  7 10  2  0  0  0  0
  7 13  1  0  0  0  0
  8  9  2  0  0  0  0
  8 19  1  0  0  0  0
  9 20  1  0  0  0  0
 10 14  1  0  0  0  0
 10 24  1  0  0  0  0
 11 17  2  0  0  0  0
 11 19  1  0  0  0  0
 12 18  1  0  0  0  0
 12 24  1  0  0  0  0
 15 16  1  0  0  0  0
 15 20  1  0  0  0  0
 16 21  1  0  0  0  0
 16 22  1  0  0  0  0
 16 23  1  0  0  0  0
  1 25  1  0  0  0  0
  2 26  1  0  0  0  0
  3 27  1  0  0  0  0
  4 28  1  0  0  0  0
  5 29  1  0  0  0  0
 13 30  1  0  0  0  0
 13 31  1  0  0  0  0
 13 32  1  0  0  0  0
 14 33  1  0  0  0  0
 14 34  1  0  0  0  0
 14 35  1  0  0  0  0
 15 36  1  0  0  0  0
 15 37  1  0  0  0  0
M  END
> <idnumber>
Z1082767906

> <heavy_atoms>
24

> <LogS>
-6.823

> <LogP>
4.294

> <rotating_bonds>
5

> <PSA>
44.24

> <hb_acceptors>
3

> <hb_donors>
0

> <Collection>
Legacy

> <link>
https://www.enaminestore.com/catalog/Z1082767906

> <ROCS_ShapeQuery>
x0446_0A_x1080_0A_x0929_0A_x0812_0A_x0719_0A_x1140_0A_x0528_0A_x0310_0A

> <ROCS_TanimotoCombo>
0.462 

> <ROCS_ShapeTanimoto>
0.247 

> <ROCS_ColorTanimoto>
0.215 

> <ROCS_RefTversky>
0.226 

> <ROCS_RefColorTversky>
0.219 

> <ROCS_RefTverskyCombo>
0.445 

> <ROCS_FitTversky>
1.606 

> <ROCS_FitColorTversky>
0.916 

> <ROCS_FitTverskyCombo>
2.521 

> <ROCS_ColorScore>
-7.818

> <ROCS_Overlap>
2672.787

> <ROCS_Rank>
206                 

$$$$
untitled-dbase-964575_58
  -OEChem-02092406493D

 48 52  0     1  0  0  0  0  0999 V2000
    5.8877   12.3150   26.0081 C   0  0  0  0  0  0  0  0  0  0  0  0
    5.7191   13.2161   24.9463 C   0  0  0  0  0  0  0  0  0  0  0  0
    6.9608   11.4218   26.0218 C   0  0  0  0  0  0  0  0  0  0  0  0
    6.6201   13.2379   23.8799 C   0  0  0  0  0  0  0  0  0  0  0  0
    6.2681   15.2932   19.7822 C   0  0  0  0  0  0  0  0  0  0  0  0
    6.2181   16.4217   21.9179 C   0  0  0  0  0  0  0  0  0  0  0  0
    4.9702   14.8295   19.9968 C   0  0  0  0  0  0  0  0  0  0  0  0
    4.9201   15.9580   22.1325 C   0  0  0  0  0  0  0  0  0  0  0  0
   11.2407   14.0967   20.6094 C   0  0  0  0  0  0  0  0  0  0  0  0
    7.8563   11.4436   24.9623 C   0  0  0  0  0  0  0  0  0  0  0  0
    7.6848   12.3486   23.8919 C   0  0  0  0  0  0  0  0  0  0  0  0
    6.8921   16.0892   20.7428 C   0  0  0  0  0  0  0  0  0  0  0  0
    4.2962   15.1619   21.1719 C   0  0  0  0  0  0  0  0  0  0  0  0
   10.6024   14.1213   21.8318 C   0  0  0  0  0  0  0  0  0  0  0  0
    9.3640   15.5969   20.7832 C   0  0  0  0  0  0  0  0  0  0  0  0
   11.0074   13.3017   22.9818 C   0  0  0  0  0  0  0  0  0  0  0  0
    8.9075    9.7824   23.4828 C   0  0  0  0  0  0  0  0  0  0  0  0
    8.7121   10.7741   22.3054 C   0  0  0  0  0  0  0  0  0  0  0  0
   10.2938   11.5066   24.6493 C   0  0  0  0  0  0  0  0  0  0  0  0
    9.0808   10.5598   24.8096 C   0  0  1  0  0  0  0  0  0  0  0  0
    8.7586   12.2277   22.8282 C   0  0  2  0  0  0  0  0  0  0  0  0
    8.3071   16.5948   20.5099 C   0  0  0  0  0  0  0  0  0  0  0  0
    9.5263   14.9813   21.9334 N   0  0  0  0  0  0  0  0  0  0  0  0
   10.0696   12.4073   23.4913 N   0  0  0  0  0  0  0  0  0  0  0  0
    2.9832   14.6949   21.3884 N   0  0  0  0  0  0  0  0  0  0  0  0
   12.1454   13.4727   23.4134 O   0  0  0  0  0  0  0  0  0  0  0  0
   10.4696   15.1892   19.5356 S   0  0  0  0  0  0  0  0  0  0  0  0
    5.1754   12.3141   26.8288 H   0  0  0  0  0  0  0  0  0  0  0  0
    4.8780   13.9042   24.9548 H   0  0  0  0  0  0  0  0  0  0  0  0
    7.0865   10.7296   26.8477 H   0  0  0  0  0  0  0  0  0  0  0  0
    6.4836   13.9377   23.0621 H   0  0  0  0  0  0  0  0  0  0  0  0
    6.7861   15.0285   18.8644 H   0  0  0  0  0  0  0  0  0  0  0  0
    6.6968   17.0399   22.6725 H   0  0  0  0  0  0  0  0  0  0  0  0
    4.4938   14.2086   19.2425 H   0  0  0  0  0  0  0  0  0  0  0  0
    4.4046   16.2227   23.0521 H   0  0  0  0  0  0  0  0  0  0  0  0
   12.0943   13.5099   20.3004 H   0  0  0  0  0  0  0  0  0  0  0  0
    8.0414    9.1114   23.5420 H   0  0  0  0  0  0  0  0  0  0  0  0
    9.7860    9.1537   23.2946 H   0  0  0  0  0  0  0  0  0  0  0  0
    9.4905   10.6143   21.5495 H   0  0  0  0  0  0  0  0  0  0  0  0
    7.7500   10.5728   21.8175 H   0  0  0  0  0  0  0  0  0  0  0  0
   10.4350   12.1300   25.5405 H   0  0  0  0  0  0  0  0  0  0  0  0
   11.2157   10.9400   24.4757 H   0  0  0  0  0  0  0  0  0  0  0  0
    9.2088    9.8832   25.6599 H   0  0  0  0  0  0  0  0  0  0  0  0
    8.6173   12.9491   22.0178 H   0  0  0  0  0  0  0  0  0  0  0  0
    8.3742   16.9727   19.4699 H   0  0  0  0  0  0  0  0  0  0  0  0
    8.4543   17.5090   21.1195 H   0  0  0  0  0  0  0  0  0  0  0  0
    2.5291   14.1657   20.6716 H   0  0  0  0  0  0  0  0  0  0  0  0
    2.4942   14.9791   22.2131 H   0  0  0  0  0  0  0  0  0  0  0  0
  1  2  1  0  0  0  0
  1  3  2  0  0  0  0
  2  4  2  0  0  0  0
  3 10  1  0  0  0  0
  4 11  1  0  0  0  0
  5  7  2  0  0  0  0
  5 12  1  0  0  0  0
  6  8  1  0  0  0  0
  6 12  2  0  0  0  0
  7 13  1  0  0  0  0
  8 13  2  0  0  0  0
  9 14  2  0  0  0  0
  9 27  1  0  0  0  0
 10 11  2  0  0  0  0
 10 20  1  0  0  0  0
 11 21  1  0  0  0  0
 12 22  1  0  0  0  0
 13 25  1  0  0  0  0
 14 16  1  0  0  0  0
 14 23  1  0  0  0  0
 15 22  1  0  0  0  0
 15 23  2  0  0  0  0
 15 27  1  0  0  0  0
 16 24  1  0  0  0  0
 16 26  2  0  0  0  0
 17 18  1  0  0  0  0
 17 20  1  0  0  0  0
 18 21  1  0  0  0  0
 19 20  1  1  0  0  0
 19 24  1  0  0  0  0
 21 24  1  1  0  0  0
  1 28  1  0  0  0  0
  2 29  1  0  0  0  0
  3 30  1  0  0  0  0
  4 31  1  0  0  0  0
  5 32  1  0  0  0  0
  6 33  1  0  0  0  0
  7 34  1  0  0  0  0
  8 35  1  0  0  0  0
  9 36  1  0  0  0  0
 17 37  1  0  0  0  0
 17 38  1  0  0  0  0
 18 39  1  0  0  0  0
 18 40  1  0  0  0  0
 19 41  1  0  0  0  0
 19 42  1  0  0  0  0
 20 43  1  0  0  0  0
 21 44  1  0  0  0  0
 22 45  1  0  0  0  0
 22 46  1  0  0  0  0
 25 47  1  0  0  0  0
 25 48  1  0  0  0  0
M  END
> <idnumber>
Z4562388068

> <heavy_atoms>
34

> <LogS>
-5.449

> <LogP>
2.962

> <rotating_bonds>
4

> <PSA>
59.22

> <hb_acceptors>
3

> <hb_donors>
1

> <SaltType>
OC(=O)C(F)(F)F

> <Collection>
Advanced

> <link>
https://www.enaminestore.com/catalog/Z4562388068

> <ROCS_ShapeQuery>
x0446_0A_x1080_0A_x0929_0A_x0812_0A_x0719_0A_x1140_0A_x0528_0A_x0310_0A

> <ROCS_TanimotoCombo>
0.462 

> <ROCS_ShapeTanimoto>
0.257 

> <ROCS_ColorTanimoto>
0.205 

> <ROCS_RefTversky>
0.236 

> <ROCS_RefColorTversky>
0.238 

> <ROCS_RefTverskyCombo>
0.473 

> <ROCS_FitTversky>
1.550 

> <ROCS_FitColorTversky>
0.598 

> <ROCS_FitTverskyCombo>
2.148 

> <ROCS_ColorScore>
-8.551

> <ROCS_Overlap>
2785.169

> <ROCS_Rank>
207                 

$$$$
untitled-dbase-1060761_16
  -OEChem-02092406493D

 40 43  0     1  0  0  0  0  0999 V2000
    5.9669   12.4595   24.6804 C   0  0  0  0  0  0  0  0  0  0  0  0
    9.6191   10.2130   23.6102 C   0  0  0  0  0  0  0  0  0  0  0  0
    8.1269   12.3769   24.0347 C   0  0  0  0  0  0  0  0  0  0  0  0
    7.0500   13.2453   24.3479 C   0  0  0  0  0  0  0  0  0  0  0  0
    7.6578   11.0780   24.1879 C   0  0  0  0  0  0  0  0  0  0  0  0
    9.4553   12.5185   23.6360 C   0  0  0  0  0  0  0  0  0  0  0  0
   13.1186   15.9540   22.8663 C   0  0  0  0  0  0  0  0  0  0  0  0
   11.5417   13.8757   21.5163 C   0  0  0  0  0  0  0  0  0  0  0  0
   11.8331   16.1968   22.1193 C   0  0  2  0  0  0  0  0  0  0  0  0
   11.8172   15.3910   23.3756 C   0  0  1  0  0  0  0  0  0  0  0  0
   11.4101   15.3148   20.9694 C   0  0  2  0  0  0  0  0  0  0  0  0
   11.3837   13.9880   23.0454 C   0  0  1  0  0  0  0  0  0  0  0  0
    7.7650   15.3289   25.5454 C   0  0  0  0  0  0  0  0  0  0  0  0
    7.0621   14.7220   24.3268 C   0  0  0  0  0  0  0  0  0  0  0  0
    9.9850   15.6263   20.5232 C   0  0  0  0  0  0  0  0  0  0  0  0
    8.3536    9.9446   23.9912 N   0  0  0  0  0  0  0  0  0  0  0  0
   10.2086   11.4151   23.4219 N   0  0  0  0  0  0  0  0  0  0  0  0
    6.3469   11.1457   24.5791 N   0  0  0  0  0  0  0  0  0  0  0  0
   10.0185   13.7732   23.4557 N   0  0  0  0  0  0  0  0  0  0  0  0
    9.1156   15.4734   21.6326 O   0  0  0  0  0  0  0  0  0  0  0  0
    4.9597   12.7153   24.9787 H   0  0  0  0  0  0  0  0  0  0  0  0
   10.2495    9.3490   23.4308 H   0  0  0  0  0  0  0  0  0  0  0  0
   13.8433   15.2750   22.4406 H   0  0  0  0  0  0  0  0  0  0  0  0
   13.5476   16.7870   23.4057 H   0  0  0  0  0  0  0  0  0  0  0  0
   10.7381   13.2457   21.0937 H   0  0  0  0  0  0  0  0  0  0  0  0
   12.4988   13.4100   21.2306 H   0  0  0  0  0  0  0  0  0  0  0  0
   11.3867   17.1864   22.1409 H   0  0  0  0  0  0  0  0  0  0  0  0
   11.3610   15.8305   24.2589 H   0  0  0  0  0  0  0  0  0  0  0  0
   12.0843   15.4587   20.1237 H   0  0  0  0  0  0  0  0  0  0  0  0
   12.0314   13.2633   23.5533 H   0  0  0  0  0  0  0  0  0  0  0  0
    7.3051   14.9759   26.4747 H   0  0  0  0  0  0  0  0  0  0  0  0
    7.7077   16.4218   25.5326 H   0  0  0  0  0  0  0  0  0  0  0  0
    8.8226   15.0448   25.5650 H   0  0  0  0  0  0  0  0  0  0  0  0
    7.5563   15.1035   23.4127 H   0  0  0  0  0  0  0  0  0  0  0  0
    6.0334   15.1283   24.2786 H   0  0  0  0  0  0  0  0  0  0  0  0
    9.6780   14.9388   19.7323 H   0  0  0  0  0  0  0  0  0  0  0  0
    9.9193   16.6532   20.1577 H   0  0  0  0  0  0  0  0  0  0  0  0
    5.7525   10.3501   24.7656 H   0  0  0  0  0  0  0  0  0  0  0  0
    9.4345   14.5862   23.6242 H   0  0  0  0  0  0  0  0  0  0  0  0
    8.2182   15.6774   21.3200 H   0  0  0  0  0  0  0  0  0  0  0  0
  1  4  2  0  0  0  0
  1 18  1  0  0  0  0
  2 16  2  0  0  0  0
  2 17  1  0  0  0  0
  3  4  1  0  0  0  0
  3  5  2  0  0  0  0
  3  6  1  0  0  0  0
  4 14  1  0  0  0  0
  5 16  1  0  0  0  0
  5 18  1  0  0  0  0
  6 17  2  0  0  0  0
  6 19  1  0  0  0  0
  7  9  1  6  0  0  0
  7 10  1  6  0  0  0
  8 11  1  0  0  0  0
  8 12  1  0  0  0  0
  9 10  1  0  0  0  0
  9 11  1  0  0  0  0
 10 12  1  0  0  0  0
 11 15  1  1  0  0  0
 12 19  1  1  0  0  0
 13 14  1  0  0  0  0
 15 20  1  0  0  0  0
  1 21  1  0  0  0  0
  2 22  1  0  0  0  0
  7 23  1  0  0  0  0
  7 24  1  0  0  0  0
  8 25  1  0  0  0  0
  8 26  1  0  0  0  0
  9 27  1  0  0  0  0
 10 28  1  0  0  0  0
 11 29  1  0  0  0  0
 12 30  1  0  0  0  0
 13 31  1  0  0  0  0
 13 32  1  0  0  0  0
 13 33  1  0  0  0  0
 14 34  1  0  0  0  0
 14 35  1  0  0  0  0
 15 36  1  0  0  0  0
 15 37  1  0  0  0  0
 18 38  1  0  0  0  0
 19 39  1  0  0  0  0
 20 40  1  0  0  0  0
M  END
> <idnumber>
Z3832637605

> <heavy_atoms>
20

> <LogS>
-3.931

> <LogP>
2.005

> <rotating_bonds>
4

> <PSA>
73.83

> <hb_acceptors>
4

> <hb_donors>
3

> <Collection>
Advanced

> <link>
https://www.enaminestore.com/catalog/Z3832637605

> <ROCS_ShapeQuery>
x0446_0A_x1080_0A_x0929_0A_x0812_0A_x0719_0A_x1140_0A_x0528_0A_x0310_0A

> <ROCS_TanimotoCombo>
0.462 

> <ROCS_ShapeTanimoto>
0.258 

> <ROCS_ColorTanimoto>
0.204 

> <ROCS_RefTversky>
0.231 

> <ROCS_RefColorTversky>
0.235 

> <ROCS_RefTverskyCombo>
0.466 

> <ROCS_FitTversky>
1.832 

> <ROCS_FitColorTversky>
0.603 

> <ROCS_FitTverskyCombo>
2.435 

> <ROCS_ColorScore>
-8.466

> <ROCS_Overlap>
2728.164

> <ROCS_Rank>
208                 

$$$$
untitled-dbase-227257_14
  -OEChem-02092406493D

 41 43  0     0  0  0  0  0  0999 V2000
   13.5811   16.5454   21.5970 C   0  0  0  0  0  0  0  0  0  0  0  0
   12.2096   16.7116   21.4050 C   0  0  0  0  0  0  0  0  0  0  0  0
   10.1149   10.7625   23.4177 C   0  0  0  0  0  0  0  0  0  0  0  0
   13.2169   14.2339   22.1981 C   0  0  0  0  0  0  0  0  0  0  0  0
    8.3056   12.1811   24.0573 C   0  0  0  0  0  0  0  0  0  0  0  0
    9.6443   12.0518   23.6667 C   0  0  0  0  0  0  0  0  0  0  0  0
   14.0848   15.3065   21.9935 C   0  0  0  0  0  0  0  0  0  0  0  0
   11.3417   15.6390   21.6096 C   0  0  0  0  0  0  0  0  0  0  0  0
   11.8453   14.4002   22.0062 C   0  0  0  0  0  0  0  0  0  0  0  0
    9.2446    9.6879   23.5677 C   0  0  0  0  0  0  0  0  0  0  0  0
    7.4115   13.2138   24.4032 C   0  0  0  0  0  0  0  0  0  0  0  0
    7.5471   11.0263   24.1684 C   0  0  0  0  0  0  0  0  0  0  0  0
   10.5172   13.2019   23.5230 C   0  0  0  0  0  0  0  0  0  0  0  0
   15.5512   15.1291   22.1965 C   0  0  0  0  0  0  0  0  0  0  0  0
    9.7640    8.3115   23.2983 C   0  0  0  0  0  0  0  0  0  0  0  0
    7.6752   14.6628   24.4567 C   0  0  0  0  0  0  0  0  0  0  0  0
    5.1586   10.5859   24.8055 C   0  0  0  0  0  0  0  0  0  0  0  0
    7.9445    9.7620   23.9425 N   0  0  0  0  0  0  0  0  0  0  0  0
    6.1907   12.7616   24.7083 N   0  0  0  0  0  0  0  0  0  0  0  0
    6.3036   11.4295   24.5568 N   0  0  0  0  0  0  0  0  0  0  0  0
    9.9466   15.8270   21.4091 N   0  3  0  0  0  0  0  0  0  0  0  0
    9.5320   16.9555   21.0530 O   0  5  0  0  0  0  0  0  0  0  0  0
   10.7963   13.9915   24.4388 O   0  0  0  0  0  0  0  0  0  0  0  0
    9.1717   14.8588   21.5947 O   0  0  0  0  0  0  0  0  0  0  0  0
   10.9955   13.3111   22.2177 O   0  0  0  0  0  0  0  0  0  0  0  0
   14.2503   17.3863   21.4345 H   0  0  0  0  0  0  0  0  0  0  0  0
   11.8311   17.6829   21.0958 H   0  0  0  0  0  0  0  0  0  0  0  0
   11.1451   10.6014   23.1122 H   0  0  0  0  0  0  0  0  0  0  0  0
   13.6076   13.2673   22.5068 H   0  0  0  0  0  0  0  0  0  0  0  0
   15.8238   15.3570   23.2344 H   0  0  0  0  0  0  0  0  0  0  0  0
   15.8632   14.1005   21.9731 H   0  0  0  0  0  0  0  0  0  0  0  0
   16.1281   15.7868   21.5330 H   0  0  0  0  0  0  0  0  0  0  0  0
   10.1736    7.8760   24.2162 H   0  0  0  0  0  0  0  0  0  0  0  0
    8.9692    7.6566   22.9229 H   0  0  0  0  0  0  0  0  0  0  0  0
   10.5518    8.3297   22.5360 H   0  0  0  0  0  0  0  0  0  0  0  0
    7.4664   15.1430   23.4857 H   0  0  0  0  0  0  0  0  0  0  0  0
    7.0580   15.1702   25.2189 H   0  0  0  0  0  0  0  0  0  0  0  0
    8.7245   14.8852   24.7197 H   0  0  0  0  0  0  0  0  0  0  0  0
    5.1734   10.2996   25.8605 H   0  0  0  0  0  0  0  0  0  0  0  0
    4.2430   11.1363   24.5717 H   0  0  0  0  0  0  0  0  0  0  0  0
    5.2168    9.7000   24.1670 H   0  0  0  0  0  0  0  0  0  0  0  0
  1  2  2  0  0  0  0
  1  7  1  0  0  0  0
  2  8  1  0  0  0  0
  3  6  2  0  0  0  0
  3 10  1  0  0  0  0
  4  7  2  0  0  0  0
  4  9  1  0  0  0  0
  5  6  1  0  0  0  0
  5 11  1  0  0  0  0
  5 12  2  0  0  0  0
  6 13  1  0  0  0  0
  7 14  1  0  0  0  0
  8  9  2  0  0  0  0
  8 21  1  0  0  0  0
  9 25  1  0  0  0  0
 10 15  1  0  0  0  0
 10 18  2  0  0  0  0
 11 16  1  0  0  0  0
 11 19  2  0  0  0  0
 12 18  1  0  0  0  0
 12 20  1  0  0  0  0
 13 23  2  0  0  0  0
 13 25  1  0  0  0  0
 17 20  1  0  0  0  0
 19 20  1  0  0  0  0
 21 22  1  0  0  0  0
 21 24  2  0  0  0  0
  1 26  1  0  0  0  0
  2 27  1  0  0  0  0
  3 28  1  0  0  0  0
  4 29  1  0  0  0  0
 14 30  1  0  0  0  0
 14 31  1  0  0  0  0
 14 32  1  0  0  0  0
 15 33  1  0  0  0  0
 15 34  1  0  0  0  0
 15 35  1  0  0  0  0
 16 36  1  0  0  0  0
 16 37  1  0  0  0  0
 16 38  1  0  0  0  0
 17 39  1  0  0  0  0
 17 40  1  0  0  0  0
 17 41  1  0  0  0  0
M  CHG  2  21   1  22  -1
M  END
> <idnumber>
Z240414020

> <heavy_atoms>
25

> <LogS>
-4.81

> <LogP>
3.118

> <rotating_bonds>
4

> <PSA>
100.15

> <hb_acceptors>
5

> <hb_donors>
0

> <Collection>
Legacy

> <link>
https://www.enaminestore.com/catalog/Z240414020

> <ROCS_ShapeQuery>
x0446_0A_x1080_0A_x0929_0A_x0812_0A_x0719_0A_x1140_0A_x0528_0A_x0310_0A

> <ROCS_TanimotoCombo>
0.462 

> <ROCS_ShapeTanimoto>
0.276 

> <ROCS_ColorTanimoto>
0.186 

> <ROCS_RefTversky>
0.248 

> <ROCS_RefColorTversky>
0.199 

> <ROCS_RefTverskyCombo>
0.446 

> <ROCS_FitTversky>
1.695 

> <ROCS_FitColorTversky>
0.747 

> <ROCS_FitTverskyCombo>
2.443 

> <ROCS_ColorScore>
-7.098

> <ROCS_Overlap>
2928.741

> <ROCS_Rank>
209                 

$$$$
untitled-dbase-321766_82
  -OEChem-02092406493D

 45 48  0     0  0  0  0  0  0999 V2000
   13.1578   14.6134   22.3271 C   0  0  0  0  0  0  0  0  0  0  0  0
   12.2091   14.2659   23.2886 C   0  0  0  0  0  0  0  0  0  0  0  0
   11.3938   15.3699   20.8598 C   0  0  0  0  0  0  0  0  0  0  0  0
    8.0595   12.5761   24.0926 C   0  0  0  0  0  0  0  0  0  0  0  0
    6.9140   13.3794   24.2970 C   0  0  0  0  0  0  0  0  0  0  0  0
   12.7502   15.1655   21.1126 C   0  0  0  0  0  0  0  0  0  0  0  0
   10.8526   14.4703   23.0358 C   0  0  0  0  0  0  0  0  0  0  0  0
   10.4450   15.0223   21.8213 C   0  0  0  0  0  0  0  0  0  0  0  0
    5.7633   12.6435   24.3770 C   0  0  0  0  0  0  0  0  0  0  0  0
    9.4229   12.8448   23.9499 C   0  0  0  0  0  0  0  0  0  0  0  0
    7.6829   11.2319   24.0287 C   0  0  0  0  0  0  0  0  0  0  0  0
    9.7940   10.5820   23.7198 C   0  0  0  0  0  0  0  0  0  0  0  0
   13.5363   17.9506   20.7642 C   0  0  0  0  0  0  0  0  0  0  0  0
   14.2548   16.9571   20.2292 C   0  0  0  0  0  0  0  0  0  0  0  0
    6.6335   14.8284   24.4524 C   0  0  0  0  0  0  0  0  0  0  0  0
    4.5421   13.4529   24.5929 C   0  0  0  0  0  0  0  0  0  0  0  0
    5.0817   14.8848   24.2884 C   0  0  0  0  0  0  0  0  0  0  0  0
   10.7909    9.4907   23.5095 C   0  0  0  0  0  0  0  0  0  0  0  0
    8.4131   14.1585   20.9375 C   0  0  0  0  0  0  0  0  0  0  0  0
   13.7647   15.5395   20.0855 C   0  0  0  0  0  0  0  0  0  0  0  0
   10.2968   11.8325   23.7614 N   0  0  0  0  0  0  0  0  0  0  0  0
    8.5134   10.1874   23.8427 N   0  0  0  0  0  0  0  0  0  0  0  0
    9.9246   14.1223   23.9948 O   0  0  0  0  0  0  0  0  0  0  0  0
    9.1231   15.2259   21.5626 O   0  0  0  0  0  0  0  0  0  0  0  0
    5.9885   10.9952   24.2163 S   0  0  0  0  0  0  0  0  0  0  0  0
   14.2125   14.4522   22.5334 H   0  0  0  0  0  0  0  0  0  0  0  0
   12.5335   13.8360   24.2322 H   0  0  0  0  0  0  0  0  0  0  0  0
   11.0734   15.8006   19.9141 H   0  0  0  0  0  0  0  0  0  0  0  0
   13.9324   18.9566   20.8465 H   0  0  0  0  0  0  0  0  0  0  0  0
   12.5316   17.7671   21.1290 H   0  0  0  0  0  0  0  0  0  0  0  0
   15.2562   17.1775   19.8674 H   0  0  0  0  0  0  0  0  0  0  0  0
    6.9255   15.1697   25.4510 H   0  0  0  0  0  0  0  0  0  0  0  0
    7.1327   15.4419   23.6974 H   0  0  0  0  0  0  0  0  0  0  0  0
    3.7209   13.1880   23.9217 H   0  0  0  0  0  0  0  0  0  0  0  0
    4.2068   13.3823   25.6326 H   0  0  0  0  0  0  0  0  0  0  0  0
    4.6233   15.6461   24.9270 H   0  0  0  0  0  0  0  0  0  0  0  0
    4.8432   15.1411   23.2475 H   0  0  0  0  0  0  0  0  0  0  0  0
   11.1681    9.1292   24.4733 H   0  0  0  0  0  0  0  0  0  0  0  0
   10.3462    8.6455   22.9694 H   0  0  0  0  0  0  0  0  0  0  0  0
   11.6412    9.8400   22.9103 H   0  0  0  0  0  0  0  0  0  0  0  0
    7.3709   14.4513   20.7882 H   0  0  0  0  0  0  0  0  0  0  0  0
    8.4655   13.2668   21.5673 H   0  0  0  0  0  0  0  0  0  0  0  0
    8.8717   13.9457   19.9690 H   0  0  0  0  0  0  0  0  0  0  0  0
   14.6380   14.8683   20.1462 H   0  0  0  0  0  0  0  0  0  0  0  0
   13.3556   15.3746   19.0741 H   0  0  0  0  0  0  0  0  0  0  0  0
  1  2  2  0  0  0  0
  1  6  1  0  0  0  0
  2  7  1  0  0  0  0
  3  6  2  0  0  0  0
  3  8  1  0  0  0  0
  4  5  1  0  0  0  0
  4 10  2  0  0  0  0
  4 11  1  0  0  0  0
  5  9  2  0  0  0  0
  5 15  1  0  0  0  0
  6 20  1  0  0  0  0
  7  8  2  0  0  0  0
  7 23  1  0  0  0  0
  8 24  1  0  0  0  0
  9 16  1  0  0  0  0
  9 25  1  0  0  0  0
 10 21  1  0  0  0  0
 10 23  1  0  0  0  0
 11 22  2  0  0  0  0
 11 25  1  0  0  0  0
 12 18  1  0  0  0  0
 12 21  2  0  0  0  0
 12 22  1  0  0  0  0
 13 14  2  0  0  0  0
 14 20  1  0  0  0  0
 15 17  1  0  0  0  0
 16 17  1  0  0  0  0
 19 24  1  0  0  0  0
  1 26  1  0  0  0  0
  2 27  1  0  0  0  0
  3 28  1  0  0  0  0
 13 29  1  0  0  0  0
 13 30  1  0  0  0  0
 14 31  1  0  0  0  0
 15 32  1  0  0  0  0
 15 33  1  0  0  0  0
 16 34  1  0  0  0  0
 16 35  1  0  0  0  0
 17 36  1  0  0  0  0
 17 37  1  0  0  0  0
 18 38  1  0  0  0  0
 18 39  1  0  0  0  0
 18 40  1  0  0  0  0
 19 41  1  0  0  0  0
 19 42  1  0  0  0  0
 19 43  1  0  0  0  0
 20 44  1  0  0  0  0
 20 45  1  0  0  0  0
M  END
> <idnumber>
Z31041688

> <heavy_atoms>
25

> <LogS>
-6.45

> <LogP>
5.138

> <rotating_bonds>
5

> <PSA>
44.24

> <hb_acceptors>
3

> <hb_donors>
0

> <Collection>
HTS

> <link>
https://www.enaminestore.com/catalog/Z31041688

> <ROCS_ShapeQuery>
x0446_0A_x1080_0A_x0929_0A_x0812_0A_x0719_0A_x1140_0A_x0528_0A_x0310_0A

> <ROCS_TanimotoCombo>
0.462 

> <ROCS_ShapeTanimoto>
0.257 

> <ROCS_ColorTanimoto>
0.205 

> <ROCS_RefTversky>
0.234 

> <ROCS_RefColorTversky>
0.220 

> <ROCS_RefTverskyCombo>
0.454 

> <ROCS_FitTversky>
1.626 

> <ROCS_FitColorTversky>
0.750 

> <ROCS_FitTverskyCombo>
2.376 

> <ROCS_ColorScore>
-7.856

> <ROCS_Overlap>
2766.899

> <ROCS_Rank>
210                 

$$$$
untitled-dbase-363847_10
  -OEChem-02092406493D

 46 49  0     0  0  0  0  0  0999 V2000
   12.3042   16.1320   23.3971 C   0  0  0  0  0  0  0  0  0  0  0  0
    6.3759   11.1620   24.8460 C   0  0  0  0  0  0  0  0  0  0  0  0
   12.7088   14.7972   23.4104 C   0  0  0  0  0  0  0  0  0  0  0  0
    5.6529   12.3156   25.1459 C   0  0  0  0  0  0  0  0  0  0  0  0
   11.1954   16.5172   22.6434 C   0  0  0  0  0  0  0  0  0  0  0  0
    7.5658   13.6758   24.5625 C   0  0  0  0  0  0  0  0  0  0  0  0
    7.6979   11.2711   24.4038 C   0  0  0  0  0  0  0  0  0  0  0  0
   12.0048   13.8476   22.6699 C   0  0  0  0  0  0  0  0  0  0  0  0
    6.2458   13.5694   25.0048 C   0  0  0  0  0  0  0  0  0  0  0  0
    8.3084   12.5301   24.2562 C   0  0  0  0  0  0  0  0  0  0  0  0
   10.4914   15.5676   21.9029 C   0  0  0  0  0  0  0  0  0  0  0  0
   10.8961   14.2328   21.9162 C   0  0  0  0  0  0  0  0  0  0  0  0
    8.4766   10.0504   24.0774 C   0  0  0  0  0  0  0  0  0  0  0  0
   11.6898   11.4527   23.0943 C   0  0  0  0  0  0  0  0  0  0  0  0
   10.2906   11.6042   23.5528 C   0  0  0  0  0  0  0  0  0  0  0  0
   12.4422   12.4819   22.7009 C   0  0  0  0  0  0  0  0  0  0  0  0
   12.0589   10.0030   23.1144 C   0  0  0  0  0  0  0  0  0  0  0  0
   10.7153    9.3003   23.2449 C   0  0  0  0  0  0  0  0  0  0  0  0
    8.1418   15.9258   21.8218 C   0  0  0  0  0  0  0  0  0  0  0  0
   10.6226   13.0994   19.8434 C   0  0  0  0  0  0  0  0  0  0  0  0
    5.4683   14.8007   25.3278 C   0  0  0  0  0  0  0  0  0  0  0  0
    9.6391   12.6839   23.8148 N   0  0  0  0  0  0  0  0  0  0  0  0
    9.7735   10.3169   23.6714 N   0  0  0  0  0  0  0  0  0  0  0  0
    7.9737    8.9363   24.1643 O   0  0  0  0  0  0  0  0  0  0  0  0
    9.4107   15.9587   21.1715 O   0  0  0  0  0  0  0  0  0  0  0  0
   10.1980   13.3145   21.1866 O   0  0  0  0  0  0  0  0  0  0  0  0
    4.1935   14.5484   25.7484 F   0  0  0  0  0  0  0  0  0  0  0  0
    6.0274   15.5558   26.3190 F   0  0  0  0  0  0  0  0  0  0  0  0
    5.3416   15.6375   24.2571 F   0  0  0  0  0  0  0  0  0  0  0  0
   12.8515   16.8708   23.9751 H   0  0  0  0  0  0  0  0  0  0  0  0
    5.8960   10.1942   24.9608 H   0  0  0  0  0  0  0  0  0  0  0  0
   13.5748   14.5131   24.0037 H   0  0  0  0  0  0  0  0  0  0  0  0
    4.6254   12.2277   25.4898 H   0  0  0  0  0  0  0  0  0  0  0  0
   10.8845   17.5584   22.6386 H   0  0  0  0  0  0  0  0  0  0  0  0
    8.0208   14.6582   24.4542 H   0  0  0  0  0  0  0  0  0  0  0  0
   13.4524   12.2651   22.3533 H   0  0  0  0  0  0  0  0  0  0  0  0
   12.5429    9.7285   22.1708 H   0  0  0  0  0  0  0  0  0  0  0  0
   12.7225    9.7527   23.9473 H   0  0  0  0  0  0  0  0  0  0  0  0
   10.3812    8.8420   22.3082 H   0  0  0  0  0  0  0  0  0  0  0  0
   10.7393    8.5195   24.0139 H   0  0  0  0  0  0  0  0  0  0  0  0
    7.3671   16.2614   21.1279 H   0  0  0  0  0  0  0  0  0  0  0  0
    8.1648   16.5750   22.7007 H   0  0  0  0  0  0  0  0  0  0  0  0
    7.9288   14.9007   22.1340 H   0  0  0  0  0  0  0  0  0  0  0  0
    9.9846   12.3460   19.3750 H   0  0  0  0  0  0  0  0  0  0  0  0
   11.6632   12.7653   19.8383 H   0  0  0  0  0  0  0  0  0  0  0  0
   10.5407   14.0380   19.2901 H   0  0  0  0  0  0  0  0  0  0  0  0
  1  3  1  0  0  0  0
  1  5  2  0  0  0  0
  2  4  2  0  0  0  0
  2  7  1  0  0  0  0
  3  8  2  0  0  0  0
  4  9  1  0  0  0  0
  5 11  1  0  0  0  0
  6  9  2  0  0  0  0
  6 10  1  0  0  0  0
  7 10  2  0  0  0  0
  7 13  1  0  0  0  0
  8 12  1  0  0  0  0
  8 16  1  4  0  0  0
  9 21  1  0  0  0  0
 10 22  1  0  0  0  0
 11 12  2  0  0  0  0
 11 25  1  0  0  0  0
 12 26  1  0  0  0  0
 13 23  1  0  0  0  0
 13 24  2  0  0  0  0
 14 15  1  0  0  0  0
 14 16  2  0  0  0  0
 14 17  1  0  0  0  0
 15 22  2  0  0  0  0
 15 23  1  0  0  0  0
 17 18  1  0  0  0  0
 18 23  1  0  0  0  0
 19 25  1  0  0  0  0
 20 26  1  0  0  0  0
 21 27  1  0  0  0  0
 21 28  1  0  0  0  0
 21 29  1  0  0  0  0
  1 30  1  0  0  0  0
  2 31  1  0  0  0  0
  3 32  1  0  0  0  0
  4 33  1  0  0  0  0
  5 34  1  0  0  0  0
  6 35  1  0  0  0  0
 16 36  1  0  0  0  0
 17 37  1  0  0  0  0
 17 38  1  0  0  0  0
 18 39  1  0  0  0  0
 18 40  1  0  0  0  0
 19 41  1  0  0  0  0
 19 42  1  0  0  0  0
 19 43  1  0  0  0  0
 20 44  1  0  0  0  0
 20 45  1  0  0  0  0
 20 46  1  0  0  0  0
M  END
> <idnumber>
Z45931442

> <heavy_atoms>
29

> <LogS>
-4.9

> <LogP>
3.508

> <rotating_bonds>
4

> <PSA>
51.13

> <hb_acceptors>
4

> <hb_donors>
0

> <Collection>
Legacy

> <link>
https://www.enaminestore.com/catalog/Z45931442

> <ROCS_ShapeQuery>
x0446_0A_x1080_0A_x0929_0A_x0812_0A_x0719_0A_x1140_0A_x0528_0A_x0310_0A

> <ROCS_TanimotoCombo>
0.462 

> <ROCS_ShapeTanimoto>
0.289 

> <ROCS_ColorTanimoto>
0.173 

> <ROCS_RefTversky>
0.260 

> <ROCS_RefColorTversky>
0.187 

> <ROCS_RefTverskyCombo>
0.447 

> <ROCS_FitTversky>
1.610 

> <ROCS_FitColorTversky>
0.703 

> <ROCS_FitTverskyCombo>
2.314 

> <ROCS_ColorScore>
-6.670

> <ROCS_Overlap>
3079.830

> <ROCS_Rank>
211                 

$$$$
untitled-dbase-1154121_0
  -OEChem-02092406493D

 54 58  0     1  0  0  0  0  0999 V2000
   12.4460   13.9458   22.6646 C   0  0  0  0  0  0  0  0  0  0  0  0
   12.8691   15.2722   22.7482 C   0  0  0  0  0  0  0  0  0  0  0  0
   10.4104   14.6634   21.5791 C   0  0  0  0  0  0  0  0  0  0  0  0
    5.6979   14.7303   21.6654 C   0  0  0  0  0  0  0  0  0  0  0  0
   11.2166   13.6413   22.0800 C   0  0  0  0  0  0  0  0  0  0  0  0
   12.0629   16.2944   22.2473 C   0  0  0  0  0  0  0  0  0  0  0  0
   10.8335   15.9900   21.6627 C   0  0  0  0  0  0  0  0  0  0  0  0
    5.8966   13.6234   22.4528 C   0  0  0  0  0  0  0  0  0  0  0  0
    4.4972   13.1011   20.9722 C   0  0  0  0  0  0  0  0  0  0  0  0
   10.7713   12.2451   21.9927 C   0  0  0  0  0  0  0  0  0  0  0  0
    6.7921   13.5197   23.6142 C   0  0  0  0  0  0  0  0  0  0  0  0
    3.0739   10.9752   18.4411 C   0  0  0  0  0  0  0  0  0  0  0  0
    3.4504   12.4644   18.5580 C   0  0  0  0  0  0  0  0  0  0  0  0
    3.7779   10.7714   19.7964 C   0  0  0  0  0  0  0  0  0  0  0  0
    8.3370   10.5759   25.1397 C   0  0  0  0  0  0  0  0  0  0  0  0
    9.5618   10.3309   22.9774 C   0  0  0  0  0  0  0  0  0  0  0  0
    7.1242   11.0265   23.1497 C   0  0  0  0  0  0  0  0  0  0  0  0
    9.7515   12.4536   24.3161 C   0  0  0  0  0  0  0  0  0  0  0  0
    3.4675   12.2676   20.1041 C   0  0  0  0  0  0  0  0  0  0  0  0
    8.2186   10.0953   23.6920 C   0  0  2  0  0  0  0  0  0  0  0  0
    8.3799   12.0828   24.9032 C   0  0  1  0  0  0  0  0  0  0  0  0
   12.5321   17.7083   22.3450 C   0  0  0  0  0  0  0  0  0  0  0  0
    5.1243   12.5828   22.0039 N   0  0  0  0  0  0  0  0  0  0  0  0
   10.0220   11.7280   23.0552 N   0  0  0  0  0  0  0  0  0  0  0  0
    7.3451   12.2783   23.8815 N   0  0  0  0  0  0  0  0  0  0  0  0
   11.0910   11.6324   20.9753 O   0  0  0  0  0  0  0  0  0  0  0  0
    7.0063   14.5454   24.2566 O   0  0  0  0  0  0  0  0  0  0  0  0
    4.7922   14.4023   20.7022 O   0  0  0  0  0  0  0  0  0  0  0  0
   10.0343   16.9763   21.1681 O   0  0  0  0  0  0  0  0  0  0  0  0
   13.0817   13.1569   23.0583 H   0  0  0  0  0  0  0  0  0  0  0  0
   13.8284   15.4996   23.2055 H   0  0  0  0  0  0  0  0  0  0  0  0
    9.4513   14.4304   21.1226 H   0  0  0  0  0  0  0  0  0  0  0  0
    6.0783   15.7407   21.6443 H   0  0  0  0  0  0  0  0  0  0  0  0
    1.9944   10.7890   18.4720 H   0  0  0  0  0  0  0  0  0  0  0  0
    3.5057   10.4386   17.5929 H   0  0  0  0  0  0  0  0  0  0  0  0
    4.4227   12.7064   18.1112 H   0  0  0  0  0  0  0  0  0  0  0  0
    2.7031   13.1670   18.1784 H   0  0  0  0  0  0  0  0  0  0  0  0
    3.3076   10.0433   20.4630 H   0  0  0  0  0  0  0  0  0  0  0  0
    4.8436   10.5291   19.7030 H   0  0  0  0  0  0  0  0  0  0  0  0
    7.4505   10.2958   25.7211 H   0  0  0  0  0  0  0  0  0  0  0  0
    9.2248   10.1897   25.6505 H   0  0  0  0  0  0  0  0  0  0  0  0
   10.3449    9.7148   23.4356 H   0  0  0  0  0  0  0  0  0  0  0  0
    9.4864   10.0312   21.9260 H   0  0  0  0  0  0  0  0  0  0  0  0
    7.1806   11.1897   22.0692 H   0  0  0  0  0  0  0  0  0  0  0  0
    6.1241   10.6612   23.4081 H   0  0  0  0  0  0  0  0  0  0  0  0
    9.8034   13.5339   24.1487 H   0  0  0  0  0  0  0  0  0  0  0  0
   10.5538   12.1894   25.0153 H   0  0  0  0  0  0  0  0  0  0  0  0
    2.4199   12.3868   20.5452 H   0  0  0  0  0  0  0  0  0  0  0  0
    7.9299    9.0419   23.6294 H   0  0  0  0  0  0  0  0  0  0  0  0
    8.1646   12.6679   25.8024 H   0  0  0  0  0  0  0  0  0  0  0  0
   13.1090   17.9801   21.4533 H   0  0  0  0  0  0  0  0  0  0  0  0
   11.6867   18.4014   22.4387 H   0  0  0  0  0  0  0  0  0  0  0  0
   13.1650   17.8561   23.2291 H   0  0  0  0  0  0  0  0  0  0  0  0
    9.2221   16.5957   20.7988 H   0  0  0  0  0  0  0  0  0  0  0  0
  1  2  2  0  0  0  0
  1  5  1  0  0  0  0
  2  6  1  0  0  0  0
  3  5  2  0  0  0  0
  3  7  1  0  0  0  0
  4  8  2  0  0  0  0
  4 28  1  0  0  0  0
  5 10  1  0  0  0  0
  6  7  2  0  0  0  0
  6 22  1  0  0  0  0
  7 29  1  0  0  0  0
  8 11  1  0  0  0  0
  8 23  1  0  0  0  0
  9 19  1  0  0  0  0
  9 23  2  0  0  0  0
  9 28  1  0  0  0  0
 10 24  1  0  0  0  0
 10 26  2  0  0  0  0
 11 25  1  0  0  0  0
 11 27  2  0  0  0  0
 12 13  1  0  0  0  0
 12 14  1  0  0  0  0
 13 19  1  0  0  0  0
 14 19  1  0  0  0  0
 15 20  1  0  0  0  0
 15 21  1  0  0  0  0
 16 20  1  0  0  0  0
 16 24  1  0  0  0  0
 17 20  1  0  0  0  0
 17 25  1  0  0  0  0
 18 21  1  0  0  0  0
 18 24  1  0  0  0  0
 21 25  1  0  0  0  0
  1 30  1  0  0  0  0
  2 31  1  0  0  0  0
  3 32  1  0  0  0  0
  4 33  1  0  0  0  0
 12 34  1  0  0  0  0
 12 35  1  0  0  0  0
 13 36  1  0  0  0  0
 13 37  1  0  0  0  0
 14 38  1  0  0  0  0
 14 39  1  0  0  0  0
 15 40  1  0  0  0  0
 15 41  1  0  0  0  0
 16 42  1  0  0  0  0
 16 43  1  0  0  0  0
 17 44  1  0  0  0  0
 17 45  1  0  0  0  0
 18 46  1  0  0  0  0
 18 47  1  0  0  0  0
 19 48  1  0  0  0  0
 20 49  1  0  0  0  0
 21 50  1  0  0  0  0
 22 51  1  0  0  0  0
 22 52  1  0  0  0  0
 22 53  1  0  0  0  0
 29 54  1  0  0  0  0
M  END
> <idnumber>
Z7371457352

> <heavy_atoms>
29

> <LogS>
-4.305

> <LogP>
1.64

> <rotating_bonds>
3

> <PSA>
86.88

> <hb_acceptors>
4

> <hb_donors>
1

> <Collection>
Advanced

> <link>
https://www.enaminestore.com/catalog/Z7371457352

> <ROCS_ShapeQuery>
x0446_0A_x1080_0A_x0929_0A_x0812_0A_x0719_0A_x1140_0A_x0528_0A_x0310_0A

> <ROCS_TanimotoCombo>
0.462 

> <ROCS_ShapeTanimoto>
0.276 

> <ROCS_ColorTanimoto>
0.186 

> <ROCS_RefTversky>
0.251 

> <ROCS_RefColorTversky>
0.222 

> <ROCS_RefTverskyCombo>
0.473 

> <ROCS_FitTversky>
1.566 

> <ROCS_FitColorTversky>
0.533 

> <ROCS_FitTverskyCombo>
2.099 

> <ROCS_ColorScore>
-8.011

> <ROCS_Overlap>
2965.320

> <ROCS_Rank>
212                 

$$$$
untitled-dbase-450619_3
  -OEChem-02092406493D

 41 45  0     0  0  0  0  0  0999 V2000
   11.8233   16.3397   21.5095 C   0  0  0  0  0  0  0  0  0  0  0  0
   12.1262   13.8641   22.8874 C   0  0  0  0  0  0  0  0  0  0  0  0
    7.9562   12.4631   23.6345 C   0  0  0  0  0  0  0  0  0  0  0  0
    6.8352   13.3131   23.7760 C   0  0  0  0  0  0  0  0  0  0  0  0
   13.0797   15.9040   21.9506 C   0  0  0  0  0  0  0  0  0  0  0  0
   13.2262   14.6888   22.6265 C   0  0  0  0  0  0  0  0  0  0  0  0
   10.7126   15.5223   21.7648 C   0  0  0  0  0  0  0  0  0  0  0  0
   10.8891   14.3213   22.4382 C   0  0  0  0  0  0  0  0  0  0  0  0
    5.7873   12.7005   24.4072 C   0  0  0  0  0  0  0  0  0  0  0  0
    9.2287   12.6159   23.0787 C   0  0  0  0  0  0  0  0  0  0  0  0
    7.6690   11.2136   24.1904 C   0  0  0  0  0  0  0  0  0  0  0  0
    9.6930   10.4365   23.6666 C   0  0  0  0  0  0  0  0  0  0  0  0
    6.4981   14.7131   23.4169 C   0  0  0  0  0  0  0  0  0  0  0  0
    4.5950   13.5628   24.5746 C   0  0  0  0  0  0  0  0  0  0  0  0
    4.9500   14.7430   23.6179 C   0  0  0  0  0  0  0  0  0  0  0  0
   14.2674   16.7715   21.6807 C   0  0  0  0  0  0  0  0  0  0  0  0
   14.5748   14.2374   23.0903 C   0  0  0  0  0  0  0  0  0  0  0  0
   10.6885    9.3241   23.6672 C   0  0  0  0  0  0  0  0  0  0  0  0
    9.3866   15.6822   21.4603 N   0  0  0  0  0  0  0  0  0  0  0  0
   10.1041   11.5877   23.0973 N   0  0  0  0  0  0  0  0  0  0  0  0
    8.5050   10.1580   24.2341 N   0  0  0  0  0  0  0  0  0  0  0  0
    8.7281   14.6236   21.9196 N   0  0  0  0  0  0  0  0  0  0  0  0
    9.6248   13.8112   22.5030 N   0  0  0  0  0  0  0  0  0  0  0  0
    6.0832   11.1170   24.8524 S   0  0  0  0  0  0  0  0  0  0  0  0
   11.7083   17.2823   20.9837 H   0  0  0  0  0  0  0  0  0  0  0  0
   12.2315   12.9204   23.4112 H   0  0  0  0  0  0  0  0  0  0  0  0
    6.9866   15.4133   24.1029 H   0  0  0  0  0  0  0  0  0  0  0  0
    6.7643   14.9659   22.3870 H   0  0  0  0  0  0  0  0  0  0  0  0
    3.6618   13.0773   24.2763 H   0  0  0  0  0  0  0  0  0  0  0  0
    4.5124   13.9171   25.6073 H   0  0  0  0  0  0  0  0  0  0  0  0
    4.5984   15.7070   23.9981 H   0  0  0  0  0  0  0  0  0  0  0  0
    4.4619   14.5752   22.6487 H   0  0  0  0  0  0  0  0  0  0  0  0
   14.4198   17.4721   22.5090 H   0  0  0  0  0  0  0  0  0  0  0  0
   15.1756   16.1699   21.5579 H   0  0  0  0  0  0  0  0  0  0  0  0
   14.1349   17.3449   20.7556 H   0  0  0  0  0  0  0  0  0  0  0  0
   15.0627   13.6429   22.3104 H   0  0  0  0  0  0  0  0  0  0  0  0
   15.2152   15.0935   23.3321 H   0  0  0  0  0  0  0  0  0  0  0  0
   14.4957   13.6288   23.9986 H   0  0  0  0  0  0  0  0  0  0  0  0
   11.3007    9.3619   24.5759 H   0  0  0  0  0  0  0  0  0  0  0  0
   10.1918    8.3468   23.6212 H   0  0  0  0  0  0  0  0  0  0  0  0
   11.3527    9.3854   22.7959 H   0  0  0  0  0  0  0  0  0  0  0  0
  1  5  1  0  0  0  0
  1  7  2  0  0  0  0
  2  6  1  0  0  0  0
  2  8  2  0  0  0  0
  3  4  1  0  0  0  0
  3 10  2  0  0  0  0
  3 11  1  0  0  0  0
  4  9  2  0  0  0  0
  4 13  1  0  0  0  0
  5  6  2  0  0  0  0
  5 16  1  0  0  0  0
  6 17  1  0  0  0  0
  7  8  1  0  0  0  0
  7 19  1  0  0  0  0
  8 23  1  0  0  0  0
  9 14  1  0  0  0  0
  9 24  1  0  0  0  0
 10 20  1  0  0  0  0
 10 23  1  0  0  0  0
 11 21  2  0  0  0  0
 11 24  1  0  0  0  0
 12 18  1  0  0  0  0
 12 20  2  0  0  0  0
 12 21  1  0  0  0  0
 13 15  1  0  0  0  0
 14 15  1  0  0  0  0
 19 22  2  0  0  0  0
 22 23  1  0  0  0  0
  1 25  1  0  0  0  0
  2 26  1  0  0  0  0
 13 27  1  0  0  0  0
 13 28  1  0  0  0  0
 14 29  1  0  0  0  0
 14 30  1  0  0  0  0
 15 31  1  0  0  0  0
 15 32  1  0  0  0  0
 16 33  1  0  0  0  0
 16 34  1  0  0  0  0
 16 35  1  0  0  0  0
 17 36  1  0  0  0  0
 17 37  1  0  0  0  0
 17 38  1  0  0  0  0
 18 39  1  0  0  0  0
 18 40  1  0  0  0  0
 18 41  1  0  0  0  0
M  END
> <idnumber>
Z56881687

> <heavy_atoms>
24

> <LogS>
-6.09

> <LogP>
5.271

> <rotating_bonds>
1

> <PSA>
56.49

> <hb_acceptors>
4

> <hb_donors>
0

> <Collection>
Legacy

> <link>
https://www.enaminestore.com/catalog/Z56881687

> <ROCS_ShapeQuery>
x0446_0A_x1080_0A_x0929_0A_x0812_0A_x0719_0A_x1140_0A_x0528_0A_x0310_0A

> <ROCS_TanimotoCombo>
0.462 

> <ROCS_ShapeTanimoto>
0.270 

> <ROCS_ColorTanimoto>
0.192 

> <ROCS_RefTversky>
0.243 

> <ROCS_RefColorTversky>
0.210 

> <ROCS_RefTverskyCombo>
0.453 

> <ROCS_FitTversky>
1.689 

> <ROCS_FitColorTversky>
0.694 

> <ROCS_FitTverskyCombo>
2.383 

> <ROCS_ColorScore>
-7.502

> <ROCS_Overlap>
2873.582

> <ROCS_Rank>
213                 

$$$$
untitled-dbase-1181047_109
  -OEChem-02092406493D

 46 49  0     1  0  0  0  0  0999 V2000
   10.6174   17.2679   20.7180 C   0  0  0  0  0  0  0  0  0  0  0  0
   11.7502   16.8971   20.0241 C   0  0  0  0  0  0  0  0  0  0  0  0
   10.4952   15.0993   21.0218 C   0  0  0  0  0  0  0  0  0  0  0  0
    4.6133   13.3796   23.0961 C   0  0  0  0  0  0  0  0  0  0  0  0
    5.7477   13.3256   23.7999 C   0  0  0  0  0  0  0  0  0  0  0  0
    4.2944   14.6225   22.3519 C   0  0  0  0  0  0  0  0  0  0  0  0
    6.4250   15.5738   23.2055 C   0  0  0  0  0  0  0  0  0  0  0  0
    6.0682   12.0848   24.5445 C   0  0  0  0  0  0  0  0  0  0  0  0
   10.2946   13.5111   22.9356 C   0  0  0  0  0  0  0  0  0  0  0  0
    9.6613    9.9580   23.5335 C   0  0  0  0  0  0  0  0  0  0  0  0
    7.9608   10.6672   25.2157 C   0  0  0  0  0  0  0  0  0  0  0  0
   10.1453   11.8947   24.8193 C   0  0  0  0  0  0  0  0  0  0  0  0
    7.7271   11.3398   22.7958 C   0  0  0  0  0  0  0  0  0  0  0  0
    9.4667   10.5248   24.9413 C   0  0  2  0  0  0  0  0  0  0  0  0
    9.2537   11.1775   22.7084 C   0  0  1  0  0  0  0  0  0  0  0  0
   12.7317   17.7298   19.3025 C   0  0  0  0  0  0  0  0  0  0  0  0
   10.0074   13.7558   21.4767 C   0  0  0  0  0  0  0  0  0  0  0  0
    9.8962   16.2383   21.2904 N   0  0  0  0  0  0  0  0  0  0  0  0
    6.6302   14.3695   23.8642 N   0  0  0  0  0  0  0  0  0  0  0  0
    5.2389   15.6337   22.4680 N   0  0  0  0  0  0  0  0  0  0  0  0
    7.2501   11.4445   24.1891 N   0  0  0  0  0  0  0  0  0  0  0  0
    9.9156   12.2771   23.4286 N   0  0  0  0  0  0  0  0  0  0  0  0
    3.2616   14.7123   21.6943 O   0  0  0  0  0  0  0  0  0  0  0  0
    7.2198   16.5126   23.2644 O   0  0  0  0  0  0  0  0  0  0  0  0
    5.2512   11.7462   25.3908 O   0  0  0  0  0  0  0  0  0  0  0  0
   10.8485   14.3791   23.6132 O   0  0  0  0  0  0  0  0  0  0  0  0
   11.9306   15.1927   20.0859 S   0  0  0  0  0  0  0  0  0  0  0  0
   10.2663   18.2842   20.8392 H   0  0  0  0  0  0  0  0  0  0  0  0
    3.9080   12.5586   23.0388 H   0  0  0  0  0  0  0  0  0  0  0  0
   10.7123    9.6989   23.3567 H   0  0  0  0  0  0  0  0  0  0  0  0
    9.0467    9.0736   23.3367 H   0  0  0  0  0  0  0  0  0  0  0  0
    7.4877    9.6776   25.2530 H   0  0  0  0  0  0  0  0  0  0  0  0
    7.8292   11.1383   26.1957 H   0  0  0  0  0  0  0  0  0  0  0  0
    9.7436   12.6490   25.5052 H   0  0  0  0  0  0  0  0  0  0  0  0
   11.2293   11.8176   24.9700 H   0  0  0  0  0  0  0  0  0  0  0  0
    7.4059   12.2189   22.2278 H   0  0  0  0  0  0  0  0  0  0  0  0
    7.2281   10.4688   22.3564 H   0  0  0  0  0  0  0  0  0  0  0  0
    9.9387    9.9003   25.7061 H   0  0  0  0  0  0  0  0  0  0  0  0
    9.5887   11.1273   21.6703 H   0  0  0  0  0  0  0  0  0  0  0  0
   13.5525   18.0440   19.9681 H   0  0  0  0  0  0  0  0  0  0  0  0
   13.1800   17.1947   18.4478 H   0  0  0  0  0  0  0  0  0  0  0  0
   12.2726   18.6418   18.8835 H   0  0  0  0  0  0  0  0  0  0  0  0
    8.9311   13.6718   21.3149 H   0  0  0  0  0  0  0  0  0  0  0  0
   10.4724   12.9581   20.8951 H   0  0  0  0  0  0  0  0  0  0  0  0
    7.4729   14.2562   24.4200 H   0  0  0  0  0  0  0  0  0  0  0  0
    5.0513   16.4990   21.9695 H   0  0  0  0  0  0  0  0  0  0  0  0
  1  2  2  0  0  0  0
  1 18  1  0  0  0  0
  2 16  1  0  0  0  0
  2 27  1  0  0  0  0
  3 17  1  0  0  0  0
  3 18  2  0  0  0  0
  3 27  1  0  0  0  0
  4  5  2  0  0  0  0
  4  6  1  0  0  0  0
  5  8  1  0  0  0  0
  5 19  1  0  0  0  0
  6 20  1  0  0  0  0
  6 23  2  0  0  0  0
  7 19  1  0  0  0  0
  7 20  1  0  0  0  0
  7 24  2  0  0  0  0
  8 21  1  0  0  0  0
  8 25  2  0  0  0  0
  9 17  1  0  0  0  0
  9 22  1  0  0  0  0
  9 26  2  0  0  0  0
 10 14  1  0  0  0  0
 10 15  1  0  0  0  0
 11 14  1  0  0  0  0
 11 21  1  0  0  0  0
 12 14  1  0  0  0  0
 12 22  1  0  0  0  0
 13 15  1  0  0  0  0
 13 21  1  0  0  0  0
 15 22  1  0  0  0  0
  1 28  1  0  0  0  0
  4 29  1  0  0  0  0
 10 30  1  0  0  0  0
 10 31  1  0  0  0  0
 11 32  1  0  0  0  0
 11 33  1  0  0  0  0
 12 34  1  0  0  0  0
 12 35  1  0  0  0  0
 13 36  1  0  0  0  0
 13 37  1  0  0  0  0
 14 38  1  0  0  0  0
 15 39  1  0  0  0  0
 16 40  1  0  0  0  0
 16 41  1  0  0  0  0
 16 42  1  0  0  0  0
 17 43  1  0  0  0  0
 17 44  1  0  0  0  0
 19 45  1  0  0  0  0
 20 46  1  0  0  0  0
M  END
> <idnumber>
Z8796416848

> <heavy_atoms>
27

> <LogS>
-3.574

> <LogP>
-1.169

> <rotating_bonds>
3

> <PSA>
111.71

> <hb_acceptors>
5

> <hb_donors>
2

> <Collection>
Advanced

> <link>
https://www.enaminestore.com/catalog/Z8796416848

> <ROCS_ShapeQuery>
x0446_0A_x1080_0A_x0929_0A_x0812_0A_x0719_0A_x1140_0A_x0528_0A_x0310_0A

> <ROCS_TanimotoCombo>
0.462 

> <ROCS_ShapeTanimoto>
0.246 

> <ROCS_ColorTanimoto>
0.215 

> <ROCS_RefTversky>
0.227 

> <ROCS_RefColorTversky>
0.256 

> <ROCS_RefTverskyCombo>
0.483 

> <ROCS_FitTversky>
1.504 

> <ROCS_FitColorTversky>
0.577 

> <ROCS_FitTverskyCombo>
2.082 

> <ROCS_ColorScore>
-9.228

> <ROCS_Overlap>
2689.599

> <ROCS_Rank>
214                 

$$$$
untitled-dbase-191641_71
  -OEChem-02092406493D

 64 69  0     1  0  0  0  0  0999 V2000
   10.2730   14.6820   21.8758 C   0  0  0  0  0  0  0  0  0  0  0  0
   11.7186   14.1732   23.7435 C   0  0  0  0  0  0  0  0  0  0  0  0
   11.0345   15.8166   21.5955 C   0  0  0  0  0  0  0  0  0  0  0  0
   12.4801   15.3078   23.4632 C   0  0  0  0  0  0  0  0  0  0  0  0
    0.9391   12.9272   17.9106 C   0  0  0  0  0  0  0  0  0  0  0  0
    1.9903   12.0371   17.9162 C   0  0  0  0  0  0  0  0  0  0  0  0
    1.6548   13.7851   19.9059 C   0  0  0  0  0  0  0  0  0  0  0  0
   10.6151   13.8604   22.9499 C   0  0  0  0  0  0  0  0  0  0  0  0
   12.1380   16.1294   22.3891 C   0  0  0  0  0  0  0  0  0  0  0  0
    2.7057   12.8945   19.9120 C   0  0  0  0  0  0  0  0  0  0  0  0
    6.0365   12.2087   24.2342 C   0  0  0  0  0  0  0  0  0  0  0  0
    9.4827    9.6637   23.6877 C   0  0  0  0  0  0  0  0  0  0  0  0
    9.7311   11.5772   22.0899 C   0  0  0  0  0  0  0  0  0  0  0  0
   10.3555   11.8710   24.5012 C   0  0  0  0  0  0  0  0  0  0  0  0
    7.4466   10.7964   22.7609 C   0  0  0  0  0  0  0  0  0  0  0  0
    8.0656   11.0992   25.1744 C   0  0  0  0  0  0  0  0  0  0  0  0
    8.3047   13.0159   23.5672 C   0  0  0  0  0  0  0  0  0  0  0  0
    3.0531   12.6809   22.3352 C   0  0  0  0  0  0  0  0  0  0  0  0
    5.0009   12.5441   20.7829 C   0  0  0  0  0  0  0  0  0  0  0  0
    3.9697   13.2832   23.3976 C   0  0  0  0  0  0  0  0  0  0  0  0
    5.8856   13.1454   21.8748 C   0  0  0  0  0  0  0  0  0  0  0  0
    8.8816   10.3470   22.4517 C   0  0  2  0  0  0  0  0  0  0  0  0
    9.5017   10.6446   24.8681 C   0  0  1  0  0  0  0  0  0  0  0  0
    9.7765   12.6098   23.2585 C   0  0  0  0  0  0  0  0  0  0  0  0
    7.4529   11.7849   23.9385 C   0  0  0  0  0  0  0  0  0  0  0  0
   12.4765   18.0307   21.0012 C   0  0  0  0  0  0  0  0  0  0  0  0
    0.7525   13.8173   18.9053 N   0  0  0  0  0  0  0  0  0  0  0  0
    2.8925   12.0047   18.9170 N   0  0  0  0  0  0  0  0  0  0  0  0
    3.5976   12.9277   20.9901 N   0  0  0  0  0  0  0  0  0  0  0  0
    5.3478   12.8406   23.2019 N   0  0  0  0  0  0  0  0  0  0  0  0
    5.5581   11.9820   25.3485 O   0  0  0  0  0  0  0  0  0  0  0  0
   12.8817   17.2359   22.1146 O   0  0  0  0  0  0  0  0  0  0  0  0
    9.4149   14.4460   21.2523 H   0  0  0  0  0  0  0  0  0  0  0  0
   11.9925   13.5388   24.5826 H   0  0  0  0  0  0  0  0  0  0  0  0
   10.7631   16.4527   20.7571 H   0  0  0  0  0  0  0  0  0  0  0  0
   13.3387   15.5458   24.0849 H   0  0  0  0  0  0  0  0  0  0  0  0
    0.2140   12.9517   17.1066 H   0  0  0  0  0  0  0  0  0  0  0  0
    2.1405   11.3228   17.1161 H   0  0  0  0  0  0  0  0  0  0  0  0
    1.4953   14.5050   20.7005 H   0  0  0  0  0  0  0  0  0  0  0  0
    8.8955    8.7746   23.9478 H   0  0  0  0  0  0  0  0  0  0  0  0
   10.5011    9.3199   23.4688 H   0  0  0  0  0  0  0  0  0  0  0  0
   10.7503   11.2576   21.8332 H   0  0  0  0  0  0  0  0  0  0  0  0
    9.3246   12.0520   21.1864 H   0  0  0  0  0  0  0  0  0  0  0  0
   10.3996   12.5576   25.3573 H   0  0  0  0  0  0  0  0  0  0  0  0
   11.3897   11.5567   24.3060 H   0  0  0  0  0  0  0  0  0  0  0  0
    6.9995   11.2613   21.8722 H   0  0  0  0  0  0  0  0  0  0  0  0
    6.8231    9.9235   22.9959 H   0  0  0  0  0  0  0  0  0  0  0  0
    7.4586   10.2344   25.4733 H   0  0  0  0  0  0  0  0  0  0  0  0
    8.0639   11.7850   26.0319 H   0  0  0  0  0  0  0  0  0  0  0  0
    8.2829   13.7479   24.3872 H   0  0  0  0  0  0  0  0  0  0  0  0
    7.8681   13.5318   22.7001 H   0  0  0  0  0  0  0  0  0  0  0  0
    2.9474   11.6033   22.4986 H   0  0  0  0  0  0  0  0  0  0  0  0
    2.0599   13.1324   22.4197 H   0  0  0  0  0  0  0  0  0  0  0  0
    5.3239   12.8935   19.7967 H   0  0  0  0  0  0  0  0  0  0  0  0
    5.1133   11.4543   20.7955 H   0  0  0  0  0  0  0  0  0  0  0  0
    3.9630   14.3701   23.3345 H   0  0  0  0  0  0  0  0  0  0  0  0
    3.6212   12.9920   24.3840 H   0  0  0  0  0  0  0  0  0  0  0  0
    6.8944   12.7325   21.8273 H   0  0  0  0  0  0  0  0  0  0  0  0
    5.9585   14.2242   21.7422 H   0  0  0  0  0  0  0  0  0  0  0  0
    8.8740    9.6451   21.6102 H   0  0  0  0  0  0  0  0  0  0  0  0
    9.9275   10.1519   25.7494 H   0  0  0  0  0  0  0  0  0  0  0  0
   13.1543   18.8811   20.8938 H   0  0  0  0  0  0  0  0  0  0  0  0
   11.4540   18.3835   21.1571 H   0  0  0  0  0  0  0  0  0  0  0  0
   12.5152   17.4203   20.0959 H   0  0  0  0  0  0  0  0  0  0  0  0
  1  3  2  0  0  0  0
  1  8  1  0  0  0  0
  2  4  1  0  0  0  0
  2  8  2  0  0  0  0
  3  9  1  0  0  0  0
  4  9  2  0  0  0  0
  5  6  2  0  0  0  0
  5 27  1  0  0  0  0
  6 28  1  0  0  0  0
  7 10  1  0  0  0  0
  7 27  2  0  0  0  0
  8 24  1  0  0  0  0
  9 32  1  0  0  0  0
 10 28  2  0  0  0  0
 10 29  1  0  0  0  0
 11 25  1  0  0  0  0
 11 30  1  0  0  0  0
 11 31  2  0  0  0  0
 12 22  1  0  0  0  0
 12 23  1  0  0  0  0
 13 22  1  0  0  0  0
 13 24  1  0  0  0  0
 14 23  1  0  0  0  0
 14 24  1  0  0  0  0
 15 22  1  0  0  0  0
 15 25  1  0  0  0  0
 16 23  1  0  0  0  0
 16 25  1  0  0  0  0
 17 24  1  0  0  0  0
 17 25  1  0  0  0  0
 18 20  1  0  0  0  0
 18 29  1  0  0  0  0
 19 21  1  0  0  0  0
 19 29  1  0  0  0  0
 20 30  1  0  0  0  0
 21 30  1  0  0  0  0
 26 32  1  0  0  0  0
  1 33  1  0  0  0  0
  2 34  1  0  0  0  0
  3 35  1  0  0  0  0
  4 36  1  0  0  0  0
  5 37  1  0  0  0  0
  6 38  1  0  0  0  0
  7 39  1  0  0  0  0
 12 40  1  0  0  0  0
 12 41  1  0  0  0  0
 13 42  1  0  0  0  0
 13 43  1  0  0  0  0
 14 44  1  0  0  0  0
 14 45  1  0  0  0  0
 15 46  1  0  0  0  0
 15 47  1  0  0  0  0
 16 48  1  0  0  0  0
 16 49  1  0  0  0  0
 17 50  1  0  0  0  0
 17 51  1  0  0  0  0
 18 52  1  0  0  0  0
 18 53  1  0  0  0  0
 19 54  1  0  0  0  0
 19 55  1  0  0  0  0
 20 56  1  0  0  0  0
 20 57  1  0  0  0  0
 21 58  1  0  0  0  0
 21 59  1  0  0  0  0
 22 60  1  0  0  0  0
 23 61  1  0  0  0  0
 26 62  1  0  0  0  0
 26 63  1  0  0  0  0
 26 64  1  0  0  0  0
M  END
> <idnumber>
Z237103650

> <heavy_atoms>
32

> <LogS>
-4.724

> <LogP>
3.452

> <rotating_bonds>
4

> <PSA>
58.56

> <hb_acceptors>
5

> <hb_donors>
0

> <Collection>
HTS

> <link>
https://www.enaminestore.com/catalog/Z237103650

> <ROCS_ShapeQuery>
x0446_0A_x1080_0A_x0929_0A_x0812_0A_x0719_0A_x1140_0A_x0528_0A_x0310_0A

> <ROCS_TanimotoCombo>
0.462 

> <ROCS_ShapeTanimoto>
0.282 

> <ROCS_ColorTanimoto>
0.179 

> <ROCS_RefTversky>
0.258 

> <ROCS_RefColorTversky>
0.214 

> <ROCS_RefTverskyCombo>
0.472 

> <ROCS_FitTversky>
1.503 

> <ROCS_FitColorTversky>
0.526 

> <ROCS_FitTverskyCombo>
2.029 

> <ROCS_ColorScore>
-7.696

> <ROCS_Overlap>
3054.825

> <ROCS_Rank>
215                 

$$$$
untitled-dbase-682513_28
  -OEChem-02092406493D

 50 54  0     1  0  0  0  0  0999 V2000
    5.5664   12.7502   25.3901 C   0  0  0  0  0  0  0  0  0  0  0  0
    5.2512   11.4005   25.3462 C   0  0  0  0  0  0  0  0  0  0  0  0
    6.1900   16.4938   20.4435 C   0  0  0  0  0  0  0  0  0  0  0  0
    6.7383   14.3672   21.4504 C   0  0  0  0  0  0  0  0  0  0  0  0
    6.8216   13.1750   24.9588 C   0  0  0  0  0  0  0  0  0  0  0  0
    6.1950   10.4913   24.8722 C   0  0  0  0  0  0  0  0  0  0  0  0
    4.8325   16.1865   20.5336 C   0  0  0  0  0  0  0  0  0  0  0  0
    5.3807   14.0598   21.5405 C   0  0  0  0  0  0  0  0  0  0  0  0
    7.1430   15.5841   20.9019 C   0  0  0  0  0  0  0  0  0  0  0  0
    7.7679   12.2690   24.4839 C   0  0  0  0  0  0  0  0  0  0  0  0
    7.4516   10.9118   24.4408 C   0  0  0  0  0  0  0  0  0  0  0  0
    4.4278   14.9695   21.0821 C   0  0  0  0  0  0  0  0  0  0  0  0
    9.8789   11.7998   23.6067 C   0  0  0  0  0  0  0  0  0  0  0  0
    9.5783   10.4399   23.5795 C   0  0  0  0  0  0  0  0  0  0  0  0
    8.5393   15.9002   20.8095 C   0  0  0  0  0  0  0  0  0  0  0  0
   10.5736   15.8451   21.1812 C   0  0  0  0  0  0  0  0  0  0  0  0
   11.4480   13.6520   23.1339 C   0  0  0  0  0  0  0  0  0  0  0  0
   12.0496   11.2814   22.5275 C   0  0  0  0  0  0  0  0  0  0  0  0
   11.9011    9.9016   23.1398 C   0  0  0  0  0  0  0  0  0  0  0  0
   10.1771    8.0908   23.1952 C   0  0  0  0  0  0  0  0  0  0  0  0
   11.9945   15.6106   21.6331 C   0  0  0  0  0  0  0  0  0  0  0  0
   12.2934   14.1581   21.9874 C   0  0  0  0  0  0  0  0  0  0  0  0
    8.9691   12.6922   24.0678 N   0  0  0  0  0  0  0  0  0  0  0  0
    8.3512   10.0253   23.9905 N   0  0  0  0  0  0  0  0  0  0  0  0
    9.4698   15.2640   21.5784 N   0  0  0  0  0  0  0  0  0  0  0  0
    9.0132   16.8284   19.9730 N   0  0  0  0  0  0  0  0  0  0  0  0
   11.1494   12.2778   23.1212 N   0  0  0  0  0  0  0  0  0  0  0  0
   10.5078    9.5040   23.1326 N   0  0  1  0  0  0  0  0  0  0  0  0
   11.0831   14.4581   23.9935 O   0  0  0  0  0  0  0  0  0  0  0  0
   10.3906   16.7920   20.2240 O   0  0  0  0  0  0  0  0  0  0  0  0
    2.7531   14.5888   21.1926 Cl  0  0  0  0  0  0  0  0  0  0  0  0
    4.8425   13.4707   25.7579 H   0  0  0  0  0  0  0  0  0  0  0  0
    4.2773   11.0538   25.6779 H   0  0  0  0  0  0  0  0  0  0  0  0
    6.4885   17.4472   20.0133 H   0  0  0  0  0  0  0  0  0  0  0  0
    7.4691   13.6475   21.8120 H   0  0  0  0  0  0  0  0  0  0  0  0
    7.0591   14.2362   24.9983 H   0  0  0  0  0  0  0  0  0  0  0  0
    5.9368    9.4347   24.8410 H   0  0  0  0  0  0  0  0  0  0  0  0
    4.1010   16.9048   20.1725 H   0  0  0  0  0  0  0  0  0  0  0  0
    5.0802   13.1072   21.9690 H   0  0  0  0  0  0  0  0  0  0  0  0
   13.0735   11.6549   22.6558 H   0  0  0  0  0  0  0  0  0  0  0  0
   11.8672   11.2010   21.4520 H   0  0  0  0  0  0  0  0  0  0  0  0
   12.5006    9.1697   22.5833 H   0  0  0  0  0  0  0  0  0  0  0  0
   12.2903    9.9232   24.1645 H   0  0  0  0  0  0  0  0  0  0  0  0
   11.0183    7.4992   22.8049 H   0  0  0  0  0  0  0  0  0  0  0  0
    9.9821    7.8060   24.2396 H   0  0  0  0  0  0  0  0  0  0  0  0
    9.2801    7.8971   22.5887 H   0  0  0  0  0  0  0  0  0  0  0  0
   12.2338   16.2700   22.4777 H   0  0  0  0  0  0  0  0  0  0  0  0
   12.6676   15.9153   20.8211 H   0  0  0  0  0  0  0  0  0  0  0  0
   12.1321   13.5002   21.1333 H   0  0  0  0  0  0  0  0  0  0  0  0
   13.3359   14.0608   22.2916 H   0  0  0  0  0  0  0  0  0  0  0  0
  1  2  1  0  0  0  0
  1  5  2  0  0  0  0
  2  6  2  0  0  0  0
  3  7  2  0  0  0  0
  3  9  1  0  0  0  0
  4  8  1  0  0  0  0
  4  9  2  0  0  0  0
  5 10  1  0  0  0  0
  6 11  1  0  0  0  0
  7 12  1  0  0  0  0
  8 12  2  0  0  0  0
  9 15  1  0  0  0  0
 10 11  1  0  0  0  0
 10 23  2  0  0  0  0
 11 24  2  0  0  0  0
 12 31  1  0  0  0  0
 13 14  2  0  0  0  0
 13 23  1  0  0  0  0
 13 27  1  0  0  0  0
 14 24  1  0  0  0  0
 14 28  1  0  0  0  0
 15 25  1  0  0  0  0
 15 26  2  0  0  0  0
 16 21  1  0  0  0  0
 16 25  2  0  0  0  0
 16 30  1  0  0  0  0
 17 22  1  0  0  0  0
 17 27  1  0  0  0  0
 17 29  2  0  0  0  0
 18 19  1  0  0  0  0
 18 27  1  0  0  0  0
 19 28  1  0  0  0  0
 20 28  1  0  0  0  0
 21 22  1  0  0  0  0
 26 30  1  0  0  0  0
  1 32  1  0  0  0  0
  2 33  1  0  0  0  0
  3 34  1  0  0  0  0
  4 35  1  0  0  0  0
  5 36  1  0  0  0  0
  6 37  1  0  0  0  0
  7 38  1  0  0  0  0
  8 39  1  0  0  0  0
 18 40  1  0  0  0  0
 18 41  1  0  0  0  0
 19 42  1  0  0  0  0
 19 43  1  0  0  0  0
 20 44  1  0  0  0  0
 20 45  1  0  0  0  0
 20 46  1  0  0  0  0
 21 47  1  0  0  0  0
 21 48  1  0  0  0  0
 22 49  1  0  0  0  0
 22 50  1  0  0  0  0
M  END
> <idnumber>
Z235431350

> <heavy_atoms>
31

> <LogS>
-5.45

> <LogP>
3.459

> <rotating_bonds>
4

> <PSA>
88.25

> <hb_acceptors>
6

> <hb_donors>
0

> <Collection>
Legacy

> <link>
https://www.enaminestore.com/catalog/Z235431350

> <ROCS_ShapeQuery>
x0446_0A_x1080_0A_x0929_0A_x0812_0A_x0719_0A_x1140_0A_x0528_0A_x0310_0A

> <ROCS_TanimotoCombo>
0.462 

> <ROCS_ShapeTanimoto>
0.288 

> <ROCS_ColorTanimoto>
0.174 

> <ROCS_RefTversky>
0.261 

> <ROCS_RefColorTversky>
0.195 

> <ROCS_RefTverskyCombo>
0.456 

> <ROCS_FitTversky>
1.548 

> <ROCS_FitColorTversky>
0.613 

> <ROCS_FitTverskyCombo>
2.161 

> <ROCS_ColorScore>
-6.984

> <ROCS_Overlap>
3094.226

> <ROCS_Rank>
216                 

$$$$
untitled-dbase-401917_36
  -OEChem-02092406493D

 50 54  0     1  0  0  0  0  0999 V2000
    5.5658   12.7501   25.3902 C   0  0  0  0  0  0  0  0  0  0  0  0
    5.2507   11.4004   25.3463 C   0  0  0  0  0  0  0  0  0  0  0  0
    6.1897   16.4939   20.4436 C   0  0  0  0  0  0  0  0  0  0  0  0
    6.7379   14.3670   21.4501 C   0  0  0  0  0  0  0  0  0  0  0  0
    6.8209   13.1750   24.9590 C   0  0  0  0  0  0  0  0  0  0  0  0
    6.1947   10.4913   24.8724 C   0  0  0  0  0  0  0  0  0  0  0  0
    4.8321   16.1863   20.5330 C   0  0  0  0  0  0  0  0  0  0  0  0
    5.3803   14.0594   21.5396 C   0  0  0  0  0  0  0  0  0  0  0  0
    7.1426   15.5842   20.9021 C   0  0  0  0  0  0  0  0  0  0  0  0
    7.7674   12.2692   24.4843 C   0  0  0  0  0  0  0  0  0  0  0  0
    7.4513   10.9119   24.4411 C   0  0  0  0  0  0  0  0  0  0  0  0
    4.4274   14.9691   21.0810 C   0  0  0  0  0  0  0  0  0  0  0  0
    9.8786   11.8003   23.6073 C   0  0  0  0  0  0  0  0  0  0  0  0
    9.5781   10.4403   23.5800 C   0  0  0  0  0  0  0  0  0  0  0  0
    8.5388   15.9005   20.8100 C   0  0  0  0  0  0  0  0  0  0  0  0
   10.5731   15.8456   21.1819 C   0  0  0  0  0  0  0  0  0  0  0  0
   11.4475   13.6526   23.1348 C   0  0  0  0  0  0  0  0  0  0  0  0
   12.0495   11.2821   22.5284 C   0  0  0  0  0  0  0  0  0  0  0  0
   11.9011    9.9022   23.1407 C   0  0  0  0  0  0  0  0  0  0  0  0
   10.1773    8.0913   23.1959 C   0  0  0  0  0  0  0  0  0  0  0  0
   11.9940   15.6113   21.6340 C   0  0  0  0  0  0  0  0  0  0  0  0
   12.2930   14.1588   21.9883 C   0  0  0  0  0  0  0  0  0  0  0  0
    8.9686   12.6925   24.0683 N   0  0  0  0  0  0  0  0  0  0  0  0
    8.3511   10.0256   23.9909 N   0  0  0  0  0  0  0  0  0  0  0  0
    9.4694   15.2644   21.5790 N   0  0  0  0  0  0  0  0  0  0  0  0
    9.0127   16.8287   19.9736 N   0  0  0  0  0  0  0  0  0  0  0  0
   11.1491   12.2784   23.1220 N   0  0  0  0  0  0  0  0  0  0  0  0
   10.5078    9.5045   23.1333 N   0  0  1  0  0  0  0  0  0  0  0  0
   11.0824   14.4586   23.9943 O   0  0  0  0  0  0  0  0  0  0  0  0
   10.3901   16.7925   20.2247 O   0  0  0  0  0  0  0  0  0  0  0  0
    3.1237   14.6738   21.1669 F   0  0  0  0  0  0  0  0  0  0  0  0
    4.8417   13.4706   25.7579 H   0  0  0  0  0  0  0  0  0  0  0  0
    4.2769   11.0535   25.6778 H   0  0  0  0  0  0  0  0  0  0  0  0
    6.4889   17.4467   20.0133 H   0  0  0  0  0  0  0  0  0  0  0  0
    7.4682   13.6474   21.8124 H   0  0  0  0  0  0  0  0  0  0  0  0
    7.0583   14.2363   24.9985 H   0  0  0  0  0  0  0  0  0  0  0  0
    5.9366    9.4346   24.8412 H   0  0  0  0  0  0  0  0  0  0  0  0
    4.0901   16.8940   20.1754 H   0  0  0  0  0  0  0  0  0  0  0  0
    5.0643   13.1121   21.9664 H   0  0  0  0  0  0  0  0  0  0  0  0
   13.0733   11.6557   22.6568 H   0  0  0  0  0  0  0  0  0  0  0  0
   11.8672   11.2017   21.4528 H   0  0  0  0  0  0  0  0  0  0  0  0
   12.5008    9.1704   22.5842 H   0  0  0  0  0  0  0  0  0  0  0  0
   12.2901    9.9239   24.1654 H   0  0  0  0  0  0  0  0  0  0  0  0
   11.0186    7.4998   22.8056 H   0  0  0  0  0  0  0  0  0  0  0  0
    9.9822    7.8064   24.2403 H   0  0  0  0  0  0  0  0  0  0  0  0
    9.2804    7.8974   22.5893 H   0  0  0  0  0  0  0  0  0  0  0  0
   12.2331   16.2707   22.4786 H   0  0  0  0  0  0  0  0  0  0  0  0
   12.6672   15.9160   20.8221 H   0  0  0  0  0  0  0  0  0  0  0  0
   12.1319   13.5009   21.1342 H   0  0  0  0  0  0  0  0  0  0  0  0
   13.3354   14.0616   22.2927 H   0  0  0  0  0  0  0  0  0  0  0  0
  1  2  1  0  0  0  0
  1  5  2  0  0  0  0
  2  6  2  0  0  0  0
  3  7  2  0  0  0  0
  3  9  1  0  0  0  0
  4  8  1  0  0  0  0
  4  9  2  0  0  0  0
  5 10  1  0  0  0  0
  6 11  1  0  0  0  0
  7 12  1  0  0  0  0
  8 12  2  0  0  0  0
  9 15  1  0  0  0  0
 10 11  1  0  0  0  0
 10 23  2  0  0  0  0
 11 24  2  0  0  0  0
 12 31  1  0  0  0  0
 13 14  2  0  0  0  0
 13 23  1  0  0  0  0
 13 27  1  0  0  0  0
 14 24  1  0  0  0  0
 14 28  1  0  0  0  0
 15 25  1  0  0  0  0
 15 26  2  0  0  0  0
 16 21  1  0  0  0  0
 16 25  2  0  0  0  0
 16 30  1  0  0  0  0
 17 22  1  0  0  0  0
 17 27  1  0  0  0  0
 17 29  2  0  0  0  0
 18 19  1  0  0  0  0
 18 27  1  0  0  0  0
 19 28  1  0  0  0  0
 20 28  1  0  0  0  0
 21 22  1  0  0  0  0
 26 30  1  0  0  0  0
  1 32  1  0  0  0  0
  2 33  1  0  0  0  0
  3 34  1  0  0  0  0
  4 35  1  0  0  0  0
  5 36  1  0  0  0  0
  6 37  1  0  0  0  0
  7 38  1  0  0  0  0
  8 39  1  0  0  0  0
 18 40  1  0  0  0  0
 18 41  1  0  0  0  0
 19 42  1  0  0  0  0
 19 43  1  0  0  0  0
 20 44  1  0  0  0  0
 20 45  1  0  0  0  0
 20 46  1  0  0  0  0
 21 47  1  0  0  0  0
 21 48  1  0  0  0  0
 22 49  1  0  0  0  0
 22 50  1  0  0  0  0
M  END
> <idnumber>
Z240671160

> <heavy_atoms>
31

> <LogS>
-5.02

> <LogP>
2.889

> <rotating_bonds>
4

> <PSA>
88.25

> <hb_acceptors>
6

> <hb_donors>
0

> <Collection>
HTS

> <link>
https://www.enaminestore.com/catalog/Z240671160

> <ROCS_ShapeQuery>
x0446_0A_x1080_0A_x0929_0A_x0812_0A_x0719_0A_x1140_0A_x0528_0A_x0310_0A

> <ROCS_TanimotoCombo>
0.462 

> <ROCS_ShapeTanimoto>
0.288 

> <ROCS_ColorTanimoto>
0.174 

> <ROCS_RefTversky>
0.262 

> <ROCS_RefColorTversky>
0.195 

> <ROCS_RefTverskyCombo>
0.457 

> <ROCS_FitTversky>
1.540 

> <ROCS_FitColorTversky>
0.613 

> <ROCS_FitTverskyCombo>
2.154 

> <ROCS_ColorScore>
-6.984

> <ROCS_Overlap>
3096.503

> <ROCS_Rank>
217                 

$$$$
untitled-dbase-886951_8
  -OEChem-02092406493D

 45 48  0     1  0  0  0  0  0999 V2000
    9.9034   14.9510   22.6338 C   0  0  0  0  0  0  0  0  0  0  0  0
    7.3388   14.1114   23.4653 C   0  0  0  0  0  0  0  0  0  0  0  0
   12.9095   14.9673   21.6282 C   0  0  0  0  0  0  0  0  0  0  0  0
   12.3544   14.9757   23.0325 C   0  0  0  0  0  0  0  0  0  0  0  0
    8.5440    9.5773   23.8352 C   0  0  0  0  0  0  0  0  0  0  0  0
    7.1619   11.3881   24.8724 C   0  0  0  0  0  0  0  0  0  0  0  0
    7.3799   11.2450   22.3697 C   0  0  0  0  0  0  0  0  0  0  0  0
    9.6492   11.4488   25.0828 C   0  0  0  0  0  0  0  0  0  0  0  0
    9.8620   11.2921   22.5767 C   0  0  0  0  0  0  0  0  0  0  0  0
   12.5338   16.3448   21.1326 C   0  0  0  0  0  0  0  0  0  0  0  0
   11.1088   15.8278   22.8984 C   0  0  1  0  0  0  0  0  0  0  0  0
    7.2762   10.4316   23.6727 C   0  0  0  0  0  0  0  0  0  0  0  0
    9.7818   10.4878   23.8867 C   0  0  0  0  0  0  0  0  0  0  0  0
    8.3874   12.3301   24.9259 C   0  0  0  0  0  0  0  0  0  0  0  0
    8.6085   12.1860   22.4200 C   0  0  0  0  0  0  0  0  0  0  0  0
    8.4911   13.1590   23.6221 C   0  0  0  0  0  0  0  0  0  0  0  0
    7.0068   14.3695   22.1563 N   0  0  0  0  0  0  0  0  0  0  0  0
    9.6031   14.0837   23.6656 N   0  0  0  0  0  0  0  0  0  0  0  0
    9.2977   15.0604   21.5742 O   0  0  0  0  0  0  0  0  0  0  0  0
    6.7512   14.5900   24.4323 O   0  0  0  0  0  0  0  0  0  0  0  0
   11.2823   16.6691   21.7521 O   0  0  0  0  0  0  0  0  0  0  0  0
   13.9843   14.7744   21.5826 H   0  0  0  0  0  0  0  0  0  0  0  0
   12.3979   14.2026   21.0318 H   0  0  0  0  0  0  0  0  0  0  0  0
   12.1679   13.9707   23.4232 H   0  0  0  0  0  0  0  0  0  0  0  0
   13.0695   15.4705   23.7009 H   0  0  0  0  0  0  0  0  0  0  0  0
    8.4786    8.9785   24.7520 H   0  0  0  0  0  0  0  0  0  0  0  0
    8.6308    8.8714   22.9999 H   0  0  0  0  0  0  0  0  0  0  0  0
    6.2362   11.9708   24.7971 H   0  0  0  0  0  0  0  0  0  0  0  0
    7.0931   10.8129   25.8042 H   0  0  0  0  0  0  0  0  0  0  0  0
    7.4647   10.5663   21.5117 H   0  0  0  0  0  0  0  0  0  0  0  0
    6.4622   11.8257   22.2187 H   0  0  0  0  0  0  0  0  0  0  0  0
    9.5871   10.8745   26.0157 H   0  0  0  0  0  0  0  0  0  0  0  0
   10.5465   12.0738   25.1627 H   0  0  0  0  0  0  0  0  0  0  0  0
   10.7700   11.9066   22.5720 H   0  0  0  0  0  0  0  0  0  0  0  0
    9.9432   10.6095   21.7215 H   0  0  0  0  0  0  0  0  0  0  0  0
   13.2688   17.0938   21.4467 H   0  0  0  0  0  0  0  0  0  0  0  0
   12.4307   16.3896   20.0449 H   0  0  0  0  0  0  0  0  0  0  0  0
   10.9134   16.4238   23.7875 H   0  0  0  0  0  0  0  0  0  0  0  0
    6.3961    9.7801   23.6336 H   0  0  0  0  0  0  0  0  0  0  0  0
   10.6842    9.8770   24.0013 H   0  0  0  0  0  0  0  0  0  0  0  0
    8.2860   12.9895   25.7969 H   0  0  0  0  0  0  0  0  0  0  0  0
    8.6655   12.7409   21.4753 H   0  0  0  0  0  0  0  0  0  0  0  0
    7.5403   13.9181   21.4206 H   0  0  0  0  0  0  0  0  0  0  0  0
    6.2497   14.9933   21.8964 H   0  0  0  0  0  0  0  0  0  0  0  0
   10.1901   14.0955   24.4935 H   0  0  0  0  0  0  0  0  0  0  0  0
  1 11  1  1  0  0  0
  1 18  1  0  0  0  0
  1 19  2  0  0  0  0
  2 16  1  0  0  0  0
  2 17  1  0  0  0  0
  2 20  2  0  0  0  0
  3  4  1  0  0  0  0
  3 10  1  0  0  0  0
  4 11  1  0  0  0  0
  5 12  1  0  0  0  0
  5 13  1  0  0  0  0
  6 12  1  0  0  0  0
  6 14  1  0  0  0  0
  7 12  1  0  0  0  0
  7 15  1  0  0  0  0
  8 13  1  0  0  0  0
  8 14  1  0  0  0  0
  9 13  1  0  0  0  0
  9 15  1  0  0  0  0
 10 21  1  0  0  0  0
 11 21  1  0  0  0  0
 14 16  1  0  0  0  0
 15 16  1  0  0  0  0
 16 18  1  0  0  0  0
  3 22  1  0  0  0  0
  3 23  1  0  0  0  0
  4 24  1  0  0  0  0
  4 25  1  0  0  0  0
  5 26  1  0  0  0  0
  5 27  1  0  0  0  0
  6 28  1  0  0  0  0
  6 29  1  0  0  0  0
  7 30  1  0  0  0  0
  7 31  1  0  0  0  0
  8 32  1  0  0  0  0
  8 33  1  0  0  0  0
  9 34  1  0  0  0  0
  9 35  1  0  0  0  0
 10 36  1  0  0  0  0
 10 37  1  0  0  0  0
 11 38  1  0  0  0  0
 12 39  1  0  0  0  0
 13 40  1  0  0  0  0
 14 41  1  0  0  0  0
 15 42  1  0  0  0  0
 17 43  1  0  0  0  0
 17 44  1  0  0  0  0
 18 45  1  0  0  0  0
M  END
> <idnumber>
Z2305882537

> <heavy_atoms>
21

> <LogS>
-3.819

> <LogP>
1.278

> <rotating_bonds>
3

> <PSA>
81.42

> <hb_acceptors>
3

> <hb_donors>
2

> <Collection>
HTS

> <link>
https://www.enaminestore.com/catalog/Z2305882537

> <ROCS_ShapeQuery>
x0446_0A_x1080_0A_x0929_0A_x0812_0A_x0719_0A_x1140_0A_x0528_0A_x0310_0A

> <ROCS_TanimotoCombo>
0.462 

> <ROCS_ShapeTanimoto>
0.259 

> <ROCS_ColorTanimoto>
0.202 

> <ROCS_RefTversky>
0.233 

> <ROCS_RefColorTversky>
0.233 

> <ROCS_RefTverskyCombo>
0.465 

> <ROCS_FitTversky>
1.786 

> <ROCS_FitColorTversky>
0.611 

> <ROCS_FitTverskyCombo>
2.397 

> <ROCS_ColorScore>
-8.360

> <ROCS_Overlap>
2747.474

> <ROCS_Rank>
218                 

$$$$
untitled-dbase-412331_38
  -OEChem-02092406493D

 45 48  0     0  0  0  0  0  0999 V2000
    6.5932   17.5897   24.5736 C   0  0  0  0  0  0  0  0  0  0  0  0
    5.7147   16.8406   23.7908 C   0  0  0  0  0  0  0  0  0  0  0  0
    7.5544   16.9464   25.3532 C   0  0  0  0  0  0  0  0  0  0  0  0
    5.7973   15.4482   23.7878 C   0  0  0  0  0  0  0  0  0  0  0  0
    7.6370   15.5540   25.3502 C   0  0  0  0  0  0  0  0  0  0  0  0
   12.5162   15.1564   21.4221 C   0  0  0  0  0  0  0  0  0  0  0  0
   13.5810   14.6580   22.1728 C   0  0  0  0  0  0  0  0  0  0  0  0
   12.0268   13.8259   23.8249 C   0  0  0  0  0  0  0  0  0  0  0  0
    5.7595   12.6175   24.9672 C   0  0  0  0  0  0  0  0  0  0  0  0
    7.9582   12.5552   24.1821 C   0  0  0  0  0  0  0  0  0  0  0  0
    6.7585   14.8049   24.5675 C   0  0  0  0  0  0  0  0  0  0  0  0
    6.8439   13.3664   24.5647 C   0  0  0  0  0  0  0  0  0  0  0  0
   11.2067   14.9895   21.8728 C   0  0  0  0  0  0  0  0  0  0  0  0
   13.3363   13.9928   23.3742 C   0  0  0  0  0  0  0  0  0  0  0  0
   10.9621   14.3243   23.0742 C   0  0  0  0  0  0  0  0  0  0  0  0
    9.2421   12.8579   23.7173 C   0  0  0  0  0  0  0  0  0  0  0  0
    7.6568   11.2061   24.3162 C   0  0  0  0  0  0  0  0  0  0  0  0
    9.6827   10.6011   23.6044 C   0  0  0  0  0  0  0  0  0  0  0  0
   10.1100   15.5186   21.0742 C   0  0  0  0  0  0  0  0  0  0  0  0
   10.6683    9.5301   23.2735 C   0  0  0  0  0  0  0  0  0  0  0  0
   15.6885   13.7148   23.5880 C   0  0  0  0  0  0  0  0  0  0  0  0
   10.1110   11.8662   23.4265 N   0  0  0  0  0  0  0  0  0  0  0  0
    8.4831   10.1779   24.0412 N   0  0  0  0  0  0  0  0  0  0  0  0
   10.4309   16.1710   19.8884 N   0  0  0  0  0  0  0  0  0  0  0  0
    8.9290   15.4080   21.4442 O   0  0  0  0  0  0  0  0  0  0  0  0
    9.6750   14.1491   23.5372 O   0  0  0  0  0  0  0  0  0  0  0  0
   14.3758   13.5077   24.1071 O   0  0  0  0  0  0  0  0  0  0  0  0
    6.0735   10.9380   24.8868 S   0  0  0  0  0  0  0  0  0  0  0  0
    6.5297   18.6739   24.5752 H   0  0  0  0  0  0  0  0  0  0  0  0
    4.9670   17.3414   23.1828 H   0  0  0  0  0  0  0  0  0  0  0  0
    8.2391   17.5299   25.9616 H   0  0  0  0  0  0  0  0  0  0  0  0
    5.1052   14.8782   23.1723 H   0  0  0  0  0  0  0  0  0  0  0  0
    8.3920   15.0675   25.9636 H   0  0  0  0  0  0  0  0  0  0  0  0
   12.7199   15.6727   20.4874 H   0  0  0  0  0  0  0  0  0  0  0  0
   14.5986   14.7919   21.8160 H   0  0  0  0  0  0  0  0  0  0  0  0
   11.8367   13.3098   24.7627 H   0  0  0  0  0  0  0  0  0  0  0  0
    4.7932   12.9666   25.3061 H   0  0  0  0  0  0  0  0  0  0  0  0
   11.2655    9.2760   24.1572 H   0  0  0  0  0  0  0  0  0  0  0  0
   10.1642    8.6218   22.9201 H   0  0  0  0  0  0  0  0  0  0  0  0
   11.3478    9.8493   22.4730 H   0  0  0  0  0  0  0  0  0  0  0  0
   16.4234   13.2792   24.2694 H   0  0  0  0  0  0  0  0  0  0  0  0
   15.8715   14.7862   23.4741 H   0  0  0  0  0  0  0  0  0  0  0  0
   15.7660   13.2283   22.6128 H   0  0  0  0  0  0  0  0  0  0  0  0
   11.4045   16.2585   19.6176 H   0  0  0  0  0  0  0  0  0  0  0  0
    9.7115   16.5614   19.2884 H   0  0  0  0  0  0  0  0  0  0  0  0
  1  2  1  0  0  0  0
  1  3  2  0  0  0  0
  2  4  2  0  0  0  0
  3  5  1  0  0  0  0
  4 11  1  0  0  0  0
  5 11  2  0  0  0  0
  6  7  2  0  0  0  0
  6 13  1  0  0  0  0
  7 14  1  0  0  0  0
  8 14  2  0  0  0  0
  8 15  1  0  0  0  0
  9 12  2  0  0  0  0
  9 28  1  0  0  0  0
 10 12  1  0  0  0  0
 10 16  2  0  0  0  0
 10 17  1  0  0  0  0
 11 12  1  0  0  0  0
 13 15  2  0  0  0  0
 13 19  1  0  0  0  0
 14 27  1  0  0  0  0
 15 26  1  0  0  0  0
 16 22  1  0  0  0  0
 16 26  1  0  0  0  0
 17 23  2  0  0  0  0
 17 28  1  0  0  0  0
 18 20  1  0  0  0  0
 18 22  2  0  0  0  0
 18 23  1  0  0  0  0
 19 24  1  0  0  0  0
 19 25  2  0  0  0  0
 21 27  1  0  0  0  0
  1 29  1  0  0  0  0
  2 30  1  0  0  0  0
  3 31  1  0  0  0  0
  4 32  1  0  0  0  0
  5 33  1  0  0  0  0
  6 34  1  0  0  0  0
  7 35  1  0  0  0  0
  8 36  1  0  0  0  0
  9 37  1  0  0  0  0
 20 38  1  0  0  0  0
 20 39  1  0  0  0  0
 20 40  1  0  0  0  0
 21 41  1  0  0  0  0
 21 42  1  0  0  0  0
 21 43  1  0  0  0  0
 24 44  1  0  0  0  0
 24 45  1  0  0  0  0
M  END
> <idnumber>
Z52591645

> <heavy_atoms>
28

> <LogS>
-6.79

> <LogP>
3.995

> <rotating_bonds>
5

> <PSA>
87.33

> <hb_acceptors>
4

> <hb_donors>
1

> <Collection>
HTS

> <link>
https://www.enaminestore.com/catalog/Z52591645

> <ROCS_ShapeQuery>
x0446_0A_x1080_0A_x0929_0A_x0812_0A_x0719_0A_x1140_0A_x0528_0A_x0310_0A

> <ROCS_TanimotoCombo>
0.462 

> <ROCS_ShapeTanimoto>
0.272 

> <ROCS_ColorTanimoto>
0.189 

> <ROCS_RefTversky>
0.248 

> <ROCS_RefColorTversky>
0.210 

> <ROCS_RefTverskyCombo>
0.457 

> <ROCS_FitTversky>
1.583 

> <ROCS_FitColorTversky>
0.660 

> <ROCS_FitTverskyCombo>
2.243 

> <ROCS_ColorScore>
-7.512

> <ROCS_Overlap>
2927.918

> <ROCS_Rank>
219                 

$$$$
untitled-dbase-448601_7
  -OEChem-02092406493D

 37 39  0     0  0  0  0  0  0999 V2000
   10.4151   11.5998   23.6134 C   0  0  0  0  0  0  0  0  0  0  0  0
   11.7998   11.6559   23.2820 C   0  0  0  0  0  0  0  0  0  0  0  0
   12.3927   10.4140   23.3396 C   0  0  0  0  0  0  0  0  0  0  0  0
   10.0000   10.3132   23.9131 C   0  0  0  0  0  0  0  0  0  0  0  0
    5.9380   12.4012   24.5300 C   0  0  0  0  0  0  0  0  0  0  0  0
    9.4528   12.6980   23.6644 C   0  0  0  0  0  0  0  0  0  0  0  0
    7.0444   13.0690   24.1667 C   0  0  0  0  0  0  0  0  0  0  0  0
    7.9050   10.9034   24.3074 C   0  0  0  0  0  0  0  0  0  0  0  0
    6.7695   14.8125   22.4686 C   0  0  0  0  0  0  0  0  0  0  0  0
   12.5330   12.8937   22.9160 C   0  0  0  0  0  0  0  0  0  0  0  0
   13.8003   10.0430   23.0700 C   0  0  0  0  0  0  0  0  0  0  0  0
    7.0793   14.5402   23.9267 C   0  0  0  0  0  0  0  0  0  0  0  0
    5.1546   16.0045   20.9982 C   0  0  0  0  0  0  0  0  0  0  0  0
    4.1637   14.9737   20.4890 C   0  0  0  0  0  0  0  0  0  0  0  0
    8.7461    9.9188   24.2674 N   0  0  0  0  0  0  0  0  0  0  0  0
    8.1697   12.2573   24.0323 N   0  0  0  0  0  0  0  0  0  0  0  0
    5.6458   15.6044   22.2974 N   0  0  0  0  0  0  0  0  0  0  0  0
    9.7787   13.8516   23.4069 O   0  0  0  0  0  0  0  0  0  0  0  0
    7.4668   14.3659   21.5592 O   0  0  0  0  0  0  0  0  0  0  0  0
    3.0920   14.8509   21.4155 O   0  0  0  0  0  0  0  0  0  0  0  0
   11.2840    9.1913   23.7911 S   0  0  0  0  0  0  0  0  0  0  0  0
    6.2146   10.7024   24.7328 S   0  0  0  0  0  0  0  0  0  0  0  0
    4.9650   12.8459   24.6870 H   0  0  0  0  0  0  0  0  0  0  0  0
   12.9557   13.3740   23.8100 H   0  0  0  0  0  0  0  0  0  0  0  0
   13.3572   12.6852   22.2176 H   0  0  0  0  0  0  0  0  0  0  0  0
   11.8763   13.6207   22.4150 H   0  0  0  0  0  0  0  0  0  0  0  0
   14.4046   10.1006   23.9883 H   0  0  0  0  0  0  0  0  0  0  0  0
   13.8849    9.0190   22.6724 H   0  0  0  0  0  0  0  0  0  0  0  0
   14.2613   10.7045   22.3189 H   0  0  0  0  0  0  0  0  0  0  0  0
    8.0768   14.9339   24.1402 H   0  0  0  0  0  0  0  0  0  0  0  0
    6.3688   15.0329   24.5948 H   0  0  0  0  0  0  0  0  0  0  0  0
    6.0104   16.0999   20.3224 H   0  0  0  0  0  0  0  0  0  0  0  0
    4.6698   16.9799   21.1024 H   0  0  0  0  0  0  0  0  0  0  0  0
    4.6499   13.9969   20.4034 H   0  0  0  0  0  0  0  0  0  0  0  0
    3.7551   15.2558   19.5132 H   0  0  0  0  0  0  0  0  0  0  0  0
    5.1442   15.9182   23.1225 H   0  0  0  0  0  0  0  0  0  0  0  0
    2.4847   14.1857   21.0537 H   0  0  0  0  0  0  0  0  0  0  0  0
  1  2  1  0  0  0  0
  1  4  2  0  0  0  0
  1  6  1  0  0  0  0
  2  3  2  0  0  0  0
  2 10  1  0  0  0  0
  3 11  1  0  0  0  0
  3 21  1  0  0  0  0
  4 15  1  0  0  0  0
  4 21  1  0  0  0  0
  5  7  2  0  0  0  0
  5 22  1  0  0  0  0
  6 16  1  0  0  0  0
  6 18  2  0  0  0  0
  7 12  1  0  0  0  0
  7 16  1  0  0  0  0
  8 15  2  0  0  0  0
  8 16  1  0  0  0  0
  8 22  1  0  0  0  0
  9 12  1  0  0  0  0
  9 17  1  0  0  0  0
  9 19  2  0  0  0  0
 13 14  1  0  0  0  0
 13 17  1  0  0  0  0
 14 20  1  0  0  0  0
  5 23  1  0  0  0  0
 10 24  1  0  0  0  0
 10 25  1  0  0  0  0
 10 26  1  0  0  0  0
 11 27  1  0  0  0  0
 11 28  1  0  0  0  0
 11 29  1  0  0  0  0
 12 30  1  0  0  0  0
 12 31  1  0  0  0  0
 13 32  1  0  0  0  0
 13 33  1  0  0  0  0
 14 34  1  0  0  0  0
 14 35  1  0  0  0  0
 17 36  1  0  0  0  0
 20 37  1  0  0  0  0
M  END
> <idnumber>
Z56840590

> <heavy_atoms>
22

> <LogS>
-4.23

> <LogP>
0.595

> <rotating_bonds>
4

> <PSA>
82

> <hb_acceptors>
4

> <hb_donors>
2

> <Collection>
Legacy

> <link>
https://www.enaminestore.com/catalog/Z56840590

> <ROCS_ShapeQuery>
x0446_0A_x1080_0A_x0929_0A_x0812_0A_x0719_0A_x1140_0A_x0528_0A_x0310_0A

> <ROCS_TanimotoCombo>
0.462 

> <ROCS_ShapeTanimoto>
0.247 

> <ROCS_ColorTanimoto>
0.215 

> <ROCS_RefTversky>
0.224 

> <ROCS_RefColorTversky>
0.229 

> <ROCS_RefTverskyCombo>
0.452 

> <ROCS_FitTversky>
1.708 

> <ROCS_FitColorTversky>
0.783 

> <ROCS_FitTverskyCombo>
2.491 

> <ROCS_ColorScore>
-8.178

> <ROCS_Overlap>
2642.656

> <ROCS_Rank>
220                 

$$$$
untitled-dbase-1000758_47
  -OEChem-02092406493D

 39 42  0     1  0  0  0  0  0999 V2000
   12.4645   15.2339   20.9028 C   0  0  0  0  0  0  0  0  0  0  0  0
   11.1334   14.8356   21.0250 C   0  0  0  0  0  0  0  0  0  0  0  0
   13.2552   15.3832   22.0422 C   0  0  0  0  0  0  0  0  0  0  0  0
    6.7067   13.5631   24.0123 C   0  0  0  0  0  0  0  0  0  0  0  0
   11.3835   14.7361   23.4260 C   0  0  0  0  0  0  0  0  0  0  0  0
    5.6237   13.1762   24.7954 C   0  0  0  0  0  0  0  0  0  0  0  0
    6.4848   11.0869   25.1584 C   0  0  0  0  0  0  0  0  0  0  0  0
   10.5928   14.5867   22.2865 C   0  0  0  0  0  0  0  0  0  0  0  0
    7.7354   12.6464   23.7932 C   0  0  0  0  0  0  0  0  0  0  0  0
    7.6070   11.3631   24.3825 C   0  0  0  0  0  0  0  0  0  0  0  0
   12.7147   15.1343   23.3038 C   0  0  0  0  0  0  0  0  0  0  0  0
    9.1900   14.1667   22.4158 C   0  0  0  0  0  0  0  0  0  0  0  0
   10.6727   11.6104   24.2580 C   0  0  0  0  0  0  0  0  0  0  0  0
    9.7695   10.6991   25.1109 C   0  0  0  0  0  0  0  0  0  0  0  0
    9.1364   10.4587   22.8531 C   0  0  0  0  0  0  0  0  0  0  0  0
    9.9027   11.7774   22.9309 C   0  0  1  0  0  0  0  0  0  0  0  0
   13.6737   14.1331   25.2364 C   0  0  0  0  0  0  0  0  0  0  0  0
    5.4859   11.9651   25.3752 N   0  0  0  0  0  0  0  0  0  0  0  0
    8.9361   12.9215   23.0182 N   0  0  0  0  0  0  0  0  0  0  0  0
    8.6279   10.3856   24.2253 N   0  0  2  0  0  0  0  0  0  0  0  0
    8.3798   14.9749   21.9696 O   0  0  0  0  0  0  0  0  0  0  0  0
   13.4860   15.2799   24.4156 O   0  0  0  0  0  0  0  0  0  0  0  0
   14.2707   13.1788   24.4766 F   0  0  0  0  0  0  0  0  0  0  0  0
   14.5446   14.4351   26.2304 F   0  0  0  0  0  0  0  0  0  0  0  0
   12.8853   15.4276   19.9205 H   0  0  0  0  0  0  0  0  0  0  0  0
   10.5264   14.7213   20.1307 H   0  0  0  0  0  0  0  0  0  0  0  0
   14.2915   15.6937   21.9406 H   0  0  0  0  0  0  0  0  0  0  0  0
    6.6970   14.5645   23.6055 H   0  0  0  0  0  0  0  0  0  0  0  0
   10.9671   14.5426   24.4120 H   0  0  0  0  0  0  0  0  0  0  0  0
    4.8073   13.8675   24.9815 H   0  0  0  0  0  0  0  0  0  0  0  0
    6.3567   10.1217   25.6387 H   0  0  0  0  0  0  0  0  0  0  0  0
   10.8786   12.5685   24.7460 H   0  0  0  0  0  0  0  0  0  0  0  0
   11.6321   11.1128   24.0741 H   0  0  0  0  0  0  0  0  0  0  0  0
   10.3001    9.7726   25.3589 H   0  0  0  0  0  0  0  0  0  0  0  0
    9.4737   11.1740   26.0541 H   0  0  0  0  0  0  0  0  0  0  0  0
    8.3515   10.4427   22.0866 H   0  0  0  0  0  0  0  0  0  0  0  0
    9.8112    9.6158   22.6589 H   0  0  0  0  0  0  0  0  0  0  0  0
   10.5798   11.8954   22.0815 H   0  0  0  0  0  0  0  0  0  0  0  0
   12.7389   13.7265   25.6370 H   0  0  0  0  0  0  0  0  0  0  0  0
  1  2  1  0  0  0  0
  1  3  2  0  0  0  0
  2  8  2  0  0  0  0
  3 11  1  0  0  0  0
  4  6  2  0  0  0  0
  4  9  1  0  0  0  0
  5  8  1  0  0  0  0
  5 11  2  0  0  0  0
  6 18  1  0  0  0  0
  7 10  1  0  0  0  0
  7 18  2  0  0  0  0
  8 12  1  0  0  0  0
  9 10  2  0  0  0  0
  9 19  1  0  0  0  0
 10 20  1  0  0  0  0
 11 22  1  0  0  0  0
 12 19  1  0  0  0  0
 12 21  2  0  0  0  0
 13 14  1  0  0  0  0
 13 16  1  0  0  0  0
 14 20  1  0  0  0  0
 15 16  1  0  0  0  0
 15 20  1  0  0  0  0
 16 19  1  0  0  0  0
 17 22  1  0  0  0  0
 17 23  1  0  0  0  0
 17 24  1  0  0  0  0
  1 25  1  0  0  0  0
  2 26  1  0  0  0  0
  3 27  1  0  0  0  0
  4 28  1  0  0  0  0
  5 29  1  0  0  0  0
  6 30  1  0  0  0  0
  7 31  1  0  0  0  0
 13 32  1  0  0  0  0
 13 33  1  0  0  0  0
 14 34  1  0  0  0  0
 14 35  1  0  0  0  0
 15 36  1  0  0  0  0
 15 37  1  0  0  0  0
 16 38  1  0  0  0  0
 17 39  1  0  0  0  0
M  END
> <idnumber>
Z3027255151

> <heavy_atoms>
24

> <LogS>
-4.042

> <LogP>
1.849

> <rotating_bonds>
3

> <PSA>
45.67

> <hb_acceptors>
4

> <hb_donors>
0

> <Collection>
Advanced

> <link>
https://www.enaminestore.com/catalog/Z3027255151

> <ROCS_ShapeQuery>
x0446_0A_x1080_0A_x0929_0A_x0812_0A_x0719_0A_x1140_0A_x0528_0A_x0310_0A

> <ROCS_TanimotoCombo>
0.462 

> <ROCS_ShapeTanimoto>
0.260 

> <ROCS_ColorTanimoto>
0.202 

> <ROCS_RefTversky>
0.236 

> <ROCS_RefColorTversky>
0.225 

> <ROCS_RefTverskyCombo>
0.461 

> <ROCS_FitTversky>
1.651 

> <ROCS_FitColorTversky>
0.662 

> <ROCS_FitTverskyCombo>
2.312 

> <ROCS_ColorScore>
-8.064

> <ROCS_Overlap>
2786.344

> <ROCS_Rank>
221                 

$$$$
untitled-dbase-1166237_190
  -OEChem-02092406493D

 55 60  0     1  0  0  0  0  0999 V2000
    2.5075   13.7894   21.2243 C   0  0  0  0  0  0  0  0  0  0  0  0
    3.6711   13.7726   22.0306 C   0  0  0  0  0  0  0  0  0  0  0  0
   12.5551   14.0561   22.8291 C   0  0  0  0  0  0  0  0  0  0  0  0
   12.9575   15.3779   22.9936 C   0  0  0  0  0  0  0  0  0  0  0  0
   11.2897   13.7953   22.3027 C   0  0  0  0  0  0  0  0  0  0  0  0
   10.4944   14.8990   21.9690 C   0  0  0  0  0  0  0  0  0  0  0  0
    2.7547   12.9904   20.1281 C   0  0  0  0  0  0  0  0  0  0  0  0
    4.5960   12.9651   21.4058 C   0  0  0  0  0  0  0  0  0  0  0  0
   11.0211   16.1649   22.1857 C   0  0  0  0  0  0  0  0  0  0  0  0
    8.9912   16.2764   21.3403 C   0  0  0  0  0  0  0  0  0  0  0  0
    2.0027   12.6153   18.9912 C   0  0  0  0  0  0  0  0  0  0  0  0
    2.5482   11.8004   18.0808 C   0  0  0  0  0  0  0  0  0  0  0  0
    3.9331   11.3416   18.3405 C   0  0  0  0  0  0  0  0  0  0  0  0
   10.8128   12.4202   22.1071 C   0  0  0  0  0  0  0  0  0  0  0  0
    5.9688   12.6412   21.8723 C   0  0  0  0  0  0  0  0  0  0  0  0
    9.7131   10.1705   24.7351 C   0  0  0  0  0  0  0  0  0  0  0  0
    9.7666   11.5441   25.4342 C   0  0  0  0  0  0  0  0  0  0  0  0
    8.0747   10.6189   22.8367 C   0  0  0  0  0  0  0  0  0  0  0  0
    8.1610   12.9128   24.0058 C   0  0  0  0  0  0  0  0  0  0  0  0
    9.5580   10.4913   23.2431 C   0  0  1  0  0  0  0  0  0  0  0  0
    9.6350   12.5686   24.3015 C   0  0  2  0  0  0  0  0  0  0  0  0
    7.3202   11.6530   23.7024 C   0  0  0  0  0  0  0  0  0  0  0  0
    7.7608   16.9068   20.8271 C   0  0  0  0  0  0  0  0  0  0  0  0
   12.2272   16.4777   22.6872 N   0  0  0  0  0  0  0  0  0  0  0  0
    9.2288   14.9857   21.4420 N   0  0  0  0  0  0  0  0  0  0  0  0
    4.6668   11.6529   19.3632 N   0  0  0  0  0  0  0  0  0  0  0  0
   10.0464   17.0311   21.7779 N   0  0  0  0  0  0  0  0  0  0  0  0
    4.0379   12.4870   20.2438 N   0  0  0  0  0  0  0  0  0  0  0  0
   10.1344   11.8281   23.1563 N   0  0  0  0  0  0  0  0  0  0  0  0
    6.0573   12.0096   23.1039 N   0  0  0  0  0  0  0  0  0  0  0  0
   11.0520   11.8903   21.0243 O   0  0  0  0  0  0  0  0  0  0  0  0
    6.9295   12.9574   21.1754 O   0  0  0  0  0  0  0  0  0  0  0  0
    1.5900   14.3263   21.4231 H   0  0  0  0  0  0  0  0  0  0  0  0
    3.8153   14.2950   22.9665 H   0  0  0  0  0  0  0  0  0  0  0  0
   13.2225   13.2468   23.1089 H   0  0  0  0  0  0  0  0  0  0  0  0
   13.9412   15.5944   23.4028 H   0  0  0  0  0  0  0  0  0  0  0  0
    0.9924   12.9888   18.8639 H   0  0  0  0  0  0  0  0  0  0  0  0
    2.0332   11.4724   17.1885 H   0  0  0  0  0  0  0  0  0  0  0  0
    4.3528   10.6719   17.5723 H   0  0  0  0  0  0  0  0  0  0  0  0
   10.6564    9.6404   24.9123 H   0  0  0  0  0  0  0  0  0  0  0  0
    8.9027    9.5455   25.1236 H   0  0  0  0  0  0  0  0  0  0  0  0
    8.9855   11.6456   26.1944 H   0  0  0  0  0  0  0  0  0  0  0  0
   10.7354   11.6554   25.9354 H   0  0  0  0  0  0  0  0  0  0  0  0
    8.0247   10.9128   21.7798 H   0  0  0  0  0  0  0  0  0  0  0  0
    7.5819    9.6426   22.9188 H   0  0  0  0  0  0  0  0  0  0  0  0
    7.7257   13.4489   24.8582 H   0  0  0  0  0  0  0  0  0  0  0  0
    8.1273   13.5977   23.1480 H   0  0  0  0  0  0  0  0  0  0  0  0
   10.0734    9.7680   22.6055 H   0  0  0  0  0  0  0  0  0  0  0  0
   10.2156   13.4781   24.4835 H   0  0  0  0  0  0  0  0  0  0  0  0
    7.0584   11.1779   24.6552 H   0  0  0  0  0  0  0  0  0  0  0  0
    7.0333   17.0793   21.6377 H   0  0  0  0  0  0  0  0  0  0  0  0
    7.9623   17.8799   20.3464 H   0  0  0  0  0  0  0  0  0  0  0  0
    7.2653   16.2863   20.0600 H   0  0  0  0  0  0  0  0  0  0  0  0
   10.0973   18.0410   21.7967 H   0  0  0  0  0  0  0  0  0  0  0  0
    5.2194   11.8366   23.6514 H   0  0  0  0  0  0  0  0  0  0  0  0
  1  2  1  0  0  0  0
  1  7  2  0  0  0  0
  2  8  2  0  0  0  0
  3  4  1  0  0  0  0
  3  5  2  0  0  0  0
  4 24  2  0  0  0  0
  5  6  1  0  0  0  0
  5 14  1  0  0  0  0
  6  9  2  0  0  0  0
  6 25  1  0  0  0  0
  7 11  1  0  0  0  0
  7 28  1  0  0  0  0
  8 15  1  0  0  0  0
  8 28  1  0  0  0  0
  9 24  1  0  0  0  0
  9 27  1  0  0  0  0
 10 23  1  0  0  0  0
 10 25  2  0  0  0  0
 10 27  1  0  0  0  0
 11 12  2  0  0  0  0
 12 13  1  0  0  0  0
 13 26  2  0  0  0  0
 14 29  1  0  0  0  0
 14 31  2  0  0  0  0
 15 30  1  0  0  0  0
 15 32  2  0  0  0  0
 16 17  1  0  0  0  0
 16 20  1  0  0  0  0
 17 21  1  0  0  0  0
 18 20  1  0  0  0  0
 18 22  1  0  0  0  0
 19 21  1  0  0  0  0
 19 22  1  0  0  0  0
 20 29  1  6  0  0  0
 21 29  1  6  0  0  0
 22 30  1  6  0  0  0
 26 28  1  0  0  0  0
  1 33  1  0  0  0  0
  2 34  1  0  0  0  0
  3 35  1  0  0  0  0
  4 36  1  0  0  0  0
 11 37  1  0  0  0  0
 12 38  1  0  0  0  0
 13 39  1  0  0  0  0
 16 40  1  0  0  0  0
 16 41  1  0  0  0  0
 17 42  1  0  0  0  0
 17 43  1  0  0  0  0
 18 44  1  0  0  0  0
 18 45  1  0  0  0  0
 19 46  1  0  0  0  0
 19 47  1  0  0  0  0
 20 48  1  0  0  0  0
 21 49  1  0  0  0  0
 22 50  1  0  0  0  0
 23 51  1  0  0  0  0
 23 52  1  0  0  0  0
 23 53  1  0  0  0  0
 27 54  1  0  0  0  0
 30 55  1  0  0  0  0
M  END
> <idnumber>
Z8304064519

> <heavy_atoms>
32

> <LogS>
-4.691

> <LogP>
0.562

> <rotating_bonds>
3

> <PSA>
108.28

> <hb_acceptors>
5

> <hb_donors>
2

> <Collection>
Advanced

> <link>
https://www.enaminestore.com/catalog/Z8304064519

> <ROCS_ShapeQuery>
x0446_0A_x1080_0A_x0929_0A_x0812_0A_x0719_0A_x1140_0A_x0528_0A_x0310_0A

> <ROCS_TanimotoCombo>
0.462 

> <ROCS_ShapeTanimoto>
0.264 

> <ROCS_ColorTanimoto>
0.198 

> <ROCS_RefTversky>
0.245 

> <ROCS_RefColorTversky>
0.251 

> <ROCS_RefTverskyCombo>
0.496 

> <ROCS_FitTversky>
1.401 

> <ROCS_FitColorTversky>
0.483 

> <ROCS_FitTverskyCombo>
1.883 

> <ROCS_ColorScore>
-9.103

> <ROCS_Overlap>
2901.453

> <ROCS_Rank>
222                 

$$$$
untitled-dbase-1145577_27
  -OEChem-02092406493D

 37 40  0     1  0  0  0  0  0999 V2000
    5.7707   11.7565   24.3579 C   0  0  0  0  0  0  0  0  0  0  0  0
    8.3601   12.2710   24.0577 C   0  0  0  0  0  0  0  0  0  0  0  0
    7.7955   11.0216   23.8564 C   0  0  0  0  0  0  0  0  0  0  0  0
    7.4998   13.2961   24.4383 C   0  0  0  0  0  0  0  0  0  0  0  0
   11.0411   15.5030   21.3815 C   0  0  0  0  0  0  0  0  0  0  0  0
    9.7839   15.1783   23.1293 C   0  0  0  0  0  0  0  0  0  0  0  0
    9.9657   10.9871   23.4947 C   0  0  0  0  0  0  0  0  0  0  0  0
   12.4037   15.5772   20.8329 C   0  0  0  0  0  0  0  0  0  0  0  0
   13.2537   15.6429   22.1327 C   0  0  0  0  0  0  0  0  0  0  0  0
   12.3761   15.0513   23.2564 C   0  0  0  0  0  0  0  0  0  0  0  0
    7.0742   15.6605   25.0615 C   0  0  0  0  0  0  0  0  0  0  0  0
    9.3926   14.8996   24.5188 C   0  0  0  0  0  0  0  0  0  0  0  0
   11.2812   10.4185   23.1468 C   0  0  0  0  0  0  0  0  0  0  0  0
    6.5038   10.6840   23.9872 N   0  0  0  0  0  0  0  0  0  0  0  0
    6.1807   13.0269   24.5895 N   0  0  0  0  0  0  0  0  0  0  0  0
    9.7127   12.2353   23.8288 N   0  0  0  0  0  0  0  0  0  0  0  0
    9.8080   15.6433   20.9711 N   0  0  0  0  0  0  0  0  0  0  0  0
    8.9999   15.4340   22.0945 N   0  0  0  0  0  0  0  0  0  0  0  0
    8.8357   10.2130   23.4968 N   0  0  0  0  0  0  0  0  0  0  0  0
   11.0517   15.2095   22.7053 N   0  0  0  0  0  0  0  0  0  0  0  0
    7.9843   14.5894   24.6619 N   0  0  3  0  0  0  0  0  0  0  0  0
   11.1927    9.0845   22.8718 F   0  0  0  0  0  0  0  0  0  0  0  0
   12.1621   10.5263   24.1839 F   0  0  0  0  0  0  0  0  0  0  0  0
    4.7089   11.5772   24.4889 H   0  0  0  0  0  0  0  0  0  0  0  0
   12.6398   14.6737   20.2622 H   0  0  0  0  0  0  0  0  0  0  0  0
   12.5638   16.4575   20.2055 H   0  0  0  0  0  0  0  0  0  0  0  0
   14.2122   15.1248   22.0322 H   0  0  0  0  0  0  0  0  0  0  0  0
   13.4726   16.6938   22.3639 H   0  0  0  0  0  0  0  0  0  0  0  0
   12.5550   13.9823   23.4020 H   0  0  0  0  0  0  0  0  0  0  0  0
   12.4583   15.6026   24.1958 H   0  0  0  0  0  0  0  0  0  0  0  0
    7.6401   16.5952   25.1878 H   0  0  0  0  0  0  0  0  0  0  0  0
    6.3072   15.7985   24.2851 H   0  0  0  0  0  0  0  0  0  0  0  0
    6.5896   15.3941   26.0124 H   0  0  0  0  0  0  0  0  0  0  0  0
    9.9478   14.0421   24.9447 H   0  0  0  0  0  0  0  0  0  0  0  0
    9.5939   15.7520   25.1953 H   0  0  0  0  0  0  0  0  0  0  0  0
   11.7469   10.8983   22.2757 H   0  0  0  0  0  0  0  0  0  0  0  0
    8.7799    9.2279   23.2745 H   0  0  0  0  0  0  0  0  0  0  0  0
  1 14  1  0  0  0  0
  1 15  2  0  0  0  0
  2  3  1  0  0  0  0
  2  4  2  0  0  0  0
  2 16  1  0  0  0  0
  3 14  2  0  0  0  0
  3 19  1  0  0  0  0
  4 15  1  0  0  0  0
  4 21  1  0  0  0  0
  5  8  1  0  0  0  0
  5 17  2  0  0  0  0
  5 20  1  0  0  0  0
  6 12  1  0  0  0  0
  6 18  2  0  0  0  0
  6 20  1  0  0  0  0
  7 13  1  0  0  0  0
  7 16  2  0  0  0  0
  7 19  1  0  0  0  0
  8  9  1  0  0  0  0
  9 10  1  0  0  0  0
 10 20  1  0  0  0  0
 11 21  1  0  0  0  0
 12 21  1  0  0  0  0
 13 22  1  0  0  0  0
 13 23  1  0  0  0  0
 17 18  1  0  0  0  0
  1 24  1  0  0  0  0
  8 25  1  0  0  0  0
  8 26  1  0  0  0  0
  9 27  1  0  0  0  0
  9 28  1  0  0  0  0
 10 29  1  0  0  0  0
 10 30  1  0  0  0  0
 11 31  1  0  0  0  0
 11 32  1  0  0  0  0
 11 33  1  0  0  0  0
 12 34  1  0  0  0  0
 12 35  1  0  0  0  0
 13 36  1  0  0  0  0
 19 37  1  0  0  0  0
M  END
> <idnumber>
Z6739638909

> <heavy_atoms>
23

> <LogS>
-2.029

> <LogP>
-0.238

> <rotating_bonds>
4

> <PSA>
88.41

> <hb_acceptors>
6

> <hb_donors>
1

> <Collection>
Advanced

> <link>
https://www.enaminestore.com/catalog/Z6739638909

> <ROCS_ShapeQuery>
x0446_0A_x1080_0A_x0929_0A_x0812_0A_x0719_0A_x1140_0A_x0528_0A_x0310_0A

> <ROCS_TanimotoCombo>
0.461 

> <ROCS_ShapeTanimoto>
0.257 

> <ROCS_ColorTanimoto>
0.205 

> <ROCS_RefTversky>
0.233 

> <ROCS_RefColorTversky>
0.230 

> <ROCS_RefTverskyCombo>
0.463 

> <ROCS_FitTversky>
1.655 

> <ROCS_FitColorTversky>
0.652 

> <ROCS_FitTverskyCombo>
2.307 

> <ROCS_ColorScore>
-8.259

> <ROCS_Overlap>
2752.560

> <ROCS_Rank>
223                 

$$$$
untitled-dbase-323413_54
  -OEChem-02092406493D

 54 58  0     0  0  0  0  0  0999 V2000
   11.9594   13.9495   23.8010 C   0  0  0  0  0  0  0  0  0  0  0  0
   13.2443   14.1825   23.3234 C   0  0  0  0  0  0  0  0  0  0  0  0
    7.9390   12.5315   24.1939 C   0  0  0  0  0  0  0  0  0  0  0  0
    6.8023   13.2898   24.6335 C   0  0  0  0  0  0  0  0  0  0  0  0
   10.8635   14.4393   23.0994 C   0  0  0  0  0  0  0  0  0  0  0  0
    5.7662   12.4688   25.0396 C   0  0  0  0  0  0  0  0  0  0  0  0
   13.3785   14.9051   22.1489 C   0  0  0  0  0  0  0  0  0  0  0  0
   11.1042   15.1506   21.9350 C   0  0  0  0  0  0  0  0  0  0  0  0
    9.2025   12.8941   23.7125 C   0  0  0  0  0  0  0  0  0  0  0  0
    7.6905   11.1669   24.2844 C   0  0  0  0  0  0  0  0  0  0  0  0
    9.7182   10.6609   23.5035 C   0  0  0  0  0  0  0  0  0  0  0  0
    6.6978   14.7852   24.6988 C   0  0  0  0  0  0  0  0  0  0  0  0
    4.4345   12.9411   25.5338 C   0  0  0  0  0  0  0  0  0  0  0  0
    5.2428   15.2528   24.8567 C   0  0  0  0  0  0  0  0  0  0  0  0
    4.4952   14.4283   25.9135 C   0  0  0  0  0  0  0  0  0  0  0  0
   13.0798    9.0916   23.1921 C   0  0  0  0  0  0  0  0  0  0  0  0
   11.7927    9.1748   25.2255 C   0  0  0  0  0  0  0  0  0  0  0  0
   14.3522    9.2119   24.0260 C   0  0  0  0  0  0  0  0  0  0  0  0
   13.0953    9.2943   26.0115 C   0  0  0  0  0  0  0  0  0  0  0  0
   14.7425   15.1740   21.6071 C   0  0  0  0  0  0  0  0  0  0  0  0
   10.7315    9.6383   23.1091 C   0  0  0  0  0  0  0  0  0  0  0  0
   12.3378   15.3970   21.4398 N   0  0  0  0  0  0  0  0  0  0  0  0
   10.0979   11.9456   23.3647 N   0  0  0  0  0  0  0  0  0  0  0  0
    8.5453   10.1802   23.9515 N   0  0  0  0  0  0  0  0  0  0  0  0
   11.9647    9.7518   23.8851 N   0  0  0  0  0  0  0  0  0  0  0  0
    9.9543   15.6415   21.2361 N   0  3  0  0  0  0  0  0  0  0  0  0
   10.1290   16.2880   20.1820 O   0  5  0  0  0  0  0  0  0  0  0  0
    8.8233   15.4036   21.7092 O   0  0  0  0  0  0  0  0  0  0  0  0
   14.1563    8.6362   25.3183 O   0  0  0  0  0  0  0  0  0  0  0  0
    9.5916   14.2045   23.5781 O   0  0  0  0  0  0  0  0  0  0  0  0
    6.1352   10.8160   24.8845 S   0  0  0  0  0  0  0  0  0  0  0  0
   11.8197   13.3860   24.7194 H   0  0  0  0  0  0  0  0  0  0  0  0
   14.1077   13.8057   23.8614 H   0  0  0  0  0  0  0  0  0  0  0  0
    7.2881   15.1391   25.5530 H   0  0  0  0  0  0  0  0  0  0  0  0
    7.1184   15.2402   23.7955 H   0  0  0  0  0  0  0  0  0  0  0  0
    3.6913   12.8003   24.7391 H   0  0  0  0  0  0  0  0  0  0  0  0
    4.1056   12.3572   26.4010 H   0  0  0  0  0  0  0  0  0  0  0  0
    5.2280   16.3140   25.1293 H   0  0  0  0  0  0  0  0  0  0  0  0
    4.7209   15.1614   23.8954 H   0  0  0  0  0  0  0  0  0  0  0  0
    3.4778   14.8149   26.0408 H   0  0  0  0  0  0  0  0  0  0  0  0
    5.0036   14.5404   26.8800 H   0  0  0  0  0  0  0  0  0  0  0  0
   13.2487    9.5595   22.2180 H   0  0  0  0  0  0  0  0  0  0  0  0
   12.8500    8.0326   23.0318 H   0  0  0  0  0  0  0  0  0  0  0  0
   11.5103    8.1191   25.1486 H   0  0  0  0  0  0  0  0  0  0  0  0
   11.0037    9.7050   25.7664 H   0  0  0  0  0  0  0  0  0  0  0  0
   15.1685    8.6686   23.5393 H   0  0  0  0  0  0  0  0  0  0  0  0
   14.6669   10.2569   24.1344 H   0  0  0  0  0  0  0  0  0  0  0  0
   13.3679   10.3421   26.1879 H   0  0  0  0  0  0  0  0  0  0  0  0
   12.9871    8.8120   26.9882 H   0  0  0  0  0  0  0  0  0  0  0  0
   15.0478   14.3699   20.9268 H   0  0  0  0  0  0  0  0  0  0  0  0
   14.7727   16.1243   21.0591 H   0  0  0  0  0  0  0  0  0  0  0  0
   15.4832   15.2482   22.4137 H   0  0  0  0  0  0  0  0  0  0  0  0
   10.3425    8.6210   23.2530 H   0  0  0  0  0  0  0  0  0  0  0  0
   11.0015    9.7286   22.0485 H   0  0  0  0  0  0  0  0  0  0  0  0
  1  2  2  0  0  0  0
  1  5  1  0  0  0  0
  2  7  1  0  0  0  0
  3  4  1  0  0  0  0
  3  9  2  0  0  0  0
  3 10  1  0  0  0  0
  4  6  2  0  0  0  0
  4 12  1  0  0  0  0
  5  8  2  0  0  0  0
  5 30  1  0  0  0  0
  6 13  1  0  0  0  0
  6 31  1  0  0  0  0
  7 20  1  0  0  0  0
  7 22  2  0  0  0  0
  8 22  1  0  0  0  0
  8 26  1  0  0  0  0
  9 23  1  0  0  0  0
  9 30  1  0  0  0  0
 10 24  2  0  0  0  0
 10 31  1  0  0  0  0
 11 21  1  0  0  0  0
 11 23  2  0  0  0  0
 11 24  1  0  0  0  0
 12 14  1  0  0  0  0
 13 15  1  0  0  0  0
 14 15  1  0  0  0  0
 16 18  1  0  0  0  0
 16 25  1  0  0  0  0
 17 19  1  0  0  0  0
 17 25  1  0  0  0  0
 18 29  1  0  0  0  0
 19 29  1  0  0  0  0
 21 25  1  0  0  0  0
 26 27  1  0  0  0  0
 26 28  2  0  0  0  0
  1 32  1  0  0  0  0
  2 33  1  0  0  0  0
 12 34  1  0  0  0  0
 12 35  1  0  0  0  0
 13 36  1  0  0  0  0
 13 37  1  0  0  0  0
 14 38  1  0  0  0  0
 14 39  1  0  0  0  0
 15 40  1  0  0  0  0
 15 41  1  0  0  0  0
 16 42  1  0  0  0  0
 16 43  1  0  0  0  0
 17 44  1  0  0  0  0
 17 45  1  0  0  0  0
 18 46  1  0  0  0  0
 18 47  1  0  0  0  0
 19 48  1  0  0  0  0
 19 49  1  0  0  0  0
 20 50  1  0  0  0  0
 20 51  1  0  0  0  0
 20 52  1  0  0  0  0
 21 53  1  0  0  0  0
 21 54  1  0  0  0  0
M  CHG  2  26   1  27  -1
M  END
> <idnumber>
Z31110951

> <heavy_atoms>
31

> <LogS>
-5.61

> <LogP>
2.948

> <rotating_bonds>
5

> <PSA>
103.51

> <hb_acceptors>
7

> <hb_donors>
0

> <Collection>
Legacy

> <link>
https://www.enaminestore.com/catalog/Z31110951

> <ROCS_ShapeQuery>
x0446_0A_x1080_0A_x0929_0A_x0812_0A_x0719_0A_x1140_0A_x0528_0A_x0310_0A

> <ROCS_TanimotoCombo>
0.461 

> <ROCS_ShapeTanimoto>
0.277 

> <ROCS_ColorTanimoto>
0.184 

> <ROCS_RefTversky>
0.253 

> <ROCS_RefColorTversky>
0.217 

> <ROCS_RefTverskyCombo>
0.471 

> <ROCS_FitTversky>
1.517 

> <ROCS_FitColorTversky>
0.548 

> <ROCS_FitTverskyCombo>
2.065 

> <ROCS_ColorScore>
-7.815

> <ROCS_Overlap>
2998.644

> <ROCS_Rank>
224                 

$$$$
untitled-dbase-1101400_100
  -OEChem-02092406493D

 50 54  0     0  0  0  0  0  0999 V2000
   12.3920   14.6665   22.4515 C   0  0  0  0  0  0  0  0  0  0  0  0
   14.1122    7.6468   22.4306 C   0  0  0  0  0  0  0  0  0  0  0  0
   11.3299   13.7798   22.4939 C   0  0  0  0  0  0  0  0  0  0  0  0
   12.7789    7.6661   22.0369 C   0  0  0  0  0  0  0  0  0  0  0  0
    7.9553   12.8985   25.3072 C   0  0  0  0  0  0  0  0  0  0  0  0
    7.6876   13.8021   21.8130 C   0  0  0  0  0  0  0  0  0  0  0  0
   14.5395    8.6182   23.3215 C   0  0  0  0  0  0  0  0  0  0  0  0
   12.1171   15.9562   22.0530 C   0  0  0  0  0  0  0  0  0  0  0  0
    6.2993   11.3420   24.6062 C   0  0  0  0  0  0  0  0  0  0  0  0
   12.4506    9.5690   23.4251 C   0  0  0  0  0  0  0  0  0  0  0  0
   10.0433   14.2099   22.1396 C   0  0  0  0  0  0  0  0  0  0  0  0
    7.5859   11.8412   24.4832 C   0  0  0  0  0  0  0  0  0  0  0  0
   11.9255    8.6423   22.5390 C   0  0  0  0  0  0  0  0  0  0  0  0
    7.0397   13.4169   26.2162 C   0  0  0  0  0  0  0  0  0  0  0  0
    8.9431   13.3413   22.1699 C   0  0  0  0  0  0  0  0  0  0  0  0
    5.7775   12.8473   26.2614 C   0  0  0  0  0  0  0  0  0  0  0  0
    9.8516   15.5452   21.7443 C   0  0  0  0  0  0  0  0  0  0  0  0
    7.5876   15.1239   21.4382 C   0  0  0  0  0  0  0  0  0  0  0  0
    8.5193   11.2778   23.5251 C   0  0  0  0  0  0  0  0  0  0  0  0
    9.7330    9.8862   22.5516 C   0  0  0  0  0  0  0  0  0  0  0  0
    7.4290   14.5497   27.1022 C   0  0  0  0  0  0  0  0  0  0  0  0
   10.4546    8.6902   22.1264 C   0  0  0  0  0  0  0  0  0  0  0  0
    4.7527   13.3645   27.2174 C   0  0  0  0  0  0  0  0  0  0  0  0
   13.7402    9.5823   23.8307 N   0  0  0  0  0  0  0  0  0  0  0  0
    5.3822   11.8195   25.4772 N   0  0  0  0  0  0  0  0  0  0  0  0
   10.8848   16.3967   21.7062 N   0  0  0  0  0  0  0  0  0  0  0  0
    8.6333   15.9830   21.4006 N   0  0  0  0  0  0  0  0  0  0  0  0
    8.9027    9.9679   23.5653 N   0  0  0  0  0  0  0  0  0  0  0  0
    9.8320   11.0982   21.9424 N   0  0  0  0  0  0  0  0  0  0  0  0
    9.0600   12.0118   22.5502 N   0  0  0  0  0  0  0  0  0  0  0  0
    6.3638   15.6233   21.0771 O   0  0  0  0  0  0  0  0  0  0  0  0
    5.1979   14.4013   27.9856 F   0  0  0  0  0  0  0  0  0  0  0  0
    3.6244   13.8303   26.6065 F   0  0  0  0  0  0  0  0  0  0  0  0
    4.3289   12.4110   28.0958 F   0  0  0  0  0  0  0  0  0  0  0  0
   13.3949   14.3596   22.7222 H   0  0  0  0  0  0  0  0  0  0  0  0
   14.7955    6.8951   22.0523 H   0  0  0  0  0  0  0  0  0  0  0  0
   11.5273   12.7575   22.8065 H   0  0  0  0  0  0  0  0  0  0  0  0
   12.4138    6.9171   21.3393 H   0  0  0  0  0  0  0  0  0  0  0  0
    8.9557   13.3216   25.2446 H   0  0  0  0  0  0  0  0  0  0  0  0
    6.8150   13.1570   21.8253 H   0  0  0  0  0  0  0  0  0  0  0  0
   15.5703    8.6465   23.6591 H   0  0  0  0  0  0  0  0  0  0  0  0
   12.9039   16.7012   21.9980 H   0  0  0  0  0  0  0  0  0  0  0  0
    5.9487   10.5169   23.9925 H   0  0  0  0  0  0  0  0  0  0  0  0
   11.8327   10.3541   23.8500 H   0  0  0  0  0  0  0  0  0  0  0  0
    7.2023   15.5091   26.6200 H   0  0  0  0  0  0  0  0  0  0  0  0
    6.8953   14.5091   28.0612 H   0  0  0  0  0  0  0  0  0  0  0  0
    8.5019   14.5241   27.3360 H   0  0  0  0  0  0  0  0  0  0  0  0
   10.4146    8.5488   21.0205 H   0  0  0  0  0  0  0  0  0  0  0  0
    9.9731    7.7563   22.5012 H   0  0  0  0  0  0  0  0  0  0  0  0
    5.6948   14.9275   21.1408 H   0  0  0  0  0  0  0  0  0  0  0  0
  1  3  2  0  0  0  0
  1  8  1  0  0  0  0
  2  4  2  0  0  0  0
  2  7  1  0  0  0  0
  3 11  1  0  0  0  0
  4 13  1  0  0  0  0
  5 12  2  0  0  0  0
  5 14  1  0  0  0  0
  6 15  1  0  0  0  0
  6 18  2  0  0  0  0
  7 24  2  0  0  0  0
  8 26  2  0  0  0  0
  9 12  1  0  0  0  0
  9 25  2  0  0  0  0
 10 13  2  0  0  0  0
 10 24  1  0  0  0  0
 11 15  2  0  0  0  0
 11 17  1  0  0  0  0
 12 19  1  0  0  0  0
 13 22  1  0  0  0  0
 14 16  2  0  0  0  0
 14 21  1  0  0  0  0
 15 30  1  0  0  0  0
 16 23  1  0  0  0  0
 16 25  1  0  0  0  0
 17 26  1  0  0  0  0
 17 27  2  0  0  0  0
 18 27  1  0  0  0  0
 18 31  1  0  0  0  0
 19 28  2  0  0  0  0
 19 30  1  0  0  0  0
 20 22  1  0  0  0  0
 20 28  1  0  0  0  0
 20 29  2  0  0  0  0
 23 32  1  0  0  0  0
 23 33  1  0  0  0  0
 23 34  1  0  0  0  0
 29 30  1  0  0  0  0
  1 35  1  0  0  0  0
  2 36  1  0  0  0  0
  3 37  1  0  0  0  0
  4 38  1  0  0  0  0
  5 39  1  0  0  0  0
  6 40  1  0  0  0  0
  7 41  1  0  0  0  0
  8 42  1  0  0  0  0
  9 43  1  0  0  0  0
 10 44  1  0  0  0  0
 21 45  1  0  0  0  0
 21 46  1  0  0  0  0
 21 47  1  0  0  0  0
 22 48  1  0  0  0  0
 22 49  1  0  0  0  0
 31 50  1  0  0  0  0
M  END
> <idnumber>
Z4873983893

> <heavy_atoms>
34

> <LogS>
-4.855

> <LogP>
3.045

> <rotating_bonds>
5

> <PSA>
102.5

> <hb_acceptors>
7

> <hb_donors>
1

> <Collection>
Advanced

> <link>
https://www.enaminestore.com/catalog/Z4873983893

> <ROCS_ShapeQuery>
x0446_0A_x1080_0A_x0929_0A_x0812_0A_x0719_0A_x1140_0A_x0528_0A_x0310_0A

> <ROCS_TanimotoCombo>
0.461 

> <ROCS_ShapeTanimoto>
0.270 

> <ROCS_ColorTanimoto>
0.192 

> <ROCS_RefTversky>
0.251 

> <ROCS_RefColorTversky>
0.225 

> <ROCS_RefTverskyCombo>
0.476 

> <ROCS_FitTversky>
1.375 

> <ROCS_FitColorTversky>
0.567 

> <ROCS_FitTverskyCombo>
1.942 

> <ROCS_ColorScore>
-8.081

> <ROCS_Overlap>
2975.991

> <ROCS_Rank>
225                 

$$$$
untitled-dbase-982302_87
  -OEChem-02092406493D

 45 48  0     1  0  0  0  0  0999 V2000
    9.7139   17.9092   21.8211 C   0  0  0  0  0  0  0  0  0  0  0  0
   11.0831   17.7764   22.0104 C   0  0  0  0  0  0  0  0  0  0  0  0
    8.9948   16.7715   21.5106 C   0  0  0  0  0  0  0  0  0  0  0  0
   11.6954   16.5249   21.8824 C   0  0  0  0  0  0  0  0  0  0  0  0
    9.0694   12.0255   23.5704 C   0  0  0  0  0  0  0  0  0  0  0  0
   10.8805   15.4244   21.5919 C   0  0  0  0  0  0  0  0  0  0  0  0
    9.3604   10.6851   23.4638 C   0  0  0  0  0  0  0  0  0  0  0  0
    7.4935   10.7737   24.5003 C   0  0  0  0  0  0  0  0  0  0  0  0
    9.8499   13.1986   23.0993 C   0  0  0  0  0  0  0  0  0  0  0  0
   13.1761   16.3948   22.1133 C   0  0  0  0  0  0  0  0  0  0  0  0
    6.2078   10.4669   25.1868 C   0  0  0  0  0  0  0  0  0  0  0  0
   13.7515   15.0885   21.5729 C   0  0  0  0  0  0  0  0  0  0  0  0
    5.6491   11.6864   25.9243 C   0  0  0  0  0  0  0  0  0  0  0  0
    5.7104   12.9348   25.0415 C   0  0  0  0  0  0  0  0  0  0  0  0
   12.8814   13.9127   22.0011 C   0  0  0  0  0  0  0  0  0  0  0  0
    7.1528   13.2471   24.6428 C   0  0  0  0  0  0  0  0  0  0  0  0
   11.4745   14.0428   21.3994 C   0  0  1  0  0  0  0  0  0  0  0  0
   10.5320   10.0471   22.8411 C   0  0  0  0  0  0  0  0  0  0  0  0
    9.5420   15.5426   21.3865 N   0  0  0  0  0  0  0  0  0  0  0  0
    8.3802    9.9141   24.0404 N   0  0  0  0  0  0  0  0  0  0  0  0
    7.8783   12.0633   24.2300 N   0  0  0  0  0  0  0  0  0  0  0  0
   10.6285   12.9920   21.9723 N   0  0  0  0  0  0  0  0  0  0  0  0
    9.7841   14.2535   23.7249 O   0  0  0  0  0  0  0  0  0  0  0  0
   11.6343   10.8515   22.9019 F   0  0  0  0  0  0  0  0  0  0  0  0
   10.3250    9.8043   21.5130 F   0  0  0  0  0  0  0  0  0  0  0  0
    9.2275   18.8731   21.9128 H   0  0  0  0  0  0  0  0  0  0  0  0
   11.6746   18.6547   22.2563 H   0  0  0  0  0  0  0  0  0  0  0  0
    7.9231   16.8178   21.3480 H   0  0  0  0  0  0  0  0  0  0  0  0
   13.7040   17.2332   21.6432 H   0  0  0  0  0  0  0  0  0  0  0  0
   13.3596   16.4530   23.1936 H   0  0  0  0  0  0  0  0  0  0  0  0
    5.4841   10.1314   24.4341 H   0  0  0  0  0  0  0  0  0  0  0  0
    6.3480    9.6412   25.8930 H   0  0  0  0  0  0  0  0  0  0  0  0
   13.8071   15.1266   20.4776 H   0  0  0  0  0  0  0  0  0  0  0  0
   14.7748   14.9565   21.9422 H   0  0  0  0  0  0  0  0  0  0  0  0
    4.6153   11.4904   26.2301 H   0  0  0  0  0  0  0  0  0  0  0  0
    6.2277   11.8622   26.8401 H   0  0  0  0  0  0  0  0  0  0  0  0
    5.1062   12.7691   24.1404 H   0  0  0  0  0  0  0  0  0  0  0  0
    5.2774   13.7933   25.5663 H   0  0  0  0  0  0  0  0  0  0  0  0
   13.3428   12.9741   21.6719 H   0  0  0  0  0  0  0  0  0  0  0  0
   12.8312   13.8822   23.0979 H   0  0  0  0  0  0  0  0  0  0  0  0
    7.1695   13.9681   23.8188 H   0  0  0  0  0  0  0  0  0  0  0  0
    7.7015   13.6686   25.4929 H   0  0  0  0  0  0  0  0  0  0  0  0
   11.5222   13.8415   20.3297 H   0  0  0  0  0  0  0  0  0  0  0  0
   10.8073    9.0889   23.3040 H   0  0  0  0  0  0  0  0  0  0  0  0
   10.6813   12.0738   21.5445 H   0  0  0  0  0  0  0  0  0  0  0  0
  1  2  2  0  0  0  0
  1  3  1  0  0  0  0
  2  4  1  0  0  0  0
  3 19  2  0  0  0  0
  4  6  2  0  0  0  0
  4 10  1  0  0  0  0
  5  7  2  0  0  0  0
  5  9  1  0  0  0  0
  5 21  1  0  0  0  0
  6 17  1  0  0  0  0
  6 19  1  0  0  0  0
  7 18  1  0  0  0  0
  7 20  1  0  0  0  0
  8 11  1  0  0  0  0
  8 20  2  0  0  0  0
  8 21  1  0  0  0  0
  9 22  1  0  0  0  0
  9 23  2  0  0  0  0
 10 12  1  0  0  0  0
 11 13  1  0  0  0  0
 12 15  1  0  0  0  0
 13 14  1  0  0  0  0
 14 16  1  0  0  0  0
 15 17  1  0  0  0  0
 16 21  1  0  0  0  0
 17 22  1  6  0  0  0
 18 24  1  0  0  0  0
 18 25  1  0  0  0  0
  1 26  1  0  0  0  0
  2 27  1  0  0  0  0
  3 28  1  0  0  0  0
 10 29  1  0  0  0  0
 10 30  1  0  0  0  0
 11 31  1  0  0  0  0
 11 32  1  0  0  0  0
 12 33  1  0  0  0  0
 12 34  1  0  0  0  0
 13 35  1  0  0  0  0
 13 36  1  0  0  0  0
 14 37  1  0  0  0  0
 14 38  1  0  0  0  0
 15 39  1  0  0  0  0
 15 40  1  0  0  0  0
 16 41  1  0  0  0  0
 16 42  1  0  0  0  0
 17 43  1  0  0  0  0
 18 44  1  0  0  0  0
 22 45  1  0  0  0  0
M  END
> <idnumber>
Z2962743252

> <heavy_atoms>
25

> <LogS>
-2.882

> <LogP>
1.934

> <rotating_bonds>
3

> <PSA>
59.81

> <hb_acceptors>
3

> <hb_donors>
1

> <Collection>
HTS

> <link>
https://www.enaminestore.com/catalog/Z2962743252

> <ROCS_ShapeQuery>
x0446_0A_x1080_0A_x0929_0A_x0812_0A_x0719_0A_x1140_0A_x0528_0A_x0310_0A

> <ROCS_TanimotoCombo>
0.461 

> <ROCS_ShapeTanimoto>
0.272 

> <ROCS_ColorTanimoto>
0.189 

> <ROCS_RefTversky>
0.245 

> <ROCS_RefColorTversky>
0.205 

> <ROCS_RefTverskyCombo>
0.450 

> <ROCS_FitTversky>
1.691 

> <ROCS_FitColorTversky>
0.705 

> <ROCS_FitTverskyCombo>
2.396 

> <ROCS_ColorScore>
-7.353

> <ROCS_Overlap>
2896.020

> <ROCS_Rank>
226                 

$$$$
untitled-dbase-993870_13
  -OEChem-02092406493D

 43 46  0     1  0  0  0  0  0999 V2000
    6.3884   13.2504   19.4033 C   0  0  0  0  0  0  0  0  0  0  0  0
    5.5308   13.1203   20.4956 C   0  0  0  0  0  0  0  0  0  0  0  0
   12.5105   11.9846   23.5004 C   0  0  0  0  0  0  0  0  0  0  0  0
    7.6979   13.6916   19.5934 C   0  0  0  0  0  0  0  0  0  0  0  0
   11.6030   10.9441   23.3341 C   0  0  0  0  0  0  0  0  0  0  0  0
    5.9827   13.4315   21.7780 C   0  0  0  0  0  0  0  0  0  0  0  0
   12.0174   13.2389   23.8292 C   0  0  0  0  0  0  0  0  0  0  0  0
    8.1498   14.0028   20.8758 C   0  0  0  0  0  0  0  0  0  0  0  0
   10.2409   11.1936   23.4866 C   0  0  0  0  0  0  0  0  0  0  0  0
    7.2922   13.8728   21.9681 C   0  0  0  0  0  0  0  0  0  0  0  0
    9.8428   12.5002   23.8138 C   0  0  0  0  0  0  0  0  0  0  0  0
    7.6769   10.5853   25.0850 C   0  0  0  0  0  0  0  0  0  0  0  0
    8.8645    9.6801   24.6934 C   0  0  0  0  0  0  0  0  0  0  0  0
    8.0547   10.7173   22.7344 C   0  0  0  0  0  0  0  0  0  0  0  0
    7.5179   11.5517   23.8955 C   0  0  2  0  0  0  0  0  0  0  0  0
   10.8781   16.3760   21.4466 C   0  0  0  0  0  0  0  0  0  0  0  0
    9.5573   14.4741   21.0449 C   0  0  0  0  0  0  0  0  0  0  0  0
   10.7064   13.5220   24.0030 N   0  0  0  0  0  0  0  0  0  0  0  0
    9.2712   10.1627   23.3561 N   0  0  1  0  0  0  0  0  0  0  0  0
    8.4314   12.7389   24.1000 N   0  0  2  0  0  0  0  0  0  0  0  0
    8.9303   15.1996   23.4944 O   0  0  0  0  0  0  0  0  0  0  0  0
    6.6558   14.5896   24.3900 O   0  0  0  0  0  0  0  0  0  0  0  0
    9.5584   15.8763   21.2784 O   0  0  0  0  0  0  0  0  0  0  0  0
    7.8309   14.2599   23.6061 S   0  0  0  0  0  0  0  0  0  0  0  0
    6.0356   13.0086   18.4048 H   0  0  0  0  0  0  0  0  0  0  0  0
    4.5109   12.7778   20.3473 H   0  0  0  0  0  0  0  0  0  0  0  0
   13.5748   11.8196   23.3752 H   0  0  0  0  0  0  0  0  0  0  0  0
    8.3578   13.7894   18.7355 H   0  0  0  0  0  0  0  0  0  0  0  0
   11.9607    9.9494   23.0841 H   0  0  0  0  0  0  0  0  0  0  0  0
    5.3042   13.3264   22.6208 H   0  0  0  0  0  0  0  0  0  0  0  0
   12.6907   14.0788   23.9671 H   0  0  0  0  0  0  0  0  0  0  0  0
    6.7744    9.9730   25.1920 H   0  0  0  0  0  0  0  0  0  0  0  0
    7.8574   11.0998   26.0331 H   0  0  0  0  0  0  0  0  0  0  0  0
    9.6726    9.7111   25.4345 H   0  0  0  0  0  0  0  0  0  0  0  0
    8.5296    8.6394   24.6142 H   0  0  0  0  0  0  0  0  0  0  0  0
    7.3679    9.9028   22.4738 H   0  0  0  0  0  0  0  0  0  0  0  0
    8.2647   11.2941   21.8250 H   0  0  0  0  0  0  0  0  0  0  0  0
    6.4913   11.8862   23.7512 H   0  0  0  0  0  0  0  0  0  0  0  0
   10.8407   17.4536   21.6236 H   0  0  0  0  0  0  0  0  0  0  0  0
   11.4662   16.1634   20.5503 H   0  0  0  0  0  0  0  0  0  0  0  0
   11.3377   15.8835   22.3068 H   0  0  0  0  0  0  0  0  0  0  0  0
   10.0454   13.9752   21.8921 H   0  0  0  0  0  0  0  0  0  0  0  0
   10.1542   14.2634   20.1481 H   0  0  0  0  0  0  0  0  0  0  0  0
  1  2  1  0  0  0  0
  1  4  2  0  0  0  0
  2  6  2  0  0  0  0
  3  5  2  0  0  0  0
  3  7  1  0  0  0  0
  4  8  1  0  0  0  0
  5  9  1  0  0  0  0
  6 10  1  0  0  0  0
  7 18  2  0  0  0  0
  8 10  2  0  0  0  0
  8 17  1  0  0  0  0
  9 11  2  0  0  0  0
  9 19  1  0  0  0  0
 10 24  1  0  0  0  0
 11 18  1  0  0  0  0
 11 20  1  0  0  0  0
 12 13  1  0  0  0  0
 12 15  1  0  0  0  0
 13 19  1  0  0  0  0
 14 15  1  0  0  0  0
 14 19  1  0  0  0  0
 15 20  1  0  0  0  0
 16 23  1  0  0  0  0
 17 23  1  0  0  0  0
 20 24  1  0  0  0  0
 21 24  2  0  0  0  0
 22 24  2  0  0  0  0
  1 25  1  0  0  0  0
  2 26  1  0  0  0  0
  3 27  1  0  0  0  0
  4 28  1  0  0  0  0
  5 29  1  0  0  0  0
  6 30  1  0  0  0  0
  7 31  1  0  0  0  0
 12 32  1  0  0  0  0
 12 33  1  0  0  0  0
 13 34  1  0  0  0  0
 13 35  1  0  0  0  0
 14 36  1  0  0  0  0
 14 37  1  0  0  0  0
 15 38  1  0  0  0  0
 16 39  1  0  0  0  0
 16 40  1  0  0  0  0
 16 41  1  0  0  0  0
 17 42  1  0  0  0  0
 17 43  1  0  0  0  0
M  END
> <idnumber>
Z2996228523

> <heavy_atoms>
24

> <LogS>
-3.46

> <LogP>
1.887

> <rotating_bonds>
3

> <PSA>
62.74

> <hb_acceptors>
5

> <hb_donors>
0

> <Collection>
HTS

> <link>
https://www.enaminestore.com/catalog/Z2996228523

> <ROCS_ShapeQuery>
x0446_0A_x1080_0A_x0929_0A_x0812_0A_x0719_0A_x1140_0A_x0528_0A_x0310_0A

> <ROCS_TanimotoCombo>
0.461 

> <ROCS_ShapeTanimoto>
0.257 

> <ROCS_ColorTanimoto>
0.204 

> <ROCS_RefTversky>
0.233 

> <ROCS_RefColorTversky>
0.236 

> <ROCS_RefTverskyCombo>
0.469 

> <ROCS_FitTversky>
1.660 

> <ROCS_FitColorTversky>
0.603 

> <ROCS_FitTverskyCombo>
2.263 

> <ROCS_ColorScore>
-8.499

> <ROCS_Overlap>
2755.728

> <ROCS_Rank>
227                 

$$$$
untitled-dbase-450490_10
  -OEChem-02092406493D

 41 45  0     0  0  0  0  0  0999 V2000
   13.0882   15.8873   21.9609 C   0  0  0  0  0  0  0  0  0  0  0  0
   13.2239   14.6723   22.6395 C   0  0  0  0  0  0  0  0  0  0  0  0
   11.8365   16.3306   21.5141 C   0  0  0  0  0  0  0  0  0  0  0  0
   12.1174   13.8554   22.8974 C   0  0  0  0  0  0  0  0  0  0  0  0
    7.9367   12.4656   23.6358 C   0  0  0  0  0  0  0  0  0  0  0  0
    6.8030   13.3373   23.7592 C   0  0  0  0  0  0  0  0  0  0  0  0
   10.7194   15.5210   21.7663 C   0  0  0  0  0  0  0  0  0  0  0  0
   10.8853   14.3201   22.4424 C   0  0  0  0  0  0  0  0  0  0  0  0
    5.7429   12.7111   24.3891 C   0  0  0  0  0  0  0  0  0  0  0  0
    9.2110   12.6269   23.0791 C   0  0  0  0  0  0  0  0  0  0  0  0
    7.6685   11.2206   24.1927 C   0  0  0  0  0  0  0  0  0  0  0  0
    9.7019   10.4598   23.6792 C   0  0  0  0  0  0  0  0  0  0  0  0
    6.7040   14.7494   23.2618 C   0  0  0  0  0  0  0  0  0  0  0  0
    4.4227   13.3475   24.6935 C   0  0  0  0  0  0  0  0  0  0  0  0
    5.5128   15.4949   23.8829 C   0  0  0  0  0  0  0  0  0  0  0  0
    4.2415   14.6349   23.8753 C   0  0  0  0  0  0  0  0  0  0  0  0
   11.6253    9.3988   22.4702 C   0  0  0  0  0  0  0  0  0  0  0  0
   10.7088    9.3578   23.6896 C   0  0  0  0  0  0  0  0  0  0  0  0
    9.3957   15.6893   21.4563 N   0  0  0  0  0  0  0  0  0  0  0  0
   10.0996   11.6109   23.1039 N   0  0  0  0  0  0  0  0  0  0  0  0
    8.5160   10.1745   24.2445 N   0  0  0  0  0  0  0  0  0  0  0  0
    8.7284   14.6358   21.9147 N   0  0  0  0  0  0  0  0  0  0  0  0
    9.6173   13.8184   22.5031 N   0  0  0  0  0  0  0  0  0  0  0  0
    6.0968   11.1102   24.8405 S   0  0  0  0  0  0  0  0  0  0  0  0
   13.9681   16.4983   21.7759 H   0  0  0  0  0  0  0  0  0  0  0  0
   14.2087   14.3554   22.9742 H   0  0  0  0  0  0  0  0  0  0  0  0
   11.7407   17.2751   20.9887 H   0  0  0  0  0  0  0  0  0  0  0  0
   12.2234   12.9137   23.4232 H   0  0  0  0  0  0  0  0  0  0  0  0
    7.6329   15.2757   23.5133 H   0  0  0  0  0  0  0  0  0  0  0  0
    6.5923   14.7711   22.1726 H   0  0  0  0  0  0  0  0  0  0  0  0
    3.6221   12.6416   24.4397 H   0  0  0  0  0  0  0  0  0  0  0  0
    4.3336   13.5793   25.7610 H   0  0  0  0  0  0  0  0  0  0  0  0
    5.7609   15.7876   24.9092 H   0  0  0  0  0  0  0  0  0  0  0  0
    5.3237   16.4190   23.3219 H   0  0  0  0  0  0  0  0  0  0  0  0
    3.9684   14.3782   22.8456 H   0  0  0  0  0  0  0  0  0  0  0  0
    3.4110   15.2204   24.2903 H   0  0  0  0  0  0  0  0  0  0  0  0
   11.0466    9.3505   21.5415 H   0  0  0  0  0  0  0  0  0  0  0  0
   12.3207    8.5537   22.4806 H   0  0  0  0  0  0  0  0  0  0  0  0
   12.2139   10.3223   22.4516 H   0  0  0  0  0  0  0  0  0  0  0  0
   11.3217    9.4080   24.6034 H   0  0  0  0  0  0  0  0  0  0  0  0
   10.2048    8.3792   23.7295 H   0  0  0  0  0  0  0  0  0  0  0  0
  1  2  1  0  0  0  0
  1  3  2  0  0  0  0
  2  4  2  0  0  0  0
  3  7  1  0  0  0  0
  4  8  1  0  0  0  0
  5  6  1  0  0  0  0
  5 10  1  0  0  0  0
  5 11  2  0  0  0  0
  6  9  2  0  0  0  0
  6 13  1  0  0  0  0
  7  8  2  0  0  0  0
  7 19  1  0  0  0  0
  8 23  1  0  0  0  0
  9 14  1  0  0  0  0
  9 24  1  0  0  0  0
 10 20  2  0  0  0  0
 10 23  1  0  0  0  0
 11 21  1  0  0  0  0
 11 24  1  0  0  0  0
 12 18  1  0  0  0  0
 12 20  1  0  0  0  0
 12 21  2  0  0  0  0
 13 15  1  0  0  0  0
 14 16  1  0  0  0  0
 15 16  1  0  0  0  0
 17 18  1  0  0  0  0
 19 22  2  0  0  0  0
 22 23  1  0  0  0  0
  1 25  1  0  0  0  0
  2 26  1  0  0  0  0
  3 27  1  0  0  0  0
  4 28  1  0  0  0  0
 13 29  1  0  0  0  0
 13 30  1  0  0  0  0
 14 31  1  0  0  0  0
 14 32  1  0  0  0  0
 15 33  1  0  0  0  0
 15 34  1  0  0  0  0
 16 35  1  0  0  0  0
 16 36  1  0  0  0  0
 17 37  1  0  0  0  0
 17 38  1  0  0  0  0
 17 39  1  0  0  0  0
 18 40  1  0  0  0  0
 18 41  1  0  0  0  0
M  END
> <idnumber>
Z56884811

> <heavy_atoms>
24

> <LogS>
-5.6

> <LogP>
5.411

> <rotating_bonds>
2

> <PSA>
56.49

> <hb_acceptors>
4

> <hb_donors>
0

> <Collection>
Legacy

> <link>
https://www.enaminestore.com/catalog/Z56884811

> <ROCS_ShapeQuery>
x0446_0A_x1080_0A_x0929_0A_x0812_0A_x0719_0A_x1140_0A_x0528_0A_x0310_0A

> <ROCS_TanimotoCombo>
0.461 

> <ROCS_ShapeTanimoto>
0.275 

> <ROCS_ColorTanimoto>
0.187 

> <ROCS_RefTversky>
0.246 

> <ROCS_RefColorTversky>
0.209 

> <ROCS_RefTverskyCombo>
0.455 

> <ROCS_FitTversky>
1.723 

> <ROCS_FitColorTversky>
0.638 

> <ROCS_FitTverskyCombo>
2.361 

> <ROCS_ColorScore>
-7.485

> <ROCS_Overlap>
2911.902

> <ROCS_Rank>
228                 

$$$$
untitled-dbase-1052414_133
  -OEChem-02092406493D

 43 46  0     1  0  0  0  0  0999 V2000
    8.2101   14.7121   20.2421 C   0  0  0  0  0  0  0  0  0  0  0  0
    9.4505   14.2897   19.8343 C   0  0  0  0  0  0  0  0  0  0  0  0
    8.2272   12.2389   24.2031 C   0  0  0  0  0  0  0  0  0  0  0  0
    9.4343   12.0308   23.5184 C   0  0  0  0  0  0  0  0  0  0  0  0
    7.6231   11.0053   24.2279 C   0  0  0  0  0  0  0  0  0  0  0  0
   10.4480   12.9971   23.2038 C   0  0  0  0  0  0  0  0  0  0  0  0
    7.5816   13.4218   24.8138 C   0  0  0  0  0  0  0  0  0  0  0  0
   12.6169   15.9820   20.5381 C   0  0  0  0  0  0  0  0  0  0  0  0
   12.5116   15.0003   19.4132 C   0  0  0  0  0  0  0  0  0  0  0  0
    6.3245   10.6913   24.8772 C   0  0  2  0  0  0  0  0  0  0  0  0
    6.4728   12.9388   25.7810 C   0  0  1  0  0  0  0  0  0  0  0  0
   11.7614   14.7393   20.7070 C   0  0  0  0  0  0  0  0  0  0  0  0
    5.4104    9.8493   24.0018 C   0  0  0  0  0  0  0  0  0  0  0  0
    5.5745   14.0940   26.1988 C   0  0  0  0  0  0  0  0  0  0  0  0
   12.2767   13.6604   21.5977 C   0  0  0  0  0  0  0  0  0  0  0  0
    8.3376   15.5256   21.3336 N   0  0  0  0  0  0  0  0  0  0  0  0
    9.5937   10.7550   23.1451 N   0  0  0  0  0  0  0  0  0  0  0  0
    9.6311   15.6245   21.6201 N   0  0  0  0  0  0  0  0  0  0  0  0
    8.4774   10.1513   23.6006 N   0  0  0  0  0  0  0  0  0  0  0  0
   10.2967   14.8829   20.7199 N   0  0  0  0  0  0  0  0  0  0  0  0
   11.2083   12.7915   22.0362 N   0  0  0  0  0  0  0  0  0  0  0  0
   10.6646   13.9794   23.9519 O   0  0  0  0  0  0  0  0  0  0  0  0
    5.6454   11.9467   25.1327 O   0  0  0  0  0  0  0  0  0  0  0  0
    7.2475   14.4765   19.8142 H   0  0  0  0  0  0  0  0  0  0  0  0
    9.7846   13.6502   19.0296 H   0  0  0  0  0  0  0  0  0  0  0  0
    8.3084   14.0422   25.3488 H   0  0  0  0  0  0  0  0  0  0  0  0
    7.1432   14.0262   24.0101 H   0  0  0  0  0  0  0  0  0  0  0  0
   13.5591   16.0382   21.0708 H   0  0  0  0  0  0  0  0  0  0  0  0
   12.1213   16.9383   20.4188 H   0  0  0  0  0  0  0  0  0  0  0  0
   11.9448   15.2973   18.5383 H   0  0  0  0  0  0  0  0  0  0  0  0
   13.3828   14.3965   19.1887 H   0  0  0  0  0  0  0  0  0  0  0  0
    6.4894   10.1911   25.8386 H   0  0  0  0  0  0  0  0  0  0  0  0
    6.9143   12.4882   26.6799 H   0  0  0  0  0  0  0  0  0  0  0  0
    5.2448   10.3454   23.0442 H   0  0  0  0  0  0  0  0  0  0  0  0
    4.4470    9.7049   24.4935 H   0  0  0  0  0  0  0  0  0  0  0  0
    5.8607    8.8725   23.8180 H   0  0  0  0  0  0  0  0  0  0  0  0
    5.1251   14.5563   25.3191 H   0  0  0  0  0  0  0  0  0  0  0  0
    6.1557   14.8460   26.7338 H   0  0  0  0  0  0  0  0  0  0  0  0
    4.7792   13.7328   26.8521 H   0  0  0  0  0  0  0  0  0  0  0  0
   13.0205   13.0654   21.0476 H   0  0  0  0  0  0  0  0  0  0  0  0
   12.7516   14.1180   22.4781 H   0  0  0  0  0  0  0  0  0  0  0  0
    8.3715    9.1564   23.4456 H   0  0  0  0  0  0  0  0  0  0  0  0
   11.0443   11.9509   21.4919 H   0  0  0  0  0  0  0  0  0  0  0  0
  1  2  2  0  0  0  0
  1 16  1  0  0  0  0
  2 20  1  0  0  0  0
  3  4  1  0  0  0  0
  3  5  2  0  0  0  0
  3  7  1  0  0  0  0
  4  6  1  0  0  0  0
  4 17  2  0  0  0  0
  5 10  1  0  0  0  0
  5 19  1  0  0  0  0
  6 21  1  0  0  0  0
  6 22  2  0  0  0  0
  7 11  1  0  0  0  0
  8  9  1  0  0  0  0
  8 12  1  0  0  0  0
  9 12  1  0  0  0  0
 10 13  1  6  0  0  0
 10 23  1  0  0  0  0
 11 14  1  6  0  0  0
 11 23  1  0  0  0  0
 12 15  1  0  0  0  0
 12 20  1  0  0  0  0
 15 21  1  0  0  0  0
 16 18  2  0  0  0  0
 17 19  1  0  0  0  0
 18 20  1  0  0  0  0
  1 24  1  0  0  0  0
  2 25  1  0  0  0  0
  7 26  1  0  0  0  0
  7 27  1  0  0  0  0
  8 28  1  0  0  0  0
  8 29  1  0  0  0  0
  9 30  1  0  0  0  0
  9 31  1  0  0  0  0
 10 32  1  0  0  0  0
 11 33  1  0  0  0  0
 13 34  1  0  0  0  0
 13 35  1  0  0  0  0
 13 36  1  0  0  0  0
 14 37  1  0  0  0  0
 14 38  1  0  0  0  0
 14 39  1  0  0  0  0
 15 40  1  0  0  0  0
 15 41  1  0  0  0  0
 19 42  1  0  0  0  0
 21 43  1  0  0  0  0
M  END
> <idnumber>
Z3687346960

> <heavy_atoms>
23

> <LogS>
-1.704

> <LogP>
0.133

> <rotating_bonds>
4

> <PSA>
97.72

> <hb_acceptors>
5

> <hb_donors>
2

> <Collection>
Premium

> <link>
https://www.enaminestore.com/catalog/Z3687346960

> <ROCS_ShapeQuery>
x0446_0A_x1080_0A_x0929_0A_x0812_0A_x0719_0A_x1140_0A_x0528_0A_x0310_0A

> <ROCS_TanimotoCombo>
0.461 

> <ROCS_ShapeTanimoto>
0.239 

> <ROCS_ColorTanimoto>
0.222 

> <ROCS_RefTversky>
0.220 

> <ROCS_RefColorTversky>
0.241 

> <ROCS_RefTverskyCombo>
0.461 

> <ROCS_FitTversky>
1.595 

> <ROCS_FitColorTversky>
0.739 

> <ROCS_FitTverskyCombo>
2.333 

> <ROCS_ColorScore>
-8.644

> <ROCS_Overlap>
2595.031

> <ROCS_Rank>
229                 

$$$$
untitled-dbase-869247_10
  -OEChem-02092406493D

 35 37  0     0  0  0  0  0  0999 V2000
   13.2676   14.1770   23.3489 C   0  0  0  0  0  0  0  0  0  0  0  0
   11.9873   13.9324   23.8329 C   0  0  0  0  0  0  0  0  0  0  0  0
   13.3892   14.8978   22.1718 C   0  0  0  0  0  0  0  0  0  0  0  0
    7.9723   12.5442   24.2357 C   0  0  0  0  0  0  0  0  0  0  0  0
   10.8833   14.4093   23.1350 C   0  0  0  0  0  0  0  0  0  0  0  0
    7.6720   11.1872   24.3104 C   0  0  0  0  0  0  0  0  0  0  0  0
   11.1117   15.1198   21.9676 C   0  0  0  0  0  0  0  0  0  0  0  0
    9.2374   12.8531   23.7607 C   0  0  0  0  0  0  0  0  0  0  0  0
    9.7571   10.6560   23.5352 C   0  0  0  0  0  0  0  0  0  0  0  0
    6.9821   13.6180   24.5741 C   0  0  0  0  0  0  0  0  0  0  0  0
    6.3428   10.7157   24.8379 C   0  0  0  0  0  0  0  0  0  0  0  0
    5.7997   13.0995   25.3930 C   0  0  0  0  0  0  0  0  0  0  0  0
    5.2656   11.7987   24.8021 C   0  0  0  0  0  0  0  0  0  0  0  0
   10.7459    9.6066   23.1554 C   0  0  0  0  0  0  0  0  0  0  0  0
   12.3405   15.3772   21.4662 N   0  0  0  0  0  0  0  0  0  0  0  0
    8.5599   10.2227   23.9724 N   0  0  0  0  0  0  0  0  0  0  0  0
   10.1564   11.9329   23.4051 N   0  0  0  0  0  0  0  0  0  0  0  0
    9.9537   15.5960   21.2721 N   0  3  0  0  0  0  0  0  0  0  0  0
   10.1168   16.2414   20.2154 O   0  5  0  0  0  0  0  0  0  0  0  0
    8.8272   15.3471   21.7505 O   0  0  0  0  0  0  0  0  0  0  0  0
    9.6148   14.1633   23.6206 O   0  0  0  0  0  0  0  0  0  0  0  0
   14.1424   13.8142   23.8760 H   0  0  0  0  0  0  0  0  0  0  0  0
   11.8570   13.3702   24.7534 H   0  0  0  0  0  0  0  0  0  0  0  0
   14.3657   15.1149   21.7516 H   0  0  0  0  0  0  0  0  0  0  0  0
    7.4682   14.4222   25.1389 H   0  0  0  0  0  0  0  0  0  0  0  0
    6.6084   14.0483   23.6364 H   0  0  0  0  0  0  0  0  0  0  0  0
    6.0039    9.8472   24.2614 H   0  0  0  0  0  0  0  0  0  0  0  0
    6.4912   10.3848   25.8734 H   0  0  0  0  0  0  0  0  0  0  0  0
    6.1130   12.9267   26.4307 H   0  0  0  0  0  0  0  0  0  0  0  0
    5.0090   13.8576   25.4190 H   0  0  0  0  0  0  0  0  0  0  0  0
    4.9423   11.9711   23.7679 H   0  0  0  0  0  0  0  0  0  0  0  0
    4.3865   11.4626   25.3632 H   0  0  0  0  0  0  0  0  0  0  0  0
   10.6427    9.3504   22.0938 H   0  0  0  0  0  0  0  0  0  0  0  0
   11.7750    9.9454   23.3328 H   0  0  0  0  0  0  0  0  0  0  0  0
   10.6059    8.6934   23.7487 H   0  0  0  0  0  0  0  0  0  0  0  0
  1  2  2  0  0  0  0
  1  3  1  0  0  0  0
  2  5  1  0  0  0  0
  3 15  2  0  0  0  0
  4  6  2  0  0  0  0
  4  8  1  0  0  0  0
  4 10  1  0  0  0  0
  5  7  2  0  0  0  0
  5 21  1  0  0  0  0
  6 11  1  0  0  0  0
  6 16  1  0  0  0  0
  7 15  1  0  0  0  0
  7 18  1  0  0  0  0
  8 17  2  0  0  0  0
  8 21  1  0  0  0  0
  9 14  1  0  0  0  0
  9 16  2  0  0  0  0
  9 17  1  0  0  0  0
 10 12  1  0  0  0  0
 11 13  1  0  0  0  0
 12 13  1  0  0  0  0
 18 19  1  0  0  0  0
 18 20  2  0  0  0  0
  1 22  1  0  0  0  0
  2 23  1  0  0  0  0
  3 24  1  0  0  0  0
 10 25  1  0  0  0  0
 10 26  1  0  0  0  0
 11 27  1  0  0  0  0
 11 28  1  0  0  0  0
 12 29  1  0  0  0  0
 12 30  1  0  0  0  0
 13 31  1  0  0  0  0
 13 32  1  0  0  0  0
 14 33  1  0  0  0  0
 14 34  1  0  0  0  0
 14 35  1  0  0  0  0
M  CHG  2  18   1  19  -1
M  END
> <idnumber>
Z1376314303

> <heavy_atoms>
21

> <LogS>
-3.76

> <LogP>
2.003

> <rotating_bonds>
3

> <PSA>
91.04

> <hb_acceptors>
5

> <hb_donors>
0

> <Collection>
Legacy

> <link>
https://www.enaminestore.com/catalog/Z1376314303

> <ROCS_ShapeQuery>
x0446_0A_x1080_0A_x0929_0A_x0812_0A_x0719_0A_x1140_0A_x0528_0A_x0310_0A

> <ROCS_TanimotoCombo>
0.461 

> <ROCS_ShapeTanimoto>
0.261 

> <ROCS_ColorTanimoto>
0.200 

> <ROCS_RefTversky>
0.234 

> <ROCS_RefColorTversky>
0.215 

> <ROCS_RefTverskyCombo>
0.450 

> <ROCS_FitTversky>
1.789 

> <ROCS_FitColorTversky>
0.738 

> <ROCS_FitTverskyCombo>
2.527 

> <ROCS_ColorScore>
-7.708

> <ROCS_Overlap>
2767.325

> <ROCS_Rank>
230                 

$$$$
untitled-dbase-327554_14
  -OEChem-02092406493D

 46 49  0     0  0  0  0  0  0999 V2000
   12.4916   15.2773   21.5762 C   0  0  0  0  0  0  0  0  0  0  0  0
   13.5753   14.6714   22.2119 C   0  0  0  0  0  0  0  0  0  0  0  0
   12.0807   13.7241   23.8569 C   0  0  0  0  0  0  0  0  0  0  0  0
    7.9933   12.5520   24.3197 C   0  0  0  0  0  0  0  0  0  0  0  0
   11.2024   15.1067   22.0809 C   0  0  0  0  0  0  0  0  0  0  0  0
    6.9265   13.3540   24.8479 C   0  0  0  0  0  0  0  0  0  0  0  0
   13.3699   13.8948   23.3522 C   0  0  0  0  0  0  0  0  0  0  0  0
   10.9970   14.3301   23.2212 C   0  0  0  0  0  0  0  0  0  0  0  0
    5.8533   12.5785   25.2470 C   0  0  0  0  0  0  0  0  0  0  0  0
    9.2599   12.8609   23.8098 C   0  0  0  0  0  0  0  0  0  0  0  0
    7.6577   11.2033   24.3408 C   0  0  0  0  0  0  0  0  0  0  0  0
    9.6174   10.6158   23.4510 C   0  0  0  0  0  0  0  0  0  0  0  0
   10.0855   15.7491   21.4025 C   0  0  0  0  0  0  0  0  0  0  0  0
    6.9245   14.8464   25.0040 C   0  0  0  0  0  0  0  0  0  0  0  0
    4.5749   13.1049   25.8209 C   0  0  0  0  0  0  0  0  0  0  0  0
    5.5107   15.3964   25.2472 C   0  0  0  0  0  0  0  0  0  0  0  0
    4.7485   14.5593   26.2836 C   0  0  0  0  0  0  0  0  0  0  0  0
   10.5453    9.5558   22.9575 C   0  0  0  0  0  0  0  0  0  0  0  0
   10.3605   17.0382   20.6860 C   0  0  0  0  0  0  0  0  0  0  0  0
   14.1468   12.5244   25.1338 C   0  0  0  0  0  0  0  0  0  0  0  0
   10.0767   11.8794   23.3718 N   0  0  0  0  0  0  0  0  0  0  0  0
    8.4321   10.1855   23.9170 N   0  0  0  0  0  0  0  0  0  0  0  0
    8.9328   15.3157   21.3775 O   0  0  0  0  0  0  0  0  0  0  0  0
    9.7305   14.1492   23.7361 O   0  0  0  0  0  0  0  0  0  0  0  0
   14.4279   13.3047   23.9730 O   0  0  0  0  0  0  0  0  0  0  0  0
    6.1052   10.9178   24.9815 S   0  0  0  0  0  0  0  0  0  0  0  0
   12.6646   15.8799   20.6881 H   0  0  0  0  0  0  0  0  0  0  0  0
   14.5769   14.8088   21.8136 H   0  0  0  0  0  0  0  0  0  0  0  0
   11.9213   13.1210   24.7474 H   0  0  0  0  0  0  0  0  0  0  0  0
    7.5677   15.1091   25.8529 H   0  0  0  0  0  0  0  0  0  0  0  0
    7.3415   15.3272   24.1125 H   0  0  0  0  0  0  0  0  0  0  0  0
    3.7956   13.0607   25.0498 H   0  0  0  0  0  0  0  0  0  0  0  0
    4.2395   12.4920   26.6652 H   0  0  0  0  0  0  0  0  0  0  0  0
    5.5767   16.4379   25.5813 H   0  0  0  0  0  0  0  0  0  0  0  0
    4.9493   15.3973   24.3040 H   0  0  0  0  0  0  0  0  0  0  0  0
    3.7645   15.0024   26.4738 H   0  0  0  0  0  0  0  0  0  0  0  0
    5.2980   14.5797   27.2337 H   0  0  0  0  0  0  0  0  0  0  0  0
   11.1837    9.1985   23.7742 H   0  0  0  0  0  0  0  0  0  0  0  0
    9.9910    8.7017   22.5486 H   0  0  0  0  0  0  0  0  0  0  0  0
   11.1876    9.9338   22.1521 H   0  0  0  0  0  0  0  0  0  0  0  0
   10.6575   16.9103   19.6331 H   0  0  0  0  0  0  0  0  0  0  0  0
   11.1343   17.6496   21.1755 H   0  0  0  0  0  0  0  0  0  0  0  0
    9.4789   17.7014   20.6312 H   0  0  0  0  0  0  0  0  0  0  0  0
   15.0775   12.1111   25.5302 H   0  0  0  0  0  0  0  0  0  0  0  0
   13.4588   11.7163   24.8729 H   0  0  0  0  0  0  0  0  0  0  0  0
   13.6843   13.1644   25.8889 H   0  0  0  0  0  0  0  0  0  0  0  0
  1  2  2  0  0  0  0
  1  5  1  0  0  0  0
  2  7  1  0  0  0  0
  3  7  2  0  0  0  0
  3  8  1  0  0  0  0
  4  6  1  0  0  0  0
  4 10  2  0  0  0  0
  4 11  1  0  0  0  0
  5  8  2  0  0  0  0
  5 13  1  0  0  0  0
  6  9  2  0  0  0  0
  6 14  1  0  0  0  0
  7 25  1  0  0  0  0
  8 24  1  0  0  0  0
  9 15  1  0  0  0  0
  9 26  1  0  0  0  0
 10 21  1  0  0  0  0
 10 24  1  0  0  0  0
 11 22  2  0  0  0  0
 11 26  1  0  0  0  0
 12 18  1  0  0  0  0
 12 21  2  0  0  0  0
 12 22  1  0  0  0  0
 13 19  1  0  0  0  0
 13 23  2  0  0  0  0
 14 16  1  0  0  0  0
 15 17  1  0  0  0  0
 16 17  1  0  0  0  0
 20 25  1  0  0  0  0
  1 27  1  0  0  0  0
  2 28  1  0  0  0  0
  3 29  1  0  0  0  0
 14 30  1  0  0  0  0
 14 31  1  0  0  0  0
 15 32  1  0  0  0  0
 15 33  1  0  0  0  0
 16 34  1  0  0  0  0
 16 35  1  0  0  0  0
 17 36  1  0  0  0  0
 17 37  1  0  0  0  0
 18 38  1  0  0  0  0
 18 39  1  0  0  0  0
 18 40  1  0  0  0  0
 19 41  1  0  0  0  0
 19 42  1  0  0  0  0
 19 43  1  0  0  0  0
 20 44  1  0  0  0  0
 20 45  1  0  0  0  0
 20 46  1  0  0  0  0
M  END
> <idnumber>
Z31227441

> <heavy_atoms>
26

> <LogS>
-6.07

> <LogP>
4.714

> <rotating_bonds>
4

> <PSA>
61.31

> <hb_acceptors>
4

> <hb_donors>
0

> <Collection>
Legacy

> <link>
https://www.enaminestore.com/catalog/Z31227441

> <ROCS_ShapeQuery>
x0446_0A_x1080_0A_x0929_0A_x0812_0A_x0719_0A_x1140_0A_x0528_0A_x0310_0A

> <ROCS_TanimotoCombo>
0.461 

> <ROCS_ShapeTanimoto>
0.272 

> <ROCS_ColorTanimoto>
0.189 

> <ROCS_RefTversky>
0.246 

> <ROCS_RefColorTversky>
0.205 

> <ROCS_RefTverskyCombo>
0.451 

> <ROCS_FitTversky>
1.662 

> <ROCS_FitColorTversky>
0.703 

> <ROCS_FitTverskyCombo>
2.365 

> <ROCS_ColorScore>
-7.346

> <ROCS_Overlap>
2905.975

> <ROCS_Rank>
231                 

$$$$
untitled-dbase-445608_28
  -OEChem-02092406493D

 34 37  0     0  0  0  0  0  0999 V2000
   13.3216    9.5475   22.8885 C   0  0  0  0  0  0  0  0  0  0  0  0
   12.4433    8.5354   23.2782 C   0  0  0  0  0  0  0  0  0  0  0  0
   12.8996   10.8809   22.8487 C   0  0  0  0  0  0  0  0  0  0  0  0
   11.1307    8.8446   23.6267 C   0  0  0  0  0  0  0  0  0  0  0  0
   11.5895   11.2103   23.2068 C   0  0  0  0  0  0  0  0  0  0  0  0
    7.6408   11.8164   24.2106 C   0  0  0  0  0  0  0  0  0  0  0  0
   10.7176   10.1773   23.5830 C   0  0  0  0  0  0  0  0  0  0  0  0
    7.3735   10.4593   24.4598 C   0  0  0  0  0  0  0  0  0  0  0  0
    8.9699   11.8572   23.8477 C   0  0  0  0  0  0  0  0  0  0  0  0
   10.8759   15.0496   22.0600 C   0  0  0  0  0  0  0  0  0  0  0  0
   11.0249   12.5930   23.2053 C   0  0  0  0  0  0  0  0  0  0  0  0
    6.7639   12.9463   24.3002 C   0  0  0  0  0  0  0  0  0  0  0  0
    6.0996    9.8512   24.8829 C   0  0  0  0  0  0  0  0  0  0  0  0
   12.4615   16.9405   21.4749 C   0  0  0  0  0  0  0  0  0  0  0  0
    8.4416    9.6818   24.2735 N   0  0  0  0  0  0  0  0  0  0  0  0
    9.5841   14.8586   21.9221 N   0  0  0  0  0  0  0  0  0  0  0  0
    9.1027   15.9980   21.3180 N   0  0  0  0  0  0  0  0  0  0  0  0
   10.0799   16.8675   21.0922 N   0  0  0  0  0  0  0  0  0  0  0  0
    9.7905   12.8803   23.4988 N   0  0  0  0  0  0  0  0  0  0  0  0
    9.4042   10.5506   23.9003 N   0  0  0  0  0  0  0  0  0  0  0  0
   11.1874   16.2724   21.5568 N   0  0  0  0  0  0  0  0  0  0  0  0
    7.1115   14.1172   24.0541 O   0  0  0  0  0  0  0  0  0  0  0  0
   12.0691   13.9378   22.7744 S   0  0  0  0  0  0  0  0  0  0  0  0
   14.3432    9.2981   22.6142 H   0  0  0  0  0  0  0  0  0  0  0  0
   12.7846    7.5045   23.3052 H   0  0  0  0  0  0  0  0  0  0  0  0
   13.6203   11.6306   22.5391 H   0  0  0  0  0  0  0  0  0  0  0  0
   10.4601    8.0425   23.9193 H   0  0  0  0  0  0  0  0  0  0  0  0
    5.7001   12.7718   24.6103 H   0  0  0  0  0  0  0  0  0  0  0  0
    5.4883    9.5578   24.0127 H   0  0  0  0  0  0  0  0  0  0  0  0
    6.2540    8.9491   25.5009 H   0  0  0  0  0  0  0  0  0  0  0  0
    5.4940   10.5397   25.4986 H   0  0  0  0  0  0  0  0  0  0  0  0
   12.9232   16.6707   20.5214 H   0  0  0  0  0  0  0  0  0  0  0  0
   12.3101   18.0219   21.5339 H   0  0  0  0  0  0  0  0  0  0  0  0
   13.0914   16.6210   22.3099 H   0  0  0  0  0  0  0  0  0  0  0  0
  1  2  1  0  0  0  0
  1  3  2  0  0  0  0
  2  4  2  0  0  0  0
  3  5  1  0  0  0  0
  4  7  1  0  0  0  0
  5  7  2  0  0  0  0
  5 11  1  0  0  0  0
  6  8  1  0  0  0  0
  6  9  2  0  0  0  0
  6 12  1  0  0  0  0
  7 20  1  0  0  0  0
  8 13  1  0  0  0  0
  8 15  2  0  0  0  0
  9 19  1  0  0  0  0
  9 20  1  0  0  0  0
 10 16  2  0  0  0  0
 10 21  1  0  0  0  0
 10 23  1  0  0  0  0
 11 19  2  0  0  0  0
 11 23  1  0  0  0  0
 12 22  2  0  0  0  0
 14 21  1  0  0  0  0
 15 20  1  0  0  0  0
 16 17  1  0  0  0  0
 17 18  2  0  0  0  0
 18 21  1  0  0  0  0
  1 24  1  0  0  0  0
  2 25  1  0  0  0  0
  3 26  1  0  0  0  0
  4 27  1  0  0  0  0
 12 28  1  0  0  0  0
 13 29  1  0  0  0  0
 13 30  1  0  0  0  0
 13 31  1  0  0  0  0
 14 32  1  0  0  0  0
 14 33  1  0  0  0  0
 14 34  1  0  0  0  0
M  END
> <idnumber>
Z56780986

> <heavy_atoms>
23

> <LogS>
-4.58

> <LogP>
2.36

> <rotating_bonds>
3

> <PSA>
90.86

> <hb_acceptors>
6

> <hb_donors>
0

> <Collection>
Functional

> <link>
https://www.enaminestore.com/catalog/Z56780986

> <ROCS_ShapeQuery>
x0446_0A_x1080_0A_x0929_0A_x0812_0A_x0719_0A_x1140_0A_x0528_0A_x0310_0A

> <ROCS_TanimotoCombo>
0.461 

> <ROCS_ShapeTanimoto>
0.258 

> <ROCS_ColorTanimoto>
0.204 

> <ROCS_RefTversky>
0.233 

> <ROCS_RefColorTversky>
0.226 

> <ROCS_RefTverskyCombo>
0.459 

> <ROCS_FitTversky>
1.678 

> <ROCS_FitColorTversky>
0.674 

> <ROCS_FitTverskyCombo>
2.352 

> <ROCS_ColorScore>
-8.099

> <ROCS_Overlap>
2758.552

> <ROCS_Rank>
232                 

$$$$
untitled-dbase-412394_158
  -OEChem-02092406493D

 49 52  0     0  0  0  0  0  0999 V2000
   13.5763   14.6669   22.1595 C   0  0  0  0  0  0  0  0  0  0  0  0
   13.3363   14.0006   23.3612 C   0  0  0  0  0  0  0  0  0  0  0  0
   12.5084   15.1643   21.4125 C   0  0  0  0  0  0  0  0  0  0  0  0
   12.0285   13.8317   23.8159 C   0  0  0  0  0  0  0  0  0  0  0  0
    7.9601   12.5608   24.1860 C   0  0  0  0  0  0  0  0  0  0  0  0
   11.2006   14.9954   21.8671 C   0  0  0  0  0  0  0  0  0  0  0  0
    6.8479   13.3728   24.5730 C   0  0  0  0  0  0  0  0  0  0  0  0
   10.9606   14.3291   23.0689 C   0  0  0  0  0  0  0  0  0  0  0  0
    5.7643   12.6246   24.9792 C   0  0  0  0  0  0  0  0  0  0  0  0
    9.2425   12.8626   23.7166 C   0  0  0  0  0  0  0  0  0  0  0  0
    7.6580   11.2119   24.3208 C   0  0  0  0  0  0  0  0  0  0  0  0
    9.6809   10.6056   23.6015 C   0  0  0  0  0  0  0  0  0  0  0  0
   10.1004   15.5224   21.0719 C   0  0  0  0  0  0  0  0  0  0  0  0
   10.2188    8.0446   19.9546 C   0  0  0  0  0  0  0  0  0  0  0  0
   10.6199    6.8352   20.7938 C   0  0  0  0  0  0  0  0  0  0  0  0
   10.3390    9.2372   20.8920 C   0  0  0  0  0  0  0  0  0  0  0  0
   10.9545    7.3976   22.1674 C   0  0  0  0  0  0  0  0  0  0  0  0
    6.8496   14.8577   24.5442 C   0  0  0  0  0  0  0  0  0  0  0  0
    4.4393   13.0874   25.4500 C   0  0  0  0  0  0  0  0  0  0  0  0
   10.6701    9.5277   23.2642 C   0  0  0  0  0  0  0  0  0  0  0  0
   10.1095   11.8703   23.4224 N   0  0  0  0  0  0  0  0  0  0  0  0
    8.4825   10.1832   24.0425 N   0  0  0  0  0  0  0  0  0  0  0  0
   10.1702    8.6325   22.2143 N   0  0  0  0  0  0  0  0  0  0  0  0
   10.4164   16.1750   19.8849 N   0  0  0  0  0  0  0  0  0  0  0  0
    8.9207   15.4097   21.4457 O   0  0  0  0  0  0  0  0  0  0  0  0
    9.6751   14.1538   23.5361 O   0  0  0  0  0  0  0  0  0  0  0  0
    6.0766   10.9449   24.8971 S   0  0  0  0  0  0  0  0  0  0  0  0
   14.5949   14.7983   21.8056 H   0  0  0  0  0  0  0  0  0  0  0  0
   14.1681   13.6131   23.9420 H   0  0  0  0  0  0  0  0  0  0  0  0
   12.7074   15.6823   20.4777 H   0  0  0  0  0  0  0  0  0  0  0  0
   11.8485   13.3118   24.7529 H   0  0  0  0  0  0  0  0  0  0  0  0
   10.8609    8.1592   19.0754 H   0  0  0  0  0  0  0  0  0  0  0  0
    9.1866    7.9268   19.6038 H   0  0  0  0  0  0  0  0  0  0  0  0
    9.7815    6.1315   20.8546 H   0  0  0  0  0  0  0  0  0  0  0  0
   11.4731    6.3047   20.3588 H   0  0  0  0  0  0  0  0  0  0  0  0
   11.3288    9.6983   20.7794 H   0  0  0  0  0  0  0  0  0  0  0  0
    9.5755    9.9932   20.6833 H   0  0  0  0  0  0  0  0  0  0  0  0
   10.6782    6.7024   22.9665 H   0  0  0  0  0  0  0  0  0  0  0  0
   12.0319    7.5972   22.2340 H   0  0  0  0  0  0  0  0  0  0  0  0
    6.5003   15.2275   23.5700 H   0  0  0  0  0  0  0  0  0  0  0  0
    6.1979   15.2784   25.3242 H   0  0  0  0  0  0  0  0  0  0  0  0
    7.8556   15.2648   24.7248 H   0  0  0  0  0  0  0  0  0  0  0  0
    3.7377   13.1922   24.6083 H   0  0  0  0  0  0  0  0  0  0  0  0
    3.9953   12.3876   26.1760 H   0  0  0  0  0  0  0  0  0  0  0  0
    4.5036   14.0617   25.9607 H   0  0  0  0  0  0  0  0  0  0  0  0
   11.6124    9.9639   22.9151 H   0  0  0  0  0  0  0  0  0  0  0  0
   10.9005    8.9167   24.1433 H   0  0  0  0  0  0  0  0  0  0  0  0
   11.3889   16.2642   19.6110 H   0  0  0  0  0  0  0  0  0  0  0  0
    9.6943   16.5640   19.2871 H   0  0  0  0  0  0  0  0  0  0  0  0
  1  2  1  0  0  0  0
  1  3  2  0  0  0  0
  2  4  2  0  0  0  0
  3  6  1  0  0  0  0
  4  8  1  0  0  0  0
  5  7  1  0  0  0  0
  5 10  1  0  0  0  0
  5 11  2  0  0  0  0
  6  8  2  0  0  0  0
  6 13  1  0  0  0  0
  7  9  2  0  0  0  0
  7 18  1  0  0  0  0
  8 26  1  0  0  0  0
  9 19  1  0  0  0  0
  9 27  1  0  0  0  0
 10 21  2  0  0  0  0
 10 26  1  0  0  0  0
 11 22  1  0  0  0  0
 11 27  1  0  0  0  0
 12 20  1  0  0  0  0
 12 21  1  0  0  0  0
 12 22  2  0  0  0  0
 13 24  1  0  0  0  0
 13 25  2  0  0  0  0
 14 15  1  0  0  0  0
 14 16  1  0  0  0  0
 15 17  1  0  0  0  0
 16 23  1  0  0  0  0
 17 23  1  0  0  0  0
 20 23  1  0  0  0  0
  1 28  1  0  0  0  0
  2 29  1  0  0  0  0
  3 30  1  0  0  0  0
  4 31  1  0  0  0  0
 14 32  1  0  0  0  0
 14 33  1  0  0  0  0
 15 34  1  0  0  0  0
 15 35  1  0  0  0  0
 16 36  1  0  0  0  0
 16 37  1  0  0  0  0
 17 38  1  0  0  0  0
 17 39  1  0  0  0  0
 18 40  1  0  0  0  0
 18 41  1  0  0  0  0
 18 42  1  0  0  0  0
 19 43  1  0  0  0  0
 19 44  1  0  0  0  0
 19 45  1  0  0  0  0
 20 46  1  0  0  0  0
 20 47  1  0  0  0  0
 24 48  1  0  0  0  0
 24 49  1  0  0  0  0
M  END
> <idnumber>
Z52596195

> <heavy_atoms>
27

> <LogS>
-5.09

> <LogP>
2.843

> <rotating_bonds>
5

> <PSA>
81.34

> <hb_acceptors>
4

> <hb_donors>
1

> <Collection>
HTS

> <link>
https://www.enaminestore.com/catalog/Z52596195

> <ROCS_ShapeQuery>
x0446_0A_x1080_0A_x0929_0A_x0812_0A_x0719_0A_x1140_0A_x0528_0A_x0310_0A

> <ROCS_TanimotoCombo>
0.461 

> <ROCS_ShapeTanimoto>
0.272 

> <ROCS_ColorTanimoto>
0.189 

> <ROCS_RefTversky>
0.246 

> <ROCS_RefColorTversky>
0.210 

> <ROCS_RefTverskyCombo>
0.456 

> <ROCS_FitTversky>
1.628 

> <ROCS_FitColorTversky>
0.660 

> <ROCS_FitTverskyCombo>
2.288 

> <ROCS_ColorScore>
-7.511

> <ROCS_Overlap>
2912.438

> <ROCS_Rank>
233                 

$$$$
untitled-dbase-1011759_9
  -OEChem-02092406493D

 39 43  0     1  0  0  0  0  0999 V2000
   11.0215   12.6370   22.1853 C   0  0  0  0  0  0  0  0  0  0  0  0
    9.6722   16.1286   21.2013 C   0  0  0  0  0  0  0  0  0  0  0  0
   13.5232   14.9011   22.7451 C   0  0  0  0  0  0  0  0  0  0  0  0
   12.4279   15.3621   23.7428 C   0  0  0  0  0  0  0  0  0  0  0  0
   10.3513   10.6665   23.5848 C   0  0  0  0  0  0  0  0  0  0  0  0
   12.1044   15.6266   20.8174 C   0  0  0  0  0  0  0  0  0  0  0  0
    6.8697   11.4805   24.8464 C   0  0  0  0  0  0  0  0  0  0  0  0
   10.2936   12.2001   23.4287 C   0  0  2  0  0  0  0  0  0  0  0  0
   11.0342   16.1274   21.8243 C   0  0  2  0  0  0  0  0  0  0  0  0
    8.2030   10.7814   24.8379 C   0  0  2  0  0  0  0  0  0  0  0  0
    8.1430   12.2599   24.6501 C   0  0  1  0  0  0  0  0  0  0  0  0
   12.7004   14.4054   21.5418 C   0  0  2  0  0  0  0  0  0  0  0  0
   11.1280   15.0912   22.9641 C   0  0  1  0  0  0  0  0  0  0  0  0
    8.8606   10.3002   23.5637 C   0  0  1  0  0  0  0  0  0  0  0  0
    8.7853   12.4533   23.2937 C   0  0  2  0  0  0  0  0  0  0  0  0
   11.5271   13.9085   22.2220 N   0  0  0  0  0  0  0  0  0  0  0  0
   11.1334   11.8774   21.2228 O   0  0  0  0  0  0  0  0  0  0  0  0
    8.7245   15.4589   21.5847 O   0  0  0  0  0  0  0  0  0  0  0  0
    8.3918   11.2517   22.5768 O   0  0  0  0  0  0  0  0  0  0  0  0
    9.6298   16.9764   20.1447 O   0  0  0  0  0  0  0  0  0  0  0  0
   14.2060   15.7163   22.4859 H   0  0  0  0  0  0  0  0  0  0  0  0
   14.1067   14.0847   23.1854 H   0  0  0  0  0  0  0  0  0  0  0  0
   12.4734   14.7532   24.6530 H   0  0  0  0  0  0  0  0  0  0  0  0
   12.5478   16.4136   24.0217 H   0  0  0  0  0  0  0  0  0  0  0  0
   10.8762   10.1946   22.7465 H   0  0  0  0  0  0  0  0  0  0  0  0
   10.8389   10.3664   24.5177 H   0  0  0  0  0  0  0  0  0  0  0  0
   11.6556   15.3308   19.8619 H   0  0  0  0  0  0  0  0  0  0  0  0
   12.8590   16.3954   20.6205 H   0  0  0  0  0  0  0  0  0  0  0  0
    6.2034   11.3452   24.0039 H   0  0  0  0  0  0  0  0  0  0  0  0
    6.3621   11.5816   25.7984 H   0  0  0  0  0  0  0  0  0  0  0  0
   10.7419   12.7223   24.2771 H   0  0  0  0  0  0  0  0  0  0  0  0
   11.2523   17.1457   22.1633 H   0  0  0  0  0  0  0  0  0  0  0  0
    8.6030   10.3735   25.7533 H   0  0  0  0  0  0  0  0  0  0  0  0
    8.4978   12.9140   25.4316 H   0  0  0  0  0  0  0  0  0  0  0  0
   13.2089   13.6854   20.8980 H   0  0  0  0  0  0  0  0  0  0  0  0
   10.2349   14.9799   23.5810 H   0  0  0  0  0  0  0  0  0  0  0  0
    8.6315    9.2691   23.2875 H   0  0  0  0  0  0  0  0  0  0  0  0
    8.4816   13.3566   22.7596 H   0  0  0  0  0  0  0  0  0  0  0  0
    8.7451   16.9901   19.7211 H   0  0  0  0  0  0  0  0  0  0  0  0
  1  8  1  1  0  0  0
  1 16  1  0  0  0  0
  1 17  2  0  0  0  0
  2  9  1  1  0  0  0
  2 18  2  0  0  0  0
  2 20  1  0  0  0  0
  3  4  1  0  0  0  0
  3 12  1  0  0  0  0
  4 13  1  0  0  0  0
  5  8  1  0  0  0  0
  5 14  1  0  0  0  0
  6  9  1  0  0  0  0
  6 12  1  0  0  0  0
  7 10  1  1  0  0  0
  7 11  1  1  0  0  0
  8 15  1  0  0  0  0
  9 13  1  0  0  0  0
 10 11  1  0  0  0  0
 10 14  1  0  0  0  0
 11 15  1  0  0  0  0
 12 16  1  1  0  0  0
 13 16  1  1  0  0  0
 14 19  1  1  0  0  0
 15 19  1  1  0  0  0
  3 21  1  0  0  0  0
  3 22  1  0  0  0  0
  4 23  1  0  0  0  0
  4 24  1  0  0  0  0
  5 25  1  0  0  0  0
  5 26  1  0  0  0  0
  6 27  1  0  0  0  0
  6 28  1  0  0  0  0
  7 29  1  0  0  0  0
  7 30  1  0  0  0  0
  8 31  1  0  0  0  0
  9 32  1  0  0  0  0
 10 33  1  0  0  0  0
 11 34  1  0  0  0  0
 12 35  1  0  0  0  0
 13 36  1  0  0  0  0
 14 37  1  0  0  0  0
 15 38  1  0  0  0  0
 20 39  1  0  0  0  0
M  END
> <idnumber>
Z3173944731

> <heavy_atoms>
20

> <LogS>
-2.305

> <LogP>
-0.204

> <rotating_bonds>
2

> <PSA>
66.84

> <hb_acceptors>
4

> <hb_donors>
1

> <Collection>
Advanced

> <link>
https://www.enaminestore.com/catalog/Z3173944731

> <ROCS_ShapeQuery>
x0446_0A_x1080_0A_x0929_0A_x0812_0A_x0719_0A_x1140_0A_x0528_0A_x0310_0A

> <ROCS_TanimotoCombo>
0.461 

> <ROCS_ShapeTanimoto>
0.238 

> <ROCS_ColorTanimoto>
0.223 

> <ROCS_RefTversky>
0.217 

> <ROCS_RefColorTversky>
0.327 

> <ROCS_RefTverskyCombo>
0.544 

> <ROCS_FitTversky>
1.688 

> <ROCS_FitColorTversky>
0.414 

> <ROCS_FitTverskyCombo>
2.102 

> <ROCS_ColorScore>
-12.009

> <ROCS_Overlap>
2561.744

> <ROCS_Rank>
234                 

$$$$
untitled-dbase-432652_41
  -OEChem-02092406493D

 50 54  0     0  0  0  0  0  0999 V2000
    6.3265   13.5607   25.0055 C   0  0  0  0  0  0  0  0  0  0  0  0
    5.9689   12.2801   25.4210 C   0  0  0  0  0  0  0  0  0  0  0  0
   13.2991   12.4042   24.2108 C   0  0  0  0  0  0  0  0  0  0  0  0
   14.5176   13.0301   23.9638 C   0  0  0  0  0  0  0  0  0  0  0  0
    7.3898   13.7392   24.1188 C   0  0  0  0  0  0  0  0  0  0  0  0
    6.6693   11.1724   24.9454 C   0  0  0  0  0  0  0  0  0  0  0  0
   12.1217   12.9250   23.6730 C   0  0  0  0  0  0  0  0  0  0  0  0
   14.5654   14.1789   23.1735 C   0  0  0  0  0  0  0  0  0  0  0  0
    8.1037   12.6299   23.6516 C   0  0  0  0  0  0  0  0  0  0  0  0
    7.7352   11.3509   24.0556 C   0  0  0  0  0  0  0  0  0  0  0  0
   12.1633   14.0872   22.8912 C   0  0  0  0  0  0  0  0  0  0  0  0
   13.3916   14.7229   22.6324 C   0  0  0  0  0  0  0  0  0  0  0  0
    9.7261   14.0565   22.2779 C   0  0  0  0  0  0  0  0  0  0  0  0
   10.8391   15.8467   21.7406 C   0  0  0  0  0  0  0  0  0  0  0  0
    9.2382   12.7329   22.7144 C   0  0  0  0  0  0  0  0  0  0  0  0
    8.4641   10.1855   23.5242 C   0  0  0  0  0  0  0  0  0  0  0  0
   11.9119   16.8635   21.7173 C   0  0  0  0  0  0  0  0  0  0  0  0
   13.1433    8.8457   24.5984 C   0  0  0  0  0  0  0  0  0  0  0  0
   10.9526    7.6437   24.4659 C   0  0  0  0  0  0  0  0  0  0  0  0
   11.6555    9.2558   22.6154 C   0  0  0  0  0  0  0  0  0  0  0  0
   10.2577    9.3761   22.0129 C   0  0  0  0  0  0  0  0  0  0  0  0
   11.6905    8.9388   24.1238 C   0  0  0  0  0  0  0  0  0  0  0  0
    8.9022   14.8606   21.6455 N   0  0  0  0  0  0  0  0  0  0  0  0
    9.6042   15.9918   21.3064 N   0  0  0  0  0  0  0  0  0  0  0  0
    9.8586   11.7015   22.2335 N   0  0  0  0  0  0  0  0  0  0  0  0
   10.9749   14.6145   22.3416 N   0  0  0  0  0  0  0  0  0  0  0  0
    9.4830   10.4484   22.6153 N   0  0  0  0  0  0  0  0  0  0  0  0
    8.1376    9.0607   23.8973 O   0  0  0  0  0  0  0  0  0  0  0  0
   13.5625   16.1412   21.5520 S   0  0  0  0  0  0  0  0  0  0  0  0
    5.7765   14.4226   25.3726 H   0  0  0  0  0  0  0  0  0  0  0  0
    5.1412   12.1442   26.1110 H   0  0  0  0  0  0  0  0  0  0  0  0
   13.2650   11.5107   24.8279 H   0  0  0  0  0  0  0  0  0  0  0  0
   15.4326   12.6199   24.3811 H   0  0  0  0  0  0  0  0  0  0  0  0
    7.6437   14.7502   23.8138 H   0  0  0  0  0  0  0  0  0  0  0  0
    6.3667   10.1821   25.2748 H   0  0  0  0  0  0  0  0  0  0  0  0
   11.2093   12.4062   23.9333 H   0  0  0  0  0  0  0  0  0  0  0  0
   15.5338   14.6373   22.9832 H   0  0  0  0  0  0  0  0  0  0  0  0
   11.7562   17.5570   20.8849 H   0  0  0  0  0  0  0  0  0  0  0  0
   11.8780   17.4492   22.6422 H   0  0  0  0  0  0  0  0  0  0  0  0
   13.6788    8.0399   24.0848 H   0  0  0  0  0  0  0  0  0  0  0  0
   13.6760    9.7832   24.4073 H   0  0  0  0  0  0  0  0  0  0  0  0
   13.1896    8.6507   25.6751 H   0  0  0  0  0  0  0  0  0  0  0  0
   11.3868    6.7873   23.9417 H   0  0  0  0  0  0  0  0  0  0  0  0
    9.9006    7.7055   24.1667 H   0  0  0  0  0  0  0  0  0  0  0  0
   10.9859    7.4397   25.5414 H   0  0  0  0  0  0  0  0  0  0  0  0
   12.1926   10.1975   22.4408 H   0  0  0  0  0  0  0  0  0  0  0  0
   12.2029    8.4779   22.0679 H   0  0  0  0  0  0  0  0  0  0  0  0
   10.3352    9.6012   20.9442 H   0  0  0  0  0  0  0  0  0  0  0  0
    9.6871    8.4488   22.1134 H   0  0  0  0  0  0  0  0  0  0  0  0
   11.2152    9.7600   24.6743 H   0  0  0  0  0  0  0  0  0  0  0  0
  1  2  1  0  0  0  0
  1  5  2  0  0  0  0
  2  6  2  0  0  0  0
  3  4  1  0  0  0  0
  3  7  2  0  0  0  0
  4  8  2  0  0  0  0
  5  9  1  0  0  0  0
  6 10  1  0  0  0  0
  7 11  1  0  0  0  0
  8 12  1  0  0  0  0
  9 10  2  0  0  0  0
  9 15  1  0  0  0  0
 10 16  1  0  0  0  0
 11 12  2  0  0  0  0
 11 26  1  0  0  0  0
 12 29  1  0  0  0  0
 13 15  1  0  0  0  0
 13 23  2  0  0  0  0
 13 26  1  0  0  0  0
 14 17  1  0  0  0  0
 14 24  2  0  0  0  0
 14 26  1  0  0  0  0
 15 25  2  0  0  0  0
 16 27  1  0  0  0  0
 16 28  2  0  0  0  0
 17 29  1  0  0  0  0
 18 22  1  0  0  0  0
 19 22  1  0  0  0  0
 20 21  1  0  0  0  0
 20 22  1  0  0  0  0
 21 27  1  0  0  0  0
 23 24  1  0  0  0  0
 25 27  1  0  0  0  0
  1 30  1  0  0  0  0
  2 31  1  0  0  0  0
  3 32  1  0  0  0  0
  4 33  1  0  0  0  0
  5 34  1  0  0  0  0
  6 35  1  0  0  0  0
  7 36  1  0  0  0  0
  8 37  1  0  0  0  0
 17 38  1  0  0  0  0
 17 39  1  0  0  0  0
 18 40  1  0  0  0  0
 18 41  1  0  0  0  0
 18 42  1  0  0  0  0
 19 43  1  0  0  0  0
 19 44  1  0  0  0  0
 19 45  1  0  0  0  0
 20 46  1  0  0  0  0
 20 47  1  0  0  0  0
 21 48  1  0  0  0  0
 21 49  1  0  0  0  0
 22 50  1  0  0  0  0
M  END
> <idnumber>
Z55915313

> <heavy_atoms>
29

> <LogS>
-6.55

> <LogP>
3.962

> <rotating_bonds>
4

> <PSA>
63.38

> <hb_acceptors>
4

> <hb_donors>
0

> <Collection>
Legacy

> <link>
https://www.enaminestore.com/catalog/Z55915313

> <ROCS_ShapeQuery>
x0446_0A_x1080_0A_x0929_0A_x0812_0A_x0719_0A_x1140_0A_x0528_0A_x0310_0A

> <ROCS_TanimotoCombo>
0.461 

> <ROCS_ShapeTanimoto>
0.282 

> <ROCS_ColorTanimoto>
0.180 

> <ROCS_RefTversky>
0.255 

> <ROCS_RefColorTversky>
0.202 

> <ROCS_RefTverskyCombo>
0.457 

> <ROCS_FitTversky>
1.592 

> <ROCS_FitColorTversky>
0.620 

> <ROCS_FitTverskyCombo>
2.212 

> <ROCS_ColorScore>
-7.235

> <ROCS_Overlap>
3016.299

> <ROCS_Rank>
235                 

$$$$
untitled-dbase-324482_10
  -OEChem-02092406493D

 40 43  0     0  0  0  0  0  0999 V2000
   12.6416    7.5394   23.1519 C   0  0  0  0  0  0  0  0  0  0  0  0
   13.0075    8.7191   23.8000 C   0  0  0  0  0  0  0  0  0  0  0  0
   11.3350    7.3721   22.6930 C   0  0  0  0  0  0  0  0  0  0  0  0
   13.0985   14.6292   22.3179 C   0  0  0  0  0  0  0  0  0  0  0  0
   12.6885   15.1636   21.1002 C   0  0  0  0  0  0  0  0  0  0  0  0
   12.0668    9.7315   23.9893 C   0  0  0  0  0  0  0  0  0  0  0  0
   10.3943    8.3844   22.8823 C   0  0  0  0  0  0  0  0  0  0  0  0
   12.1521   14.2886   23.2797 C   0  0  0  0  0  0  0  0  0  0  0  0
   11.3317   15.3455   20.8731 C   0  0  0  0  0  0  0  0  0  0  0  0
    8.0294   12.5866   24.0801 C   0  0  0  0  0  0  0  0  0  0  0  0
   10.7602    9.5642   23.5305 C   0  0  0  0  0  0  0  0  0  0  0  0
    6.8792   13.4133   24.2795 C   0  0  0  0  0  0  0  0  0  0  0  0
    5.7142   12.6831   24.3716 C   0  0  0  0  0  0  0  0  0  0  0  0
    9.3913   12.8685   23.9326 C   0  0  0  0  0  0  0  0  0  0  0  0
    7.6718   11.2456   24.0301 C   0  0  0  0  0  0  0  0  0  0  0  0
   10.8089   14.4928   22.9974 C   0  0  0  0  0  0  0  0  0  0  0  0
    9.7886   10.6104   23.7261 C   0  0  0  0  0  0  0  0  0  0  0  0
    6.9244   14.8946   24.3784 C   0  0  0  0  0  0  0  0  0  0  0  0
    4.3299   13.1640   24.5799 C   0  0  0  0  0  0  0  0  0  0  0  0
   10.2775   11.8657   23.7539 N   0  0  0  0  0  0  0  0  0  0  0  0
    8.5120   10.2070   23.8543 N   0  0  0  0  0  0  0  0  0  0  0  0
   10.4417   15.0089   21.8166 N   0  3  0  0  0  0  0  0  0  0  0  0
    9.1916   15.1903   21.5730 O   0  5  0  0  0  0  0  0  0  0  0  0
    9.8849   14.1501   23.9621 O   0  0  0  0  0  0  0  0  0  0  0  0
    5.9955   11.0029   24.2183 S   0  0  0  0  0  0  0  0  0  0  0  0
   13.3747    6.7520   23.0031 H   0  0  0  0  0  0  0  0  0  0  0  0
   14.0252    8.8503   24.1558 H   0  0  0  0  0  0  0  0  0  0  0  0
   11.0498    6.4544   22.1871 H   0  0  0  0  0  0  0  0  0  0  0  0
   14.1552   14.4779   22.5170 H   0  0  0  0  0  0  0  0  0  0  0  0
   13.4161   15.4330   20.3421 H   0  0  0  0  0  0  0  0  0  0  0  0
   12.3676   10.6454   24.4962 H   0  0  0  0  0  0  0  0  0  0  0  0
    9.3798    8.2400   22.5187 H   0  0  0  0  0  0  0  0  0  0  0  0
   12.4671   13.8717   24.2310 H   0  0  0  0  0  0  0  0  0  0  0  0
   10.9295   15.7531   19.9577 H   0  0  0  0  0  0  0  0  0  0  0  0
    6.8113   15.3534   23.3861 H   0  0  0  0  0  0  0  0  0  0  0  0
    6.1255   15.2813   25.0280 H   0  0  0  0  0  0  0  0  0  0  0  0
    7.8744   15.2424   24.8107 H   0  0  0  0  0  0  0  0  0  0  0  0
    3.8350   13.3664   23.6177 H   0  0  0  0  0  0  0  0  0  0  0  0
    3.7186   12.4284   25.1269 H   0  0  0  0  0  0  0  0  0  0  0  0
    4.3035   14.0906   25.1758 H   0  0  0  0  0  0  0  0  0  0  0  0
  1  2  1  0  0  0  0
  1  3  2  0  0  0  0
  2  6  2  0  0  0  0
  3  7  1  0  0  0  0
  4  5  1  0  0  0  0
  4  8  2  0  0  0  0
  5  9  2  0  0  0  0
  6 11  1  0  0  0  0
  7 11  2  0  0  0  0
  8 16  1  0  0  0  0
  9 22  1  0  0  0  0
 10 12  1  0  0  0  0
 10 14  1  0  0  0  0
 10 15  2  0  0  0  0
 11 17  1  0  0  0  0
 12 13  2  0  0  0  0
 12 18  1  0  0  0  0
 13 19  1  0  0  0  0
 13 25  1  0  0  0  0
 14 20  2  0  0  0  0
 14 24  1  0  0  0  0
 15 21  1  0  0  0  0
 15 25  1  0  0  0  0
 16 22  2  0  0  0  0
 16 24  1  0  0  0  0
 17 20  1  0  0  0  0
 17 21  2  0  0  0  0
 22 23  1  0  0  0  0
  1 26  1  0  0  0  0
  2 27  1  0  0  0  0
  3 28  1  0  0  0  0
  4 29  1  0  0  0  0
  5 30  1  0  0  0  0
  6 31  1  0  0  0  0
  7 32  1  0  0  0  0
  8 33  1  0  0  0  0
  9 34  1  0  0  0  0
 18 35  1  0  0  0  0
 18 36  1  0  0  0  0
 18 37  1  0  0  0  0
 19 38  1  0  0  0  0
 19 39  1  0  0  0  0
 19 40  1  0  0  0  0
M  CHG  2  22   1  23  -1
M  END
> <idnumber>
Z31168698

> <heavy_atoms>
25

> <LogS>
-7.24

> <LogP>
2.653

> <rotating_bonds>
3

> <PSA>
61.95

> <hb_acceptors>
3

> <hb_donors>
0

> <Collection>
HTS

> <link>
https://www.enaminestore.com/catalog/Z31168698

> <ROCS_ShapeQuery>
x0446_0A_x1080_0A_x0929_0A_x0812_0A_x0719_0A_x1140_0A_x0528_0A_x0310_0A

> <ROCS_TanimotoCombo>
0.461 

> <ROCS_ShapeTanimoto>
0.258 

> <ROCS_ColorTanimoto>
0.203 

> <ROCS_RefTversky>
0.235 

> <ROCS_RefColorTversky>
0.218 

> <ROCS_RefTverskyCombo>
0.453 

> <ROCS_FitTversky>
1.609 

> <ROCS_FitColorTversky>
0.747 

> <ROCS_FitTverskyCombo>
2.356 

> <ROCS_ColorScore>
-7.801

> <ROCS_Overlap>
2780.235

> <ROCS_Rank>
236                 

$$$$
untitled-dbase-1070040_28
  -OEChem-02092406493D

 51 56  0     0  0  0  0  0  0999 V2000
   14.9551   11.5833   22.7690 C   0  0  0  0  0  0  0  0  0  0  0  0
   13.9980   12.5531   23.1859 C   0  0  0  0  0  0  0  0  0  0  0  0
   14.9437   11.3985   21.4040 C   0  0  0  0  0  0  0  0  0  0  0  0
   13.2917   13.0728   22.1233 C   0  0  0  0  0  0  0  0  0  0  0  0
   11.0459   13.5557   23.1743 C   0  0  0  0  0  0  0  0  0  0  0  0
   10.4683   17.7237   20.8663 C   0  0  0  0  0  0  0  0  0  0  0  0
   10.3328   16.7663   22.0779 C   0  0  0  0  0  0  0  0  0  0  0  0
   11.9849   17.4033   20.8466 C   0  0  0  0  0  0  0  0  0  0  0  0
   11.6123   14.8299   20.9208 C   0  0  0  0  0  0  0  0  0  0  0  0
   12.6032   15.6386   22.6677 C   0  0  0  0  0  0  0  0  0  0  0  0
    8.0957   12.3634   23.6653 C   0  0  0  0  0  0  0  0  0  0  0  0
    9.5410   11.5056   24.9156 C   0  0  0  0  0  0  0  0  0  0  0  0
   10.1311    9.2575   22.6687 C   0  0  0  0  0  0  0  0  0  0  0  0
    8.7050   10.1037   21.4344 C   0  0  0  0  0  0  0  0  0  0  0  0
   12.1470   14.1809   22.2597 C   0  0  0  0  0  0  0  0  0  0  0  0
   11.6471   16.1611   21.6320 C   0  0  0  0  0  0  0  0  0  0  0  0
    9.4571   11.6518   23.3582 C   0  0  0  0  0  0  0  0  0  0  0  0
    8.9985   10.2412   22.9207 C   0  0  0  0  0  0  0  0  0  0  0  0
    8.0206   11.1250   24.6572 C   0  0  0  0  0  0  0  0  0  0  0  0
    7.0391   11.1278   25.7932 C   0  0  0  0  0  0  0  0  0  0  0  0
   10.4834   12.3888   22.6774 N   0  0  0  0  0  0  0  0  0  0  0  0
   10.7549   14.1041   24.2308 O   0  0  0  0  0  0  0  0  0  0  0  0
    9.8681    9.2610   21.2440 O   0  0  0  0  0  0  0  0  0  0  0  0
    7.9635    9.8844   23.8720 O   0  0  0  0  0  0  0  0  0  0  0  0
    5.8084   11.6951   25.3562 O   0  0  0  0  0  0  0  0  0  0  0  0
   13.7827   12.3919   20.6309 S   0  0  0  0  0  0  0  0  0  0  0  0
   15.6180   11.0486   23.4367 H   0  0  0  0  0  0  0  0  0  0  0  0
   13.8401   12.8509   24.2148 H   0  0  0  0  0  0  0  0  0  0  0  0
   15.5614   10.7273   20.8236 H   0  0  0  0  0  0  0  0  0  0  0  0
    9.9360   17.3780   19.9726 H   0  0  0  0  0  0  0  0  0  0  0  0
   10.2072   18.7679   21.0561 H   0  0  0  0  0  0  0  0  0  0  0  0
   10.3752   17.2834   23.0433 H   0  0  0  0  0  0  0  0  0  0  0  0
    9.4533   16.1170   22.0639 H   0  0  0  0  0  0  0  0  0  0  0  0
   12.4200   17.2602   19.8539 H   0  0  0  0  0  0  0  0  0  0  0  0
   12.5890   18.1340   21.3969 H   0  0  0  0  0  0  0  0  0  0  0  0
   12.2808   14.7678   20.0504 H   0  0  0  0  0  0  0  0  0  0  0  0
   10.6216   14.4782   20.6081 H   0  0  0  0  0  0  0  0  0  0  0  0
   12.3791   15.9120   23.7058 H   0  0  0  0  0  0  0  0  0  0  0  0
   13.6550   15.8927   22.4724 H   0  0  0  0  0  0  0  0  0  0  0  0
    8.1455   13.3593   24.1199 H   0  0  0  0  0  0  0  0  0  0  0  0
    7.3557   12.3719   22.8596 H   0  0  0  0  0  0  0  0  0  0  0  0
   10.1737   10.6991   25.2977 H   0  0  0  0  0  0  0  0  0  0  0  0
    9.7319   12.4178   25.4922 H   0  0  0  0  0  0  0  0  0  0  0  0
   11.1454    9.6009   22.8913 H   0  0  0  0  0  0  0  0  0  0  0  0
    9.9871    8.2595   23.0943 H   0  0  0  0  0  0  0  0  0  0  0  0
    7.7836    9.5673   21.1870 H   0  0  0  0  0  0  0  0  0  0  0  0
    8.7648   11.0138   20.8308 H   0  0  0  0  0  0  0  0  0  0  0  0
    7.4118   11.7236   26.6375 H   0  0  0  0  0  0  0  0  0  0  0  0
    6.8406   10.1073   26.1482 H   0  0  0  0  0  0  0  0  0  0  0  0
   10.8172   12.0357   21.7802 H   0  0  0  0  0  0  0  0  0  0  0  0
    5.2081   11.6764   26.1181 H   0  0  0  0  0  0  0  0  0  0  0  0
  1  2  1  0  0  0  0
  1  3  2  0  0  0  0
  2  4  2  0  0  0  0
  3 26  1  0  0  0  0
  4 15  1  0  0  0  0
  4 26  1  0  0  0  0
  5 15  1  0  0  0  0
  5 21  1  0  0  0  0
  5 22  2  0  0  0  0
  6  7  1  0  0  0  0
  6  8  1  0  0  0  0
  7 16  1  0  0  0  0
  8 16  1  0  0  0  0
  9 15  1  0  0  0  0
  9 16  1  0  0  0  0
 10 15  1  0  0  0  0
 10 16  1  0  0  0  0
 11 17  1  0  0  0  0
 11 19  1  0  0  0  0
 12 17  1  0  0  0  0
 12 19  1  0  0  0  0
 13 18  1  0  0  0  0
 13 23  1  0  0  0  0
 14 18  1  0  0  0  0
 14 23  1  0  0  0  0
 17 18  1  0  0  0  0
 17 21  1  0  0  0  0
 18 24  1  0  0  0  0
 19 20  1  0  0  0  0
 19 24  1  0  0  0  0
 20 25  1  0  0  0  0
  1 27  1  0  0  0  0
  2 28  1  0  0  0  0
  3 29  1  0  0  0  0
  6 30  1  0  0  0  0
  6 31  1  0  0  0  0
  7 32  1  0  0  0  0
  7 33  1  0  0  0  0
  8 34  1  0  0  0  0
  8 35  1  0  0  0  0
  9 36  1  0  0  0  0
  9 37  1  0  0  0  0
 10 38  1  0  0  0  0
 10 39  1  0  0  0  0
 11 40  1  0  0  0  0
 11 41  1  0  0  0  0
 12 42  1  0  0  0  0
 12 43  1  0  0  0  0
 13 44  1  0  0  0  0
 13 45  1  0  0  0  0
 14 46  1  0  0  0  0
 14 47  1  0  0  0  0
 20 48  1  0  0  0  0
 20 49  1  0  0  0  0
 21 50  1  0  0  0  0
 25 51  1  0  0  0  0
M  END
> <idnumber>
Z4091848464

> <heavy_atoms>
26

> <LogS>
-4.759

> <LogP>
1.524

> <rotating_bonds>
4

> <PSA>
67.79

> <hb_acceptors>
4

> <hb_donors>
2

> <Collection>
Premium

> <link>
https://www.enaminestore.com/catalog/Z4091848464

> <ROCS_ShapeQuery>
x0446_0A_x1080_0A_x0929_0A_x0812_0A_x0719_0A_x1140_0A_x0528_0A_x0310_0A

> <ROCS_TanimotoCombo>
0.461 

> <ROCS_ShapeTanimoto>
0.252 

> <ROCS_ColorTanimoto>
0.209 

> <ROCS_RefTversky>
0.231 

> <ROCS_RefColorTversky>
0.258 

> <ROCS_RefTverskyCombo>
0.489 

> <ROCS_FitTversky>
1.571 

> <ROCS_FitColorTversky>
0.523 

> <ROCS_FitTverskyCombo>
2.094 

> <ROCS_ColorScore>
-9.325

> <ROCS_Overlap>
2734.047

> <ROCS_Rank>
237                 

$$$$
untitled-dbase-583662_97
  -OEChem-02092406493D

 50 54  0     1  0  0  0  0  0999 V2000
    5.7267   13.0734   25.1047 C   0  0  0  0  0  0  0  0  0  0  0  0
    5.2976   11.7549   25.1101 C   0  0  0  0  0  0  0  0  0  0  0  0
    5.0797   15.4237   21.8526 C   0  0  0  0  0  0  0  0  0  0  0  0
    7.0345   13.3663   24.7229 C   0  0  0  0  0  0  0  0  0  0  0  0
    6.1825   10.7451   24.7367 C   0  0  0  0  0  0  0  0  0  0  0  0
    6.4333   15.0167   21.6730 C   0  0  0  0  0  0  0  0  0  0  0  0
    4.9646   16.7887   21.9974 C   0  0  0  0  0  0  0  0  0  0  0  0
    7.9207   12.3585   24.3468 C   0  0  0  0  0  0  0  0  0  0  0  0
    7.4918   11.0347   24.3568 C   0  0  0  0  0  0  0  0  0  0  0  0
    7.3013   16.0865   21.6871 C   0  0  0  0  0  0  0  0  0  0  0  0
   10.0223   11.6674   23.5833 C   0  0  0  0  0  0  0  0  0  0  0  0
    9.6249   10.3277   23.6638 C   0  0  0  0  0  0  0  0  0  0  0  0
    8.7615   15.9746   21.5257 C   0  0  0  0  0  0  0  0  0  0  0  0
   10.6361   15.1437   21.2519 C   0  0  0  0  0  0  0  0  0  0  0  0
   11.8282   13.3406   23.3807 C   0  0  0  0  0  0  0  0  0  0  0  0
   12.6997   10.0405   22.7582 C   0  0  0  0  0  0  0  0  0  0  0  0
   11.9482   11.1750   22.0768 C   0  0  0  0  0  0  0  0  0  0  0  0
   11.8897    9.3842   23.8657 C   0  0  0  0  0  0  0  0  0  0  0  0
    9.9309    7.9113   23.3715 C   0  0  0  0  0  0  0  0  0  0  0  0
   11.8700   14.2999   21.0428 C   0  0  0  0  0  0  0  0  0  0  0  0
   12.6548   14.0340   22.3231 C   0  0  0  0  0  0  0  0  0  0  0  0
    9.1694   12.6536   23.9653 N   0  0  0  0  0  0  0  0  0  0  0  0
    8.3388   10.0531   24.0169 N   0  0  0  0  0  0  0  0  0  0  0  0
    9.3838   14.7738   21.3451 N   0  0  0  0  0  0  0  0  0  0  0  0
    9.5603   17.0457   21.5467 N   0  0  0  0  0  0  0  0  0  0  0  0
   11.3012   12.0820   23.0386 N   0  0  0  0  0  0  0  0  0  0  0  0
   10.4916    9.2509   23.4691 N   0  0  1  0  0  0  0  0  0  0  0  0
   11.6861   13.9003   24.4715 O   0  0  0  0  0  0  0  0  0  0  0  0
   10.8300   16.4842   21.3616 O   0  0  0  0  0  0  0  0  0  0  0  0
    6.4843   17.5738   21.9166 S   0  0  0  0  0  0  0  0  0  0  0  0
    5.0501   13.8716   25.3937 H   0  0  0  0  0  0  0  0  0  0  0  0
    4.2819   11.5098   25.4048 H   0  0  0  0  0  0  0  0  0  0  0  0
    4.2335   14.7493   21.8737 H   0  0  0  0  0  0  0  0  0  0  0  0
    7.3595   14.4047   24.7165 H   0  0  0  0  0  0  0  0  0  0  0  0
    5.8369    9.7134   24.7475 H   0  0  0  0  0  0  0  0  0  0  0  0
    6.7460   13.9881   21.5406 H   0  0  0  0  0  0  0  0  0  0  0  0
    4.0610   17.3628   22.1462 H   0  0  0  0  0  0  0  0  0  0  0  0
   12.9631    9.2914   22.0014 H   0  0  0  0  0  0  0  0  0  0  0  0
   13.6437   10.4100   23.1756 H   0  0  0  0  0  0  0  0  0  0  0  0
   12.6366   11.7175   21.4239 H   0  0  0  0  0  0  0  0  0  0  0  0
   11.1761   10.7832   21.4012 H   0  0  0  0  0  0  0  0  0  0  0  0
   12.3296    8.4041   24.0887 H   0  0  0  0  0  0  0  0  0  0  0  0
   11.9714    9.9579   24.7985 H   0  0  0  0  0  0  0  0  0  0  0  0
   10.7421    7.1839   23.2201 H   0  0  0  0  0  0  0  0  0  0  0  0
    9.3916    7.6711   24.2996 H   0  0  0  0  0  0  0  0  0  0  0  0
    9.2349    7.8664   22.5209 H   0  0  0  0  0  0  0  0  0  0  0  0
   12.5161   14.7607   20.2842 H   0  0  0  0  0  0  0  0  0  0  0  0
   11.5589   13.3360   20.6193 H   0  0  0  0  0  0  0  0  0  0  0  0
   13.5362   13.4224   22.1274 H   0  0  0  0  0  0  0  0  0  0  0  0
   12.9932   14.9792   22.7492 H   0  0  0  0  0  0  0  0  0  0  0  0
  1  2  1  0  0  0  0
  1  4  2  0  0  0  0
  2  5  2  0  0  0  0
  3  6  1  0  0  0  0
  3  7  2  0  0  0  0
  4  8  1  0  0  0  0
  5  9  1  0  0  0  0
  6 10  2  0  0  0  0
  7 30  1  0  0  0  0
  8  9  1  0  0  0  0
  8 22  2  0  0  0  0
  9 23  2  0  0  0  0
 10 13  1  0  0  0  0
 10 30  1  0  0  0  0
 11 12  2  0  0  0  0
 11 22  1  0  0  0  0
 11 26  1  0  0  0  0
 12 23  1  0  0  0  0
 12 27  1  0  0  0  0
 13 24  1  0  0  0  0
 13 25  2  0  0  0  0
 14 20  1  0  0  0  0
 14 24  2  0  0  0  0
 14 29  1  0  0  0  0
 15 21  1  0  0  0  0
 15 26  1  0  0  0  0
 15 28  2  0  0  0  0
 16 17  1  0  0  0  0
 16 18  1  0  0  0  0
 17 26  1  0  0  0  0
 18 27  1  0  0  0  0
 19 27  1  0  0  0  0
 20 21  1  0  0  0  0
 25 29  1  0  0  0  0
  1 31  1  0  0  0  0
  2 32  1  0  0  0  0
  3 33  1  0  0  0  0
  4 34  1  0  0  0  0
  5 35  1  0  0  0  0
  6 36  1  0  0  0  0
  7 37  1  0  0  0  0
 16 38  1  0  0  0  0
 16 39  1  0  0  0  0
 17 40  1  0  0  0  0
 17 41  1  0  0  0  0
 18 42  1  0  0  0  0
 18 43  1  0  0  0  0
 19 44  1  0  0  0  0
 19 45  1  0  0  0  0
 19 46  1  0  0  0  0
 20 47  1  0  0  0  0
 20 48  1  0  0  0  0
 21 49  1  0  0  0  0
 21 50  1  0  0  0  0
M  END
> <idnumber>
Z109159416

> <heavy_atoms>
30

> <LogS>
-4.52

> <LogP>
2.912

> <rotating_bonds>
4

> <PSA>
88.25

> <hb_acceptors>
6

> <hb_donors>
0

> <Collection>
Legacy

> <link>
https://www.enaminestore.com/catalog/Z109159416

> <ROCS_ShapeQuery>
x0446_0A_x1080_0A_x0929_0A_x0812_0A_x0719_0A_x1140_0A_x0528_0A_x0310_0A

> <ROCS_TanimotoCombo>
0.461 

> <ROCS_ShapeTanimoto>
0.287 

> <ROCS_ColorTanimoto>
0.174 

> <ROCS_RefTversky>
0.260 

> <ROCS_RefColorTversky>
0.195 

> <ROCS_RefTverskyCombo>
0.455 

> <ROCS_FitTversky>
1.583 

> <ROCS_FitColorTversky>
0.614 

> <ROCS_FitTverskyCombo>
2.197 

> <ROCS_ColorScore>
-6.988

> <ROCS_Overlap>
3075.749

> <ROCS_Rank>
238                 

$$$$
untitled-dbase-964074_41
  -OEChem-02092406493D

 42 44  0     0  0  0  0  0  0999 V2000
   11.7931   16.0071   21.0176 C   0  0  0  0  0  0  0  0  0  0  0  0
   13.0405   15.4614   21.3205 C   0  0  0  0  0  0  0  0  0  0  0  0
   10.7396   14.4304   22.5146 C   0  0  0  0  0  0  0  0  0  0  0  0
    5.9949   11.2769   24.6024 C   0  0  0  0  0  0  0  0  0  0  0  0
    7.2934   11.0635   24.1214 C   0  0  0  0  0  0  0  0  0  0  0  0
   11.9870   13.8846   22.8175 C   0  0  0  0  0  0  0  0  0  0  0  0
   10.6427   15.4917   21.6147 C   0  0  0  0  0  0  0  0  0  0  0  0
   13.1375   14.4001   22.2205 C   0  0  0  0  0  0  0  0  0  0  0  0
    8.0184   12.1476   24.5522 C   0  0  0  0  0  0  0  0  0  0  0  0
    7.9529   10.0461   23.3488 C   0  0  0  0  0  0  0  0  0  0  0  0
    9.9535   11.5123   23.6509 C   0  0  0  0  0  0  0  0  0  0  0  0
    7.9274   15.2108   24.8594 C   0  0  0  0  0  0  0  0  0  0  0  0
    8.5016   13.9781   26.9878 C   0  0  0  0  0  0  0  0  0  0  0  0
    6.1968   14.8181   26.5982 C   0  0  0  0  0  0  0  0  0  0  0  0
   12.0490   12.7435   23.7914 C   0  0  0  0  0  0  0  0  0  0  0  0
    7.4250   14.1844   25.8990 C   0  0  0  0  0  0  0  0  0  0  0  0
    5.8954   12.4196   25.2934 N   0  0  0  0  0  0  0  0  0  0  0  0
    9.3269   12.4284   24.3555 N   0  0  0  0  0  0  0  0  0  0  0  0
    7.1442   12.9275   25.2463 N   0  0  0  0  0  0  0  0  0  0  0  0
    9.3058   10.3570   23.1576 N   0  0  0  0  0  0  0  0  0  0  0  0
   11.2856   11.6147   23.3448 N   0  0  0  0  0  0  0  0  0  0  0  0
    7.3920    9.0445   22.9214 O   0  0  0  0  0  0  0  0  0  0  0  0
    9.4258   16.0249   21.3191 O   0  0  0  0  0  0  0  0  0  0  0  0
   14.6983   13.7539   22.5746 Cl  0  0  0  0  0  0  0  0  0  0  0  0
   11.7239   16.8343   20.3164 H   0  0  0  0  0  0  0  0  0  0  0  0
   13.9271   15.8754   20.8469 H   0  0  0  0  0  0  0  0  0  0  0  0
    9.8401   14.0302   22.9764 H   0  0  0  0  0  0  0  0  0  0  0  0
    5.1158   10.6597   24.4852 H   0  0  0  0  0  0  0  0  0  0  0  0
    7.1807   15.3758   24.0740 H   0  0  0  0  0  0  0  0  0  0  0  0
    8.1391   16.1870   25.3086 H   0  0  0  0  0  0  0  0  0  0  0  0
    8.8490   14.8632   24.3782 H   0  0  0  0  0  0  0  0  0  0  0  0
    8.1887   13.2561   27.7494 H   0  0  0  0  0  0  0  0  0  0  0  0
    9.4350   13.6005   26.5545 H   0  0  0  0  0  0  0  0  0  0  0  0
    8.7270   14.9205   27.5005 H   0  0  0  0  0  0  0  0  0  0  0  0
    5.7826   14.1417   27.3558 H   0  0  0  0  0  0  0  0  0  0  0  0
    6.4603   15.7500   27.1117 H   0  0  0  0  0  0  0  0  0  0  0  0
    5.3920   15.0318   25.8853 H   0  0  0  0  0  0  0  0  0  0  0  0
   13.0840   12.4149   23.9358 H   0  0  0  0  0  0  0  0  0  0  0  0
   11.6629   13.0422   24.7717 H   0  0  0  0  0  0  0  0  0  0  0  0
    9.8651    9.6993   22.6221 H   0  0  0  0  0  0  0  0  0  0  0  0
   11.6745   10.8784   22.8107 H   0  0  0  0  0  0  0  0  0  0  0  0
    8.7278   15.5627   21.8099 H   0  0  0  0  0  0  0  0  0  0  0  0
  1  2  2  0  0  0  0
  1  7  1  0  0  0  0
  2  8  1  0  0  0  0
  3  6  1  0  0  0  0
  3  7  2  0  0  0  0
  4  5  1  0  0  0  0
  4 17  2  0  0  0  0
  5  9  2  0  0  0  0
  5 10  1  0  0  0  0
  6  8  2  0  0  0  0
  6 15  1  0  0  0  0
  7 23  1  0  0  0  0
  8 24  1  0  0  0  0
  9 18  1  0  0  0  0
  9 19  1  0  0  0  0
 10 20  1  0  0  0  0
 10 22  2  0  0  0  0
 11 18  2  0  0  0  0
 11 20  1  0  0  0  0
 11 21  1  0  0  0  0
 12 16  1  0  0  0  0
 13 16  1  0  0  0  0
 14 16  1  0  0  0  0
 15 21  1  0  0  0  0
 16 19  1  0  0  0  0
 17 19  1  0  0  0  0
  1 25  1  0  0  0  0
  2 26  1  0  0  0  0
  3 27  1  0  0  0  0
  4 28  1  0  0  0  0
 12 29  1  0  0  0  0
 12 30  1  0  0  0  0
 12 31  1  0  0  0  0
 13 32  1  0  0  0  0
 13 33  1  0  0  0  0
 13 34  1  0  0  0  0
 14 35  1  0  0  0  0
 14 36  1  0  0  0  0
 14 37  1  0  0  0  0
 15 38  1  0  0  0  0
 15 39  1  0  0  0  0
 20 40  1  0  0  0  0
 21 41  1  0  0  0  0
 23 42  1  0  0  0  0
M  END
> <idnumber>
Z2852388842

> <heavy_atoms>
24

> <LogS>
-3.952

> <LogP>
2.451

> <rotating_bonds>
4

> <PSA>
91.54

> <hb_acceptors>
5

> <hb_donors>
3

> <Collection>
HTS

> <link>
https://www.enaminestore.com/catalog/Z2852388842

> <ROCS_ShapeQuery>
x0446_0A_x1080_0A_x0929_0A_x0812_0A_x0719_0A_x1140_0A_x0528_0A_x0310_0A

> <ROCS_TanimotoCombo>
0.461 

> <ROCS_ShapeTanimoto>
0.250 

> <ROCS_ColorTanimoto>
0.212 

> <ROCS_RefTversky>
0.228 

> <ROCS_RefColorTversky>
0.235 

> <ROCS_RefTverskyCombo>
0.463 

> <ROCS_FitTversky>
1.620 

> <ROCS_FitColorTversky>
0.682 

> <ROCS_FitTverskyCombo>
2.302 

> <ROCS_ColorScore>
-8.419

> <ROCS_Overlap>
2693.371

> <ROCS_Rank>
239                 

$$$$
untitled-dbase-998100_46
  -OEChem-02092406493D

 44 47  0     1  0  0  0  0  0999 V2000
   12.3717   15.0148   20.7337 C   0  0  0  0  0  0  0  0  0  0  0  0
    5.4473   12.5524   25.5364 C   0  0  0  0  0  0  0  0  0  0  0  0
   11.0213   14.7561   20.9404 C   0  0  0  0  0  0  0  0  0  0  0  0
    6.2587   11.4567   25.2800 C   0  0  0  0  0  0  0  0  0  0  0  0
    5.7723   13.7531   24.9310 C   0  0  0  0  0  0  0  0  0  0  0  0
   13.2107   15.0016   21.8363 C   0  0  0  0  0  0  0  0  0  0  0  0
   10.5577   14.4957   22.2251 C   0  0  0  0  0  0  0  0  0  0  0  0
    7.3553   11.5940   24.4257 C   0  0  0  0  0  0  0  0  0  0  0  0
    7.6226   12.8589   23.8601 C   0  0  0  0  0  0  0  0  0  0  0  0
   11.4780   14.5055   23.2609 C   0  0  0  0  0  0  0  0  0  0  0  0
    9.1322   14.2224   22.4513 C   0  0  0  0  0  0  0  0  0  0  0  0
   10.4136   11.4091   24.0736 C   0  0  0  0  0  0  0  0  0  0  0  0
    9.4499   10.6117   24.9748 C   0  0  0  0  0  0  0  0  0  0  0  0
    8.6337   10.5331   22.7650 C   0  0  0  0  0  0  0  0  0  0  0  0
    9.5822   11.7298   22.8138 C   0  0  1  0  0  0  0  0  0  0  0  0
   10.8617   15.1669   26.7535 C   0  0  0  0  0  0  0  0  0  0  0  0
   12.9537   13.9832   25.9959 C   0  0  0  0  0  0  0  0  0  0  0  0
   11.7959   14.8812   25.5876 C   0  0  0  0  0  0  0  0  0  0  0  0
    6.8320   13.9305   24.1089 N   0  0  0  0  0  0  0  0  0  0  0  0
   12.7972   14.7527   23.0991 N   0  0  0  0  0  0  0  0  0  0  0  0
    8.2145   10.4887   24.1706 N   0  0  2  0  0  0  0  0  0  0  0  0
    8.7906   12.9826   23.0105 N   0  0  0  0  0  0  0  0  0  0  0  0
    8.3637   15.1237   22.1214 O   0  0  0  0  0  0  0  0  0  0  0  0
   11.0624   14.2539   24.5429 O   0  0  0  0  0  0  0  0  0  0  0  0
   12.7563   15.2191   19.7410 H   0  0  0  0  0  0  0  0  0  0  0  0
    4.5879   12.4707   26.1918 H   0  0  0  0  0  0  0  0  0  0  0  0
   10.3396   14.7601   20.0940 H   0  0  0  0  0  0  0  0  0  0  0  0
    6.0343   10.4995   25.7426 H   0  0  0  0  0  0  0  0  0  0  0  0
    5.1688   14.6392   25.0988 H   0  0  0  0  0  0  0  0  0  0  0  0
   14.2727   15.1964   21.7289 H   0  0  0  0  0  0  0  0  0  0  0  0
   10.7939   12.3107   24.5648 H   0  0  0  0  0  0  0  0  0  0  0  0
   11.2728   10.7830   23.8059 H   0  0  0  0  0  0  0  0  0  0  0  0
    9.8570    9.6122   25.1669 H   0  0  0  0  0  0  0  0  0  0  0  0
    9.2920   11.0960   25.9460 H   0  0  0  0  0  0  0  0  0  0  0  0
    7.8024   10.6507   22.0586 H   0  0  0  0  0  0  0  0  0  0  0  0
    9.1677    9.6107   22.5045 H   0  0  0  0  0  0  0  0  0  0  0  0
   10.2057   11.7940   21.9190 H   0  0  0  0  0  0  0  0  0  0  0  0
   10.4533   14.2415   27.1711 H   0  0  0  0  0  0  0  0  0  0  0  0
   11.3944   15.7033   27.5460 H   0  0  0  0  0  0  0  0  0  0  0  0
   10.0296   15.8089   26.4442 H   0  0  0  0  0  0  0  0  0  0  0  0
   12.5952   13.0296   26.3955 H   0  0  0  0  0  0  0  0  0  0  0  0
   13.5662   14.4745   26.7595 H   0  0  0  0  0  0  0  0  0  0  0  0
   13.6141   13.7805   25.1455 H   0  0  0  0  0  0  0  0  0  0  0  0
   12.1868   15.8248   25.1930 H   0  0  0  0  0  0  0  0  0  0  0  0
  1  3  2  0  0  0  0
  1  6  1  0  0  0  0
  2  4  2  0  0  0  0
  2  5  1  0  0  0  0
  3  7  1  0  0  0  0
  4  8  1  0  0  0  0
  5 19  2  0  0  0  0
  6 20  2  0  0  0  0
  7 10  2  0  0  0  0
  7 11  1  0  0  0  0
  8  9  2  0  0  0  0
  8 21  1  0  0  0  0
  9 19  1  0  0  0  0
  9 22  1  0  0  0  0
 10 20  1  0  0  0  0
 10 24  1  0  0  0  0
 11 22  1  0  0  0  0
 11 23  2  0  0  0  0
 12 13  1  0  0  0  0
 12 15  1  0  0  0  0
 13 21  1  0  0  0  0
 14 15  1  0  0  0  0
 14 21  1  0  0  0  0
 15 22  1  0  0  0  0
 16 18  1  0  0  0  0
 17 18  1  0  0  0  0
 18 24  1  0  0  0  0
  1 25  1  0  0  0  0
  2 26  1  0  0  0  0
  3 27  1  0  0  0  0
  4 28  1  0  0  0  0
  5 29  1  0  0  0  0
  6 30  1  0  0  0  0
 12 31  1  0  0  0  0
 12 32  1  0  0  0  0
 13 33  1  0  0  0  0
 13 34  1  0  0  0  0
 14 35  1  0  0  0  0
 14 36  1  0  0  0  0
 15 37  1  0  0  0  0
 16 38  1  0  0  0  0
 16 39  1  0  0  0  0
 16 40  1  0  0  0  0
 17 41  1  0  0  0  0
 17 42  1  0  0  0  0
 17 43  1  0  0  0  0
 18 44  1  0  0  0  0
M  END
> <idnumber>
Z3016151474

> <heavy_atoms>
24

> <LogS>
-3.804

> <LogP>
1.694

> <rotating_bonds>
3

> <PSA>
58.56

> <hb_acceptors>
5

> <hb_donors>
0

> <Collection>
HTS

> <link>
https://www.enaminestore.com/catalog/Z3016151474

> <ROCS_ShapeQuery>
x0446_0A_x1080_0A_x0929_0A_x0812_0A_x0719_0A_x1140_0A_x0528_0A_x0310_0A

> <ROCS_TanimotoCombo>
0.461 

> <ROCS_ShapeTanimoto>
0.262 

> <ROCS_ColorTanimoto>
0.199 

> <ROCS_RefTversky>
0.237 

> <ROCS_RefColorTversky>
0.231 

> <ROCS_RefTverskyCombo>
0.468 

> <ROCS_FitTversky>
1.660 

> <ROCS_FitColorTversky>
0.591 

> <ROCS_FitTverskyCombo>
2.251 

> <ROCS_ColorScore>
-8.328

> <ROCS_Overlap>
2801.151

> <ROCS_Rank>
240                 

$$$$
untitled-dbase-786032_12
  -OEChem-02092406493D

 48 52  0     1  0  0  0  0  0999 V2000
   11.1345    7.0827   22.6268 C   0  0  0  0  0  0  0  0  0  0  0  0
   10.1757    8.0803   22.8029 C   0  0  0  0  0  0  0  0  0  0  0  0
   12.4720    7.3398   22.9282 C   0  0  0  0  0  0  0  0  0  0  0  0
   11.8917    9.5922   23.5817 C   0  0  0  0  0  0  0  0  0  0  0  0
    9.6690   11.5672   22.7662 C   0  0  0  0  0  0  0  0  0  0  0  0
    7.6613   12.2584   23.8535 C   0  0  0  0  0  0  0  0  0  0  0  0
   10.5543    9.3351   23.2804 C   0  0  0  0  0  0  0  0  0  0  0  0
    8.6974   12.5487   22.9583 C   0  0  0  0  0  0  0  0  0  0  0  0
   12.8506    8.5945   23.4056 C   0  0  0  0  0  0  0  0  0  0  0  0
    9.5602   10.3693   23.4631 C   0  0  0  0  0  0  0  0  0  0  0  0
    6.5091   12.8872   24.3576 C   0  0  0  0  0  0  0  0  0  0  0  0
    7.6694   11.0241   24.4850 C   0  0  0  0  0  0  0  0  0  0  0  0
    8.7713   13.8310   22.2445 C   0  0  0  0  0  0  0  0  0  0  0  0
   12.8068   13.9657   22.4658 C   0  0  0  0  0  0  0  0  0  0  0  0
   12.5444   14.5380   21.0793 C   0  0  0  0  0  0  0  0  0  0  0  0
   10.6909   14.6720   23.6905 C   0  0  0  0  0  0  0  0  0  0  0  0
   10.2653   15.6176   21.4222 C   0  0  0  0  0  0  0  0  0  0  0  0
   12.1663   14.9790   23.4080 C   0  0  2  0  0  0  0  0  0  0  0  0
   11.7807   15.8286   21.3535 C   0  0  1  0  0  0  0  0  0  0  0  0
    5.9866   14.2269   24.0398 C   0  0  0  0  0  0  0  0  0  0  0  0
   14.2809    8.8686   23.7275 C   0  0  0  0  0  0  0  0  0  0  0  0
    8.5789   10.0431   24.3376 N   0  0  0  0  0  0  0  0  0  0  0  0
    5.8511   12.1165   25.2283 N   0  0  0  0  0  0  0  0  0  0  0  0
    9.8982   14.6330   22.4478 N   0  0  0  0  0  0  0  0  0  0  0  0
    7.8213   14.1058   21.5131 O   0  0  0  0  0  0  0  0  0  0  0  0
    6.5858   10.9405   25.3072 O   0  0  0  0  0  0  0  0  0  0  0  0
   12.2179   16.2118   22.6694 O   0  0  0  0  0  0  0  0  0  0  0  0
   15.1057    7.8024   23.5069 F   0  0  0  0  0  0  0  0  0  0  0  0
   14.8188    9.8914   22.9994 F   0  0  0  0  0  0  0  0  0  0  0  0
   14.4683    9.2120   25.0351 F   0  0  0  0  0  0  0  0  0  0  0  0
   10.8395    6.1058   22.2546 H   0  0  0  0  0  0  0  0  0  0  0  0
    9.1369    7.8645   22.5636 H   0  0  0  0  0  0  0  0  0  0  0  0
   13.2125    6.5566   22.7882 H   0  0  0  0  0  0  0  0  0  0  0  0
   12.1938   10.5689   23.9542 H   0  0  0  0  0  0  0  0  0  0  0  0
   10.4950   11.7415   22.0813 H   0  0  0  0  0  0  0  0  0  0  0  0
   12.4156   12.9516   22.5933 H   0  0  0  0  0  0  0  0  0  0  0  0
   13.8889   13.9257   22.6379 H   0  0  0  0  0  0  0  0  0  0  0  0
   13.5022   14.7643   20.5964 H   0  0  0  0  0  0  0  0  0  0  0  0
   12.0019   13.8487   20.4249 H   0  0  0  0  0  0  0  0  0  0  0  0
   10.5975   13.7311   24.2401 H   0  0  0  0  0  0  0  0  0  0  0  0
   10.2544   15.4715   24.3010 H   0  0  0  0  0  0  0  0  0  0  0  0
    9.7722   16.5533   21.7118 H   0  0  0  0  0  0  0  0  0  0  0  0
    9.8673   15.3128   20.4486 H   0  0  0  0  0  0  0  0  0  0  0  0
   12.7242   15.0857   24.3432 H   0  0  0  0  0  0  0  0  0  0  0  0
   12.0288   16.6181   20.6378 H   0  0  0  0  0  0  0  0  0  0  0  0
    5.2905   14.1929   23.1842 H   0  0  0  0  0  0  0  0  0  0  0  0
    5.4449   14.6762   24.8913 H   0  0  0  0  0  0  0  0  0  0  0  0
    6.7919   14.9391   23.7851 H   0  0  0  0  0  0  0  0  0  0  0  0
  1  2  2  0  0  0  0
  1  3  1  0  0  0  0
  2  7  1  0  0  0  0
  3  9  2  0  0  0  0
  4  7  2  0  0  0  0
  4  9  1  0  0  0  0
  5  8  2  0  0  0  0
  5 10  1  0  0  0  0
  6  8  1  0  0  0  0
  6 11  1  0  0  0  0
  6 12  2  0  0  0  0
  7 10  1  0  0  0  0
  8 13  1  0  0  0  0
  9 21  1  0  0  0  0
 10 22  2  0  0  0  0
 11 20  1  0  0  0  0
 11 23  2  0  0  0  0
 12 22  1  0  0  0  0
 12 26  1  0  0  0  0
 13 24  1  0  0  0  0
 13 25  2  0  0  0  0
 14 15  1  0  0  0  0
 14 18  1  0  0  0  0
 15 19  1  0  0  0  0
 16 18  1  0  0  0  0
 16 24  1  0  0  0  0
 17 19  1  0  0  0  0
 17 24  1  0  0  0  0
 18 27  1  0  0  0  0
 19 27  1  0  0  0  0
 21 28  1  0  0  0  0
 21 29  1  0  0  0  0
 21 30  1  0  0  0  0
 23 26  1  0  0  0  0
  1 31  1  0  0  0  0
  2 32  1  0  0  0  0
  3 33  1  0  0  0  0
  4 34  1  0  0  0  0
  5 35  1  0  0  0  0
 14 36  1  0  0  0  0
 14 37  1  0  0  0  0
 15 38  1  0  0  0  0
 15 39  1  0  0  0  0
 16 40  1  0  0  0  0
 16 41  1  0  0  0  0
 17 42  1  0  0  0  0
 17 43  1  0  0  0  0
 18 44  1  0  0  0  0
 19 45  1  0  0  0  0
 20 46  1  0  0  0  0
 20 47  1  0  0  0  0
 20 48  1  0  0  0  0
M  END
> <idnumber>
Z1303122109

> <heavy_atoms>
30

> <LogS>
-5.705

> <LogP>
3.296

> <rotating_bonds>
3

> <PSA>
68.46

> <hb_acceptors>
4

> <hb_donors>
0

> <Collection>
Advanced

> <link>
https://www.enaminestore.com/catalog/Z1303122109

> <ROCS_ShapeQuery>
x0446_0A_x1080_0A_x0929_0A_x0812_0A_x0719_0A_x1140_0A_x0528_0A_x0310_0A

> <ROCS_TanimotoCombo>
0.461 

> <ROCS_ShapeTanimoto>
0.272 

> <ROCS_ColorTanimoto>
0.190 

> <ROCS_RefTversky>
0.249 

> <ROCS_RefColorTversky>
0.222 

> <ROCS_RefTverskyCombo>
0.471 

> <ROCS_FitTversky>
1.496 

> <ROCS_FitColorTversky>
0.566 

> <ROCS_FitTverskyCombo>
2.063 

> <ROCS_ColorScore>
-7.981

> <ROCS_Overlap>
2947.505

> <ROCS_Rank>
241                 

$$$$
untitled-dbase-638116_36
  -OEChem-02092406493D

 46 49  0     0  0  0  0  0  0999 V2000
    8.0562   12.2282   24.2623 C   0  0  0  0  0  0  0  0  0  0  0  0
    9.3345   12.0307   23.6767 C   0  0  0  0  0  0  0  0  0  0  0  0
    7.4994   10.9598   24.3910 C   0  0  0  0  0  0  0  0  0  0  0  0
    7.3092   13.3369   24.6971 C   0  0  0  0  0  0  0  0  0  0  0  0
    6.2374   10.7112   24.9277 C   0  0  0  0  0  0  0  0  0  0  0  0
    6.0362   13.1184   25.2413 C   0  0  0  0  0  0  0  0  0  0  0  0
    5.5121   11.8280   25.3535 C   0  0  0  0  0  0  0  0  0  0  0  0
    9.4701   10.6745   23.4898 C   0  0  0  0  0  0  0  0  0  0  0  0
   11.1860   15.4425   21.8242 C   0  0  0  0  0  0  0  0  0  0  0  0
    9.9455   17.0963   21.8997 C   0  0  0  0  0  0  0  0  0  0  0  0
   10.3561   13.0483   23.3190 C   0  0  0  0  0  0  0  0  0  0  0  0
   14.3529   14.2098   20.0210 C   0  0  0  0  0  0  0  0  0  0  0  0
   13.0422   14.6024   19.3511 C   0  0  0  0  0  0  0  0  0  0  0  0
   14.2810   14.3753   21.5339 C   0  0  0  0  0  0  0  0  0  0  0  0
   11.8671   13.8260   19.9440 C   0  0  0  0  0  0  0  0  0  0  0  0
   13.0701   13.6537   22.1340 C   0  0  0  0  0  0  0  0  0  0  0  0
   11.7170   14.0303   21.4768 C   0  0  0  0  0  0  0  0  0  0  0  0
   10.5426    9.8326   22.9369 C   0  0  0  0  0  0  0  0  0  0  0  0
    8.9004   18.1244   21.8041 C   0  0  0  0  0  0  0  0  0  0  0  0
    9.9782   15.8955   21.3793 N   0  0  0  0  0  0  0  0  0  0  0  0
   11.8835   16.2950   22.5808 N   0  0  0  0  0  0  0  0  0  0  0  0
   10.7094   13.1013   21.9817 N   0  0  0  0  0  0  0  0  0  0  0  0
   10.8351   13.7540   24.2028 O   0  0  0  0  0  0  0  0  0  0  0  0
    8.3624   10.0161   23.9201 O   0  0  0  0  0  0  0  0  0  0  0  0
   11.0445   17.4153   22.6324 O   0  0  0  0  0  0  0  0  0  0  0  0
    7.7918   14.5823   24.5984 F   0  0  0  0  0  0  0  0  0  0  0  0
    5.7386    9.4754   25.0347 F   0  0  0  0  0  0  0  0  0  0  0  0
    5.3103   14.1644   25.6600 F   0  0  0  0  0  0  0  0  0  0  0  0
    4.2916   11.6565   25.8804 F   0  0  0  0  0  0  0  0  0  0  0  0
   14.5976   13.1700   19.7740 H   0  0  0  0  0  0  0  0  0  0  0  0
   15.1661   14.8306   19.6238 H   0  0  0  0  0  0  0  0  0  0  0  0
   12.8740   15.6743   19.4771 H   0  0  0  0  0  0  0  0  0  0  0  0
   13.1082   14.4102   18.2770 H   0  0  0  0  0  0  0  0  0  0  0  0
   15.2050   13.9954   21.9920 H   0  0  0  0  0  0  0  0  0  0  0  0
   14.2272   15.4442   21.7822 H   0  0  0  0  0  0  0  0  0  0  0  0
   10.9454   14.1504   19.4440 H   0  0  0  0  0  0  0  0  0  0  0  0
   11.9767   12.7604   19.7107 H   0  0  0  0  0  0  0  0  0  0  0  0
   13.2319   12.5649   22.0735 H   0  0  0  0  0  0  0  0  0  0  0  0
   13.0273   13.8789   23.2131 H   0  0  0  0  0  0  0  0  0  0  0  0
   11.2498    9.5148   23.7229 H   0  0  0  0  0  0  0  0  0  0  0  0
   10.1507    8.9185   22.4549 H   0  0  0  0  0  0  0  0  0  0  0  0
   11.1265   10.3563   22.1582 H   0  0  0  0  0  0  0  0  0  0  0  0
    8.1638   18.0292   22.6219 H   0  0  0  0  0  0  0  0  0  0  0  0
    9.3132   19.1494   21.8503 H   0  0  0  0  0  0  0  0  0  0  0  0
    8.3426   18.0698   20.8504 H   0  0  0  0  0  0  0  0  0  0  0  0
   10.3176   12.4440   21.3172 H   0  0  0  0  0  0  0  0  0  0  0  0
  1  2  1  0  0  0  0
  1  3  2  0  0  0  0
  1  4  1  0  0  0  0
  2  8  2  0  0  0  0
  2 11  1  0  0  0  0
  3  5  1  0  0  0  0
  3 24  1  0  0  0  0
  4  6  2  0  0  0  0
  4 26  1  0  0  0  0
  5  7  2  0  0  0  0
  5 27  1  0  0  0  0
  6  7  1  0  0  0  0
  6 28  1  0  0  0  0
  7 29  1  0  0  0  0
  8 18  1  0  0  0  0
  8 24  1  0  0  0  0
  9 17  1  0  0  0  0
  9 20  1  0  0  0  0
  9 21  2  0  0  0  0
 10 19  1  0  0  0  0
 10 20  2  0  0  0  0
 10 25  1  0  0  0  0
 11 22  1  0  0  0  0
 11 23  2  0  0  0  0
 12 13  1  0  0  0  0
 12 14  1  0  0  0  0
 13 15  1  0  0  0  0
 14 16  1  0  0  0  0
 15 17  1  0  0  0  0
 16 17  1  0  0  0  0
 17 22  1  0  0  0  0
 21 25  1  0  0  0  0
 12 30  1  0  0  0  0
 12 31  1  0  0  0  0
 13 32  1  0  0  0  0
 13 33  1  0  0  0  0
 14 34  1  0  0  0  0
 14 35  1  0  0  0  0
 15 36  1  0  0  0  0
 15 37  1  0  0  0  0
 16 38  1  0  0  0  0
 16 39  1  0  0  0  0
 18 40  1  0  0  0  0
 18 41  1  0  0  0  0
 18 42  1  0  0  0  0
 19 43  1  0  0  0  0
 19 44  1  0  0  0  0
 19 45  1  0  0  0  0
 22 46  1  0  0  0  0
M  END
> <idnumber>
Z238225056

> <heavy_atoms>
29

> <LogS>
-5.43

> <LogP>
3.781

> <rotating_bonds>
3

> <PSA>
81.16

> <hb_acceptors>
3

> <hb_donors>
1

> <Collection>
HTS

> <link>
https://www.enaminestore.com/catalog/Z238225056

> <ROCS_ShapeQuery>
x0446_0A_x1080_0A_x0929_0A_x0812_0A_x0719_0A_x1140_0A_x0528_0A_x0310_0A

> <ROCS_TanimotoCombo>
0.461 

> <ROCS_ShapeTanimoto>
0.269 

> <ROCS_ColorTanimoto>
0.192 

> <ROCS_RefTversky>
0.246 

> <ROCS_RefColorTversky>
0.208 

> <ROCS_RefTverskyCombo>
0.454 

> <ROCS_FitTversky>
1.524 

> <ROCS_FitColorTversky>
0.715 

> <ROCS_FitTverskyCombo>
2.239 

> <ROCS_ColorScore>
-7.459

> <ROCS_Overlap>
2909.635

> <ROCS_Rank>
242                 

$$$$
untitled-dbase-1123306_8
  -OEChem-02092406493D

 40 43  0     1  0  0  0  0  0999 V2000
   12.5802   13.9464   25.4821 C   0  0  0  0  0  0  0  0  0  0  0  0
   12.9543   14.8254   24.4780 C   0  0  0  0  0  0  0  0  0  0  0  0
   11.3433   13.3445   25.3725 C   0  0  0  0  0  0  0  0  0  0  0  0
   12.0861   15.0742   23.4143 C   0  0  0  0  0  0  0  0  0  0  0  0
   10.8600   14.4062   23.3564 C   0  0  0  0  0  0  0  0  0  0  0  0
    8.5852   12.6969   22.8949 C   0  0  0  0  0  0  0  0  0  0  0  0
    7.6911   12.5540   23.8805 C   0  0  0  0  0  0  0  0  0  0  0  0
    9.3667   11.4708   22.6551 C   0  0  0  0  0  0  0  0  0  0  0  0
    8.3318   10.2315   24.2881 C   0  0  0  0  0  0  0  0  0  0  0  0
    8.7418   13.9767   22.1689 C   0  0  0  0  0  0  0  0  0  0  0  0
    6.7069   13.5471   24.4314 C   0  0  0  0  0  0  0  0  0  0  0  0
    5.7041   12.6561   25.1670 C   0  0  0  0  0  0  0  0  0  0  0  0
    6.5103   11.4303   25.5665 C   0  0  0  0  0  0  0  0  0  0  0  0
   11.4526   16.5283   21.7283 C   0  0  0  0  0  0  0  0  0  0  0  0
   10.5542   15.4476   21.1353 C   0  0  1  0  0  0  0  0  0  0  0  0
   11.3062   14.5910   20.1093 C   0  0  0  0  0  0  0  0  0  0  0  0
   10.4890   13.5522   24.3444 N   0  0  0  0  0  0  0  0  0  0  0  0
    9.2709   10.3421   23.2745 N   0  0  0  0  0  0  0  0  0  0  0  0
    9.9963   14.6019   22.2160 N   0  0  0  0  0  0  0  0  0  0  0  0
    7.5550   11.3565   24.5521 N   0  0  0  0  0  0  0  0  0  0  0  0
    8.1919    9.1851   24.9221 O   0  0  0  0  0  0  0  0  0  0  0  0
    7.7497   14.3915   21.5667 O   0  0  0  0  0  0  0  0  0  0  0  0
   12.5267   15.9639   22.4734 O   0  0  0  0  0  0  0  0  0  0  0  0
   10.2651   11.6298   21.6609 O   0  0  0  0  0  0  0  0  0  0  0  0
   13.2341   13.7442   26.3221 H   0  0  0  0  0  0  0  0  0  0  0  0
   13.9182   15.3245   24.5313 H   0  0  0  0  0  0  0  0  0  0  0  0
   10.9924   12.6511   26.1295 H   0  0  0  0  0  0  0  0  0  0  0  0
    7.2087   14.2179   25.1376 H   0  0  0  0  0  0  0  0  0  0  0  0
    6.2083   14.1398   23.6594 H   0  0  0  0  0  0  0  0  0  0  0  0
    5.2560   13.1615   26.0276 H   0  0  0  0  0  0  0  0  0  0  0  0
    4.8955   12.3652   24.4849 H   0  0  0  0  0  0  0  0  0  0  0  0
    6.9960   11.5583   26.5403 H   0  0  0  0  0  0  0  0  0  0  0  0
    5.9173   10.5110   25.5833 H   0  0  0  0  0  0  0  0  0  0  0  0
   11.8914   17.1365   20.9293 H   0  0  0  0  0  0  0  0  0  0  0  0
   10.8832   17.2142   22.3699 H   0  0  0  0  0  0  0  0  0  0  0  0
    9.7341   15.9629   20.6256 H   0  0  0  0  0  0  0  0  0  0  0  0
   12.1249   14.0720   20.6004 H   0  0  0  0  0  0  0  0  0  0  0  0
   11.7020   15.2295   19.3242 H   0  0  0  0  0  0  0  0  0  0  0  0
   10.6253   13.8637   19.6753 H   0  0  0  0  0  0  0  0  0  0  0  0
   10.7771   10.8161   21.5086 H   0  0  0  0  0  0  0  0  0  0  0  0
  1  2  2  0  0  0  0
  1  3  1  0  0  0  0
  2  4  1  0  0  0  0
  3 17  2  0  0  0  0
  4  5  2  0  0  0  0
  4 23  1  0  0  0  0
  5 17  1  0  0  0  0
  5 19  1  0  0  0  0
  6  7  2  0  0  0  0
  6  8  1  0  0  0  0
  6 10  1  0  0  0  0
  7 11  1  0  0  0  0
  7 20  1  0  0  0  0
  8 18  2  0  0  0  0
  8 24  1  0  0  0  0
  9 18  1  0  0  0  0
  9 20  1  0  0  0  0
  9 21  2  0  0  0  0
 10 19  1  0  0  0  0
 10 22  2  0  0  0  0
 11 12  1  0  0  0  0
 12 13  1  0  0  0  0
 13 20  1  0  0  0  0
 14 15  1  0  0  0  0
 14 23  1  0  0  0  0
 15 16  1  6  0  0  0
 15 19  1  0  0  0  0
  1 25  1  0  0  0  0
  2 26  1  0  0  0  0
  3 27  1  0  0  0  0
 11 28  1  0  0  0  0
 11 29  1  0  0  0  0
 12 30  1  0  0  0  0
 12 31  1  0  0  0  0
 13 32  1  0  0  0  0
 13 33  1  0  0  0  0
 14 34  1  0  0  0  0
 14 35  1  0  0  0  0
 15 36  1  0  0  0  0
 16 37  1  0  0  0  0
 16 38  1  0  0  0  0
 16 39  1  0  0  0  0
 24 40  1  0  0  0  0
M  END
> <idnumber>
Z5346215097

> <heavy_atoms>
24

> <LogS>
-3.11

> <LogP>
0.029

> <rotating_bonds>
1

> <PSA>
95.33

> <hb_acceptors>
6

> <hb_donors>
1

> <Collection>
Advanced

> <link>
https://www.enaminestore.com/catalog/Z5346215097

> <ROCS_ShapeQuery>
x0446_0A_x1080_0A_x0929_0A_x0812_0A_x0719_0A_x1140_0A_x0528_0A_x0310_0A

> <ROCS_TanimotoCombo>
0.461 

> <ROCS_ShapeTanimoto>
0.263 

> <ROCS_ColorTanimoto>
0.198 

> <ROCS_RefTversky>
0.238 

> <ROCS_RefColorTversky>
0.226 

> <ROCS_RefTverskyCombo>
0.465 

> <ROCS_FitTversky>
1.660 

> <ROCS_FitColorTversky>
0.610 

> <ROCS_FitTverskyCombo>
2.270 

> <ROCS_ColorScore>
-8.126

> <ROCS_Overlap>
2818.953

> <ROCS_Rank>
243                 

$$$$
untitled-dbase-464613_154
  -OEChem-02092406493D

 41 45  0     0  0  0  0  0  0999 V2000
    5.9404   12.9130   25.7132 C   0  0  0  0  0  0  0  0  0  0  0  0
    3.7395   15.4149   19.0101 C   0  0  0  0  0  0  0  0  0  0  0  0
    5.4608   11.6134   25.5305 C   0  0  0  0  0  0  0  0  0  0  0  0
    3.3294   15.8548   20.2686 C   0  0  0  0  0  0  0  0  0  0  0  0
    7.2052   13.2913   25.2428 C   0  0  0  0  0  0  0  0  0  0  0  0
    5.0278   14.9101   18.8334 C   0  0  0  0  0  0  0  0  0  0  0  0
    6.2231   10.6432   24.8729 C   0  0  0  0  0  0  0  0  0  0  0  0
    4.2076   15.7901   21.3504 C   0  0  0  0  0  0  0  0  0  0  0  0
    7.9903   12.3338   24.5788 C   0  0  0  0  0  0  0  0  0  0  0  0
    9.2600   12.2919   23.9747 C   0  0  0  0  0  0  0  0  0  0  0  0
    5.9060   14.8454   19.9152 C   0  0  0  0  0  0  0  0  0  0  0  0
    7.4774   11.0426   24.4143 C   0  0  0  0  0  0  0  0  0  0  0  0
    5.4959   15.2854   21.1737 C   0  0  0  0  0  0  0  0  0  0  0  0
    9.4461   11.0252   23.4925 C   0  0  0  0  0  0  0  0  0  0  0  0
    8.4392   14.5583   20.3200 C   0  0  0  0  0  0  0  0  0  0  0  0
   10.7009   14.5915   20.9913 C   0  0  0  0  0  0  0  0  0  0  0  0
   10.6147   10.5784   22.8094 C   0  0  0  0  0  0  0  0  0  0  0  0
   11.2888   12.9155   23.2225 C   0  0  0  0  0  0  0  0  0  0  0  0
   12.4268   13.8698   22.9947 C   0  0  0  0  0  0  0  0  0  0  0  0
    8.6454   15.4154   21.2971 N   0  0  0  0  0  0  0  0  0  0  0  0
    9.9722   15.4356   21.6902 N   0  0  0  0  0  0  0  0  0  0  0  0
   10.2134   13.3104   23.8491 N   0  0  0  0  0  0  0  0  0  0  0  0
   11.5293   11.6299   22.7109 N   0  0  0  0  0  0  0  0  0  0  0  0
    7.2397   14.3223   19.7294 N   0  0  0  0  0  0  0  0  0  0  0  0
   10.7980    9.4484   22.3724 O   0  0  0  0  0  0  0  0  0  0  0  0
    8.3714   10.2431   23.7489 O   0  0  0  0  0  0  0  0  0  0  0  0
    6.3319   15.2279   22.2202 F   0  0  0  0  0  0  0  0  0  0  0  0
    9.8361   13.7081   19.8026 S   0  0  0  0  0  0  0  0  0  0  0  0
   12.4365   14.3976   21.2708 S   0  0  0  0  0  0  0  0  0  0  0  0
    5.3228   13.6441   26.2289 H   0  0  0  0  0  0  0  0  0  0  0  0
    3.0556   15.4655   18.1681 H   0  0  0  0  0  0  0  0  0  0  0  0
    4.4751   11.3506   25.9068 H   0  0  0  0  0  0  0  0  0  0  0  0
    2.3261   16.2475   20.4057 H   0  0  0  0  0  0  0  0  0  0  0  0
    7.5632   14.3053   25.3927 H   0  0  0  0  0  0  0  0  0  0  0  0
    5.3368   14.5692   17.8484 H   0  0  0  0  0  0  0  0  0  0  0  0
    5.8558    9.6340   24.7286 H   0  0  0  0  0  0  0  0  0  0  0  0
    3.8885   16.1325   22.3302 H   0  0  0  0  0  0  0  0  0  0  0  0
   13.3638   13.3712   23.2341 H   0  0  0  0  0  0  0  0  0  0  0  0
   12.3092   14.7320   23.6478 H   0  0  0  0  0  0  0  0  0  0  0  0
   12.4152   11.4553   22.2445 H   0  0  0  0  0  0  0  0  0  0  0  0
    7.2330   13.6160   18.9688 H   0  0  0  0  0  0  0  0  0  0  0  0
  1  3  1  0  0  0  0
  1  5  2  0  0  0  0
  2  4  1  0  0  0  0
  2  6  2  0  0  0  0
  3  7  2  0  0  0  0
  4  8  2  0  0  0  0
  5  9  1  0  0  0  0
  6 11  1  0  0  0  0
  7 12  1  0  0  0  0
  8 13  1  0  0  0  0
  9 10  1  0  0  0  0
  9 12  2  0  0  0  0
 10 14  2  0  0  0  0
 10 22  1  0  0  0  0
 11 13  2  0  0  0  0
 11 24  1  0  0  0  0
 12 26  1  0  0  0  0
 13 27  1  0  0  0  0
 14 17  1  0  0  0  0
 14 26  1  0  0  0  0
 15 20  2  0  0  0  0
 15 24  1  0  0  0  0
 15 28  1  0  0  0  0
 16 21  2  0  0  0  0
 16 28  1  0  0  0  0
 16 29  1  0  0  0  0
 17 23  1  0  0  0  0
 17 25  2  0  0  0  0
 18 19  1  0  0  0  0
 18 22  2  0  0  0  0
 18 23  1  0  0  0  0
 19 29  1  0  0  0  0
 20 21  1  0  0  0  0
  1 30  1  0  0  0  0
  2 31  1  0  0  0  0
  3 32  1  0  0  0  0
  4 33  1  0  0  0  0
  5 34  1  0  0  0  0
  6 35  1  0  0  0  0
  7 36  1  0  0  0  0
  8 37  1  0  0  0  0
 19 38  1  0  0  0  0
 19 39  1  0  0  0  0
 23 40  1  0  0  0  0
 24 41  1  0  0  0  0
M  END
> <idnumber>
Z91906008

> <heavy_atoms>
29

> <LogS>
-7.922

> <LogP>
3.646

> <rotating_bonds>
5

> <PSA>
92.41

> <hb_acceptors>
5

> <hb_donors>
2

> <Collection>
Legacy

> <link>
https://www.enaminestore.com/catalog/Z91906008

> <ROCS_ShapeQuery>
x0446_0A_x1080_0A_x0929_0A_x0812_0A_x0719_0A_x1140_0A_x0528_0A_x0310_0A

> <ROCS_TanimotoCombo>
0.461 

> <ROCS_ShapeTanimoto>
0.271 

> <ROCS_ColorTanimoto>
0.190 

> <ROCS_RefTversky>
0.247 

> <ROCS_RefColorTversky>
0.220 

> <ROCS_RefTverskyCombo>
0.467 

> <ROCS_FitTversky>
1.545 

> <ROCS_FitColorTversky>
0.583 

> <ROCS_FitTverskyCombo>
2.128 

> <ROCS_ColorScore>
-7.916

> <ROCS_Overlap>
2924.454

> <ROCS_Rank>
244                 

$$$$
untitled-dbase-322981_164
  -OEChem-02092406493D

 48 52  0     0  0  0  0  0  0999 V2000
   13.2790   14.1256   22.3692 C   0  0  0  0  0  0  0  0  0  0  0  0
   12.2660   13.9278   23.3008 C   0  0  0  0  0  0  0  0  0  0  0  0
   12.9200   14.5579   21.1027 C   0  0  0  0  0  0  0  0  0  0  0  0
    7.9960   12.5294   24.0114 C   0  0  0  0  0  0  0  0  0  0  0  0
    6.8847   13.4026   24.0552 C   0  0  0  0  0  0  0  0  0  0  0  0
   10.9436   14.1651   22.9426 C   0  0  0  0  0  0  0  0  0  0  0  0
    5.6938   12.7342   24.1381 C   0  0  0  0  0  0  0  0  0  0  0  0
   10.6891   14.5958   21.6505 C   0  0  0  0  0  0  0  0  0  0  0  0
    9.3777   12.7171   23.9293 C   0  0  0  0  0  0  0  0  0  0  0  0
    7.5527   11.2053   24.0659 C   0  0  0  0  0  0  0  0  0  0  0  0
    9.6409   10.4279   23.9645 C   0  0  0  0  0  0  0  0  0  0  0  0
    6.6730   14.8715   24.0379 C   0  0  0  0  0  0  0  0  0  0  0  0
    4.5068   13.6183   24.1879 C   0  0  0  0  0  0  0  0  0  0  0  0
    5.1389   14.9818   23.7690 C   0  0  0  0  0  0  0  0  0  0  0  0
   12.5774   10.2459   22.9746 C   0  0  0  0  0  0  0  0  0  0  0  0
   12.7684    8.5532   24.6767 C   0  0  0  0  0  0  0  0  0  0  0  0
   14.0197   10.6550   23.2597 C   0  0  0  0  0  0  0  0  0  0  0  0
   14.2057    9.0029   24.9224 C   0  0  0  0  0  0  0  0  0  0  0  0
   10.5889    9.2750   23.9357 C   0  0  0  0  0  0  0  0  0  0  0  0
   11.6466   14.7990   20.7180 N   0  0  0  0  0  0  0  0  0  0  0  0
   10.2061   11.6507   23.9059 N   0  0  0  0  0  0  0  0  0  0  0  0
    8.3360   10.1091   24.0455 N   0  0  0  0  0  0  0  0  0  0  0  0
   11.9685    9.6853   24.1889 N   0  0  0  0  0  0  0  0  0  0  0  0
    9.3170   14.8299   21.3132 N   0  3  0  0  0  0  0  0  0  0  0  0
    8.6491   13.8846   20.8441 O   0  5  0  0  0  0  0  0  0  0  0  0
    8.8434   15.9702   21.5015 O   0  0  0  0  0  0  0  0  0  0  0  0
   14.7724    9.5336   23.7238 O   0  0  0  0  0  0  0  0  0  0  0  0
    9.9432   13.9672   23.8711 O   0  0  0  0  0  0  0  0  0  0  0  0
    5.8400   11.0695   24.1677 S   0  0  0  0  0  0  0  0  0  0  0  0
   14.3165   13.9462   22.6262 H   0  0  0  0  0  0  0  0  0  0  0  0
   12.5135   13.5891   24.3030 H   0  0  0  0  0  0  0  0  0  0  0  0
   13.6722   14.7266   20.3392 H   0  0  0  0  0  0  0  0  0  0  0  0
    6.9233   15.3055   25.0116 H   0  0  0  0  0  0  0  0  0  0  0  0
    7.2480   15.3751   23.2561 H   0  0  0  0  0  0  0  0  0  0  0  0
    3.7138   13.3203   23.4968 H   0  0  0  0  0  0  0  0  0  0  0  0
    4.1072   13.6771   25.2053 H   0  0  0  0  0  0  0  0  0  0  0  0
    4.6847   15.8286   24.2925 H   0  0  0  0  0  0  0  0  0  0  0  0
    4.9764   15.1340   22.6936 H   0  0  0  0  0  0  0  0  0  0  0  0
   12.0181   11.1256   22.6437 H   0  0  0  0  0  0  0  0  0  0  0  0
   12.5633    9.5039   22.1689 H   0  0  0  0  0  0  0  0  0  0  0  0
   12.7623    7.7419   23.9406 H   0  0  0  0  0  0  0  0  0  0  0  0
   12.3520    8.1727   25.6138 H   0  0  0  0  0  0  0  0  0  0  0  0
   14.4922   11.0163   22.3407 H   0  0  0  0  0  0  0  0  0  0  0  0
   14.0718   11.4627   23.9997 H   0  0  0  0  0  0  0  0  0  0  0  0
   14.2650    9.7547   25.7191 H   0  0  0  0  0  0  0  0  0  0  0  0
   14.8168    8.1480   25.2287 H   0  0  0  0  0  0  0  0  0  0  0  0
   10.3220    8.5257   24.6933 H   0  0  0  0  0  0  0  0  0  0  0  0
   10.5711    8.7648   22.9634 H   0  0  0  0  0  0  0  0  0  0  0  0
  1  2  2  0  0  0  0
  1  3  1  0  0  0  0
  2  6  1  0  0  0  0
  3 20  2  0  0  0  0
  4  5  1  0  0  0  0
  4  9  2  0  0  0  0
  4 10  1  0  0  0  0
  5  7  2  0  0  0  0
  5 12  1  0  0  0  0
  6  8  2  0  0  0  0
  6 28  1  0  0  0  0
  7 13  1  0  0  0  0
  7 29  1  0  0  0  0
  8 20  1  0  0  0  0
  8 24  1  0  0  0  0
  9 21  1  0  0  0  0
  9 28  1  0  0  0  0
 10 22  2  0  0  0  0
 10 29  1  0  0  0  0
 11 19  1  0  0  0  0
 11 21  2  0  0  0  0
 11 22  1  0  0  0  0
 12 14  1  0  0  0  0
 13 14  1  0  0  0  0
 15 17  1  0  0  0  0
 15 23  1  0  0  0  0
 16 18  1  0  0  0  0
 16 23  1  0  0  0  0
 17 27  1  0  0  0  0
 18 27  1  0  0  0  0
 19 23  1  0  0  0  0
 24 25  1  0  0  0  0
 24 26  2  0  0  0  0
  1 30  1  0  0  0  0
  2 31  1  0  0  0  0
  3 32  1  0  0  0  0
 12 33  1  0  0  0  0
 12 34  1  0  0  0  0
 13 35  1  0  0  0  0
 13 36  1  0  0  0  0
 14 37  1  0  0  0  0
 14 38  1  0  0  0  0
 15 39  1  0  0  0  0
 15 40  1  0  0  0  0
 16 41  1  0  0  0  0
 16 42  1  0  0  0  0
 17 43  1  0  0  0  0
 17 44  1  0  0  0  0
 18 45  1  0  0  0  0
 18 46  1  0  0  0  0
 19 47  1  0  0  0  0
 19 48  1  0  0  0  0
M  CHG  2  24   1  25  -1
M  END
> <idnumber>
Z31112455

> <heavy_atoms>
29

> <LogS>
-4.97

> <LogP>
1.89

> <rotating_bonds>
5

> <PSA>
103.51

> <hb_acceptors>
7

> <hb_donors>
0

> <Collection>
HTS

> <link>
https://www.enaminestore.com/catalog/Z31112455

> <ROCS_ShapeQuery>
x0446_0A_x1080_0A_x0929_0A_x0812_0A_x0719_0A_x1140_0A_x0528_0A_x0310_0A

> <ROCS_TanimotoCombo>
0.461 

> <ROCS_ShapeTanimoto>
0.270 

> <ROCS_ColorTanimoto>
0.191 

> <ROCS_RefTversky>
0.247 

> <ROCS_RefColorTversky>
0.224 

> <ROCS_RefTverskyCombo>
0.471 

> <ROCS_FitTversky>
1.535 

> <ROCS_FitColorTversky>
0.565 

> <ROCS_FitTverskyCombo>
2.100 

> <ROCS_ColorScore>
-8.069

> <ROCS_Overlap>
2918.270

> <ROCS_Rank>
245                 

$$$$
untitled-dbase-514180_105
  -OEChem-02092406493D

 53 57  0     1  0  0  0  0  0999 V2000
    5.7983   12.9796   25.3258 C   0  0  0  0  0  0  0  0  0  0  0  0
    5.3182   11.7105   25.0394 C   0  0  0  0  0  0  0  0  0  0  0  0
    7.1455   13.2656   25.1146 C   0  0  0  0  0  0  0  0  0  0  0  0
    6.1904   10.7438   24.5422 C   0  0  0  0  0  0  0  0  0  0  0  0
    5.7074   14.8622   20.7184 C   0  0  0  0  0  0  0  0  0  0  0  0
    5.8226   12.4716   21.0482 C   0  0  0  0  0  0  0  0  0  0  0  0
    4.3800   14.7415   20.3072 C   0  0  0  0  0  0  0  0  0  0  0  0
    4.4952   12.3509   20.6371 C   0  0  0  0  0  0  0  0  0  0  0  0
   11.8801   15.3589   22.2650 C   0  0  0  0  0  0  0  0  0  0  0  0
   10.7758   15.9156   21.5767 C   0  0  0  0  0  0  0  0  0  0  0  0
    8.0192   12.2998   24.6197 C   0  0  0  0  0  0  0  0  0  0  0  0
    7.5378   11.0273   24.3270 C   0  0  0  0  0  0  0  0  0  0  0  0
    6.4287   13.7272   21.0888 C   0  0  0  0  0  0  0  0  0  0  0  0
    3.7739   13.4858   20.2666 C   0  0  0  0  0  0  0  0  0  0  0  0
   11.3938   14.2694   22.9495 C   0  0  0  0  0  0  0  0  0  0  0  0
    9.6934   15.1265   21.8895 C   0  0  0  0  0  0  0  0  0  0  0  0
   10.1601   11.6387   23.9490 C   0  0  0  0  0  0  0  0  0  0  0  0
    9.6767   10.3725   23.5986 C   0  0  0  0  0  0  0  0  0  0  0  0
   12.0577   13.2957   23.8371 C   0  0  0  0  0  0  0  0  0  0  0  0
   12.7911   10.1167   22.8287 C   0  0  0  0  0  0  0  0  0  0  0  0
   12.5245   10.8895   24.1125 C   0  0  0  0  0  0  0  0  0  0  0  0
   11.5158    9.8012   22.0600 C   0  0  0  0  0  0  0  0  0  0  0  0
    9.9041    8.0528   22.8326 C   0  0  0  0  0  0  0  0  0  0  0  0
    8.2754   15.1668   21.5050 C   0  0  0  0  0  0  0  0  0  0  0  0
    9.3135   12.5825   24.4348 N   0  0  0  0  0  0  0  0  0  0  0  0
    8.3647   10.0941   23.8336 N   0  0  0  0  0  0  0  0  0  0  0  0
   11.5646   11.9782   23.9098 N   0  0  0  0  0  0  0  0  0  0  0  0
   10.4510    9.3946   22.9705 N   0  0  2  0  0  0  0  0  0  0  0  0
   13.0671   13.7021   24.4146 O   0  0  0  0  0  0  0  0  0  0  0  0
   10.0618   14.1208   22.7258 O   0  0  0  0  0  0  0  0  0  0  0  0
    7.7295   13.8455   21.4916 O   0  0  0  0  0  0  0  0  0  0  0  0
    2.4991   13.3699   19.8718 F   0  0  0  0  0  0  0  0  0  0  0  0
    5.1317   13.7439   25.7131 H   0  0  0  0  0  0  0  0  0  0  0  0
    4.2714   11.4713   25.1993 H   0  0  0  0  0  0  0  0  0  0  0  0
    7.5139   14.2630   25.3461 H   0  0  0  0  0  0  0  0  0  0  0  0
    5.8022    9.7525   24.3172 H   0  0  0  0  0  0  0  0  0  0  0  0
    6.1739   15.8431   20.7479 H   0  0  0  0  0  0  0  0  0  0  0  0
    6.3793   11.5837   21.3355 H   0  0  0  0  0  0  0  0  0  0  0  0
    3.8180   15.6249   20.0187 H   0  0  0  0  0  0  0  0  0  0  0  0
    4.0230   11.3734   20.6053 H   0  0  0  0  0  0  0  0  0  0  0  0
   12.9019   15.7107   22.2608 H   0  0  0  0  0  0  0  0  0  0  0  0
   10.7721   16.7845   20.9340 H   0  0  0  0  0  0  0  0  0  0  0  0
   13.4656   10.6891   22.1805 H   0  0  0  0  0  0  0  0  0  0  0  0
   13.3122    9.1850   23.0804 H   0  0  0  0  0  0  0  0  0  0  0  0
   12.1483   10.2286   24.9042 H   0  0  0  0  0  0  0  0  0  0  0  0
   13.4743   11.2857   24.4894 H   0  0  0  0  0  0  0  0  0  0  0  0
   11.1990   10.6648   21.4600 H   0  0  0  0  0  0  0  0  0  0  0  0
   11.7332    9.0086   21.3329 H   0  0  0  0  0  0  0  0  0  0  0  0
   10.6344    7.4095   22.3200 H   0  0  0  0  0  0  0  0  0  0  0  0
    9.6886    7.6406   23.8295 H   0  0  0  0  0  0  0  0  0  0  0  0
    8.9755    8.0941   22.2444 H   0  0  0  0  0  0  0  0  0  0  0  0
    7.6661   15.7746   22.2007 H   0  0  0  0  0  0  0  0  0  0  0  0
    8.1268   15.6037   20.4992 H   0  0  0  0  0  0  0  0  0  0  0  0
  1  2  1  0  0  0  0
  1  3  2  0  0  0  0
  2  4  2  0  0  0  0
  3 11  1  0  0  0  0
  4 12  1  0  0  0  0
  5  7  2  0  0  0  0
  5 13  1  0  0  0  0
  6  8  1  0  0  0  0
  6 13  2  0  0  0  0
  7 14  1  0  0  0  0
  8 14  2  0  0  0  0
  9 10  1  0  0  0  0
  9 15  2  0  0  0  0
 10 16  2  0  0  0  0
 11 12  1  0  0  0  0
 11 25  2  0  0  0  0
 12 26  2  0  0  0  0
 13 31  1  0  0  0  0
 14 32  1  0  0  0  0
 15 19  1  0  0  0  0
 15 30  1  0  0  0  0
 16 24  1  0  0  0  0
 16 30  1  0  0  0  0
 17 18  2  0  0  0  0
 17 25  1  0  0  0  0
 17 27  1  0  0  0  0
 18 26  1  0  0  0  0
 18 28  1  0  0  0  0
 19 27  1  0  0  0  0
 19 29  2  0  0  0  0
 20 21  1  0  0  0  0
 20 22  1  0  0  0  0
 21 27  1  0  0  0  0
 22 28  1  0  0  0  0
 23 28  1  0  0  0  0
 24 31  1  0  0  0  0
  1 33  1  0  0  0  0
  2 34  1  0  0  0  0
  3 35  1  0  0  0  0
  4 36  1  0  0  0  0
  5 37  1  0  0  0  0
  6 38  1  0  0  0  0
  7 39  1  0  0  0  0
  8 40  1  0  0  0  0
  9 41  1  0  0  0  0
 10 42  1  0  0  0  0
 20 43  1  0  0  0  0
 20 44  1  0  0  0  0
 21 45  1  0  0  0  0
 21 46  1  0  0  0  0
 22 47  1  0  0  0  0
 22 48  1  0  0  0  0
 23 49  1  0  0  0  0
 23 50  1  0  0  0  0
 23 51  1  0  0  0  0
 24 52  1  0  0  0  0
 24 53  1  0  0  0  0
M  END
> <idnumber>
Z86826947

> <heavy_atoms>
32

> <LogS>
-6.08

> <LogP>
3.883

> <rotating_bonds>
4

> <PSA>
71.7

> <hb_acceptors>
5

> <hb_donors>
0

> <Collection>
Legacy

> <link>
https://www.enaminestore.com/catalog/Z86826947

> <ROCS_ShapeQuery>
x0446_0A_x1080_0A_x0929_0A_x0812_0A_x0719_0A_x1140_0A_x0528_0A_x0310_0A

> <ROCS_TanimotoCombo>
0.461 

> <ROCS_ShapeTanimoto>
0.301 

> <ROCS_ColorTanimoto>
0.160 

> <ROCS_RefTversky>
0.271 

> <ROCS_RefColorTversky>
0.182 

> <ROCS_RefTverskyCombo>
0.453 

> <ROCS_FitTversky>
1.564 

> <ROCS_FitColorTversky>
0.573 

> <ROCS_FitTverskyCombo>
2.137 

> <ROCS_ColorScore>
-6.515

> <ROCS_Overlap>
3213.428

> <ROCS_Rank>
246                 

$$$$
untitled-dbase-1117362_1
  -OEChem-02092406493D

 34 38  0     1  0  0  0  0  0999 V2000
    5.3744   12.4492   25.2898 C   0  0  0  0  0  0  0  0  0  0  0  0
    6.2287   13.5410   25.4850 C   0  0  0  0  0  0  0  0  0  0  0  0
    5.8636   11.2587   24.7562 C   0  0  0  0  0  0  0  0  0  0  0  0
    7.5824   13.4553   25.1464 C   0  0  0  0  0  0  0  0  0  0  0  0
   12.9505   15.5161   22.5977 C   0  0  0  0  0  0  0  0  0  0  0  0
    8.7513   15.3565   21.2297 C   0  0  0  0  0  0  0  0  0  0  0  0
   10.9800   14.4427   22.3641 C   0  0  0  0  0  0  0  0  0  0  0  0
    7.2085   11.1891   24.4201 C   0  0  0  0  0  0  0  0  0  0  0  0
    8.0856   12.2759   24.6046 C   0  0  0  0  0  0  0  0  0  0  0  0
   12.3031   14.3278   22.8623 C   0  0  0  0  0  0  0  0  0  0  0  0
   10.8658   15.7102   21.8062 C   0  0  0  0  0  0  0  0  0  0  0  0
    9.8474   13.6317   22.3096 C   0  0  0  0  0  0  0  0  0  0  0  0
    7.9256    9.9831   23.8582 C   0  0  0  0  0  0  0  0  0  0  0  0
    9.6052   11.1110   22.1659 C   0  0  0  0  0  0  0  0  0  0  0  0
    9.5118   11.8931   24.1404 C   0  0  1  0  0  0  0  0  0  0  0  0
    9.3645   10.4618   23.5411 C   0  0  1  0  0  0  0  0  0  0  0  0
    9.7753   16.2340   21.2198 N   0  0  0  0  0  0  0  0  0  0  0  0
    8.7177   14.1016   21.7319 N   0  0  0  0  0  0  0  0  0  0  0  0
   12.0689   16.3475   21.9556 N   0  0  0  0  0  0  0  0  0  0  0  0
    9.8466   12.3467   22.8325 N   0  0  2  0  0  0  0  0  0  0  0  0
   13.0557   12.8445   23.7252 Br  0  0  0  0  0  0  0  0  0  0  0  0
    4.3252   12.5305   25.5599 H   0  0  0  0  0  0  0  0  0  0  0  0
    5.8359   14.4631   25.9049 H   0  0  0  0  0  0  0  0  0  0  0  0
    5.2055   10.4086   24.6113 H   0  0  0  0  0  0  0  0  0  0  0  0
    8.2364   14.3076   25.3040 H   0  0  0  0  0  0  0  0  0  0  0  0
   13.9588   15.8472   22.8048 H   0  0  0  0  0  0  0  0  0  0  0  0
    7.8300   15.7026   20.7735 H   0  0  0  0  0  0  0  0  0  0  0  0
    7.9532    9.1968   24.6203 H   0  0  0  0  0  0  0  0  0  0  0  0
    7.4266    9.6038   22.9611 H   0  0  0  0  0  0  0  0  0  0  0  0
   10.4851   10.7504   21.6264 H   0  0  0  0  0  0  0  0  0  0  0  0
    8.7404   11.1504   21.4967 H   0  0  0  0  0  0  0  0  0  0  0  0
   10.3219   12.0230   24.8640 H   0  0  0  0  0  0  0  0  0  0  0  0
   10.1427    9.7505   23.8395 H   0  0  0  0  0  0  0  0  0  0  0  0
   12.2756   17.2850   21.6404 H   0  0  0  0  0  0  0  0  0  0  0  0
  1  2  1  0  0  0  0
  1  3  2  0  0  0  0
  2  4  2  0  0  0  0
  3  8  1  0  0  0  0
  4  9  1  0  0  0  0
  5 10  2  0  0  0  0
  5 19  1  0  0  0  0
  6 17  2  0  0  0  0
  6 18  1  0  0  0  0
  7 10  1  0  0  0  0
  7 11  2  0  0  0  0
  7 12  1  0  0  0  0
  8  9  2  0  0  0  0
  8 13  1  0  0  0  0
  9 15  1  0  0  0  0
 10 21  1  0  0  0  0
 11 17  1  0  0  0  0
 11 19  1  0  0  0  0
 12 18  2  0  0  0  0
 12 20  1  0  0  0  0
 13 16  1  0  0  0  0
 14 16  1  6  0  0  0
 14 20  1  0  0  0  0
 15 16  1  0  0  0  0
 15 20  1  6  0  0  0
  1 22  1  0  0  0  0
  2 23  1  0  0  0  0
  3 24  1  0  0  0  0
  4 25  1  0  0  0  0
  5 26  1  0  0  0  0
  6 27  1  0  0  0  0
 13 28  1  0  0  0  0
 13 29  1  0  0  0  0
 14 30  1  0  0  0  0
 14 31  1  0  0  0  0
 15 32  1  0  0  0  0
 16 33  1  0  0  0  0
 19 34  1  0  0  0  0
M  END
> <idnumber>
Z5217571934

> <heavy_atoms>
21

> <LogS>
-5.976

> <LogP>
3.149

> <rotating_bonds>
1

> <PSA>
44.81

> <hb_acceptors>
3

> <hb_donors>
1

> <Collection>
Advanced

> <link>
https://www.enaminestore.com/catalog/Z5217571934

> <ROCS_ShapeQuery>
x0446_0A_x1080_0A_x0929_0A_x0812_0A_x0719_0A_x1140_0A_x0528_0A_x0310_0A

> <ROCS_TanimotoCombo>
0.461 

> <ROCS_ShapeTanimoto>
0.266 

> <ROCS_ColorTanimoto>
0.195 

> <ROCS_RefTversky>
0.238 

> <ROCS_RefColorTversky>
0.225 

> <ROCS_RefTverskyCombo>
0.463 

> <ROCS_FitTversky>
1.796 

> <ROCS_FitColorTversky>
0.592 

> <ROCS_FitTverskyCombo>
2.388 

> <ROCS_ColorScore>
-8.099

> <ROCS_Overlap>
2810.665

> <ROCS_Rank>
247                 

$$$$
untitled-dbase-689733_113
  -OEChem-02092406493D

 45 48  0     0  0  0  0  0  0999 V2000
    6.1757   10.7139   24.4510 C   0  0  0  0  0  0  0  0  0  0  0  0
    5.4549   11.8544   24.8138 C   0  0  0  0  0  0  0  0  0  0  0  0
    7.4235   13.2495   24.5473 C   0  0  0  0  0  0  0  0  0  0  0  0
   13.6177   15.2839   23.0569 C   0  0  0  0  0  0  0  0  0  0  0  0
    8.1758   12.1146   24.1779 C   0  0  0  0  0  0  0  0  0  0  0  0
    9.5360   11.8925   23.8042 C   0  0  0  0  0  0  0  0  0  0  0  0
    7.5309   10.8729   24.1391 C   0  0  0  0  0  0  0  0  0  0  0  0
    6.0673   13.1041   24.8615 C   0  0  0  0  0  0  0  0  0  0  0  0
   12.7924   14.3131   22.5291 C   0  0  0  0  0  0  0  0  0  0  0  0
    9.6691   10.5430   23.5518 C   0  0  0  0  0  0  0  0  0  0  0  0
   11.8673   16.0723   21.6020 C   0  0  0  0  0  0  0  0  0  0  0  0
   10.6435   12.8228   23.6679 C   0  0  0  0  0  0  0  0  0  0  0  0
   11.9445   12.1522   23.3208 C   0  0  0  0  0  0  0  0  0  0  0  0
   12.9127   12.9110   22.7887 C   0  0  0  0  0  0  0  0  0  0  0  0
    9.6641   16.6473   20.5886 C   0  0  0  0  0  0  0  0  0  0  0  0
   10.9070    9.8479   23.1225 C   0  0  0  0  0  0  0  0  0  0  0  0
   12.1133   10.6727   23.5905 C   0  0  0  0  0  0  0  0  0  0  0  0
    9.0304   17.2961   19.3794 C   0  0  0  0  0  0  0  0  0  0  0  0
   12.1594   18.1469   19.0370 C   0  0  0  0  0  0  0  0  0  0  0  0
   11.6063   18.2407   20.4183 C   0  0  0  0  0  0  0  0  0  0  0  0
   11.7878   14.7634   21.6948 N   0  0  0  0  0  0  0  0  0  0  0  0
    8.4642    9.9356   23.7537 N   0  0  0  0  0  0  0  0  0  0  0  0
   11.0622   16.9112   20.8780 N   0  0  0  0  0  0  0  0  0  0  0  0
   10.5303   14.0325   23.8186 O   0  0  0  0  0  0  0  0  0  0  0  0
    8.9515   15.9353   21.3007 O   0  0  0  0  0  0  0  0  0  0  0  0
    5.3512   14.1810   25.2124 F   0  0  0  0  0  0  0  0  0  0  0  0
   13.1264   16.8265   22.4911 S   0  0  0  0  0  0  0  0  0  0  0  0
    5.6973    9.7408   24.4134 H   0  0  0  0  0  0  0  0  0  0  0  0
    4.4007   11.7637   25.0619 H   0  0  0  0  0  0  0  0  0  0  0  0
    7.8822   14.2330   24.5913 H   0  0  0  0  0  0  0  0  0  0  0  0
   14.4600   15.1729   23.7259 H   0  0  0  0  0  0  0  0  0  0  0  0
   13.8406   12.4155   22.5133 H   0  0  0  0  0  0  0  0  0  0  0  0
   10.9613    8.8370   23.5412 H   0  0  0  0  0  0  0  0  0  0  0  0
   10.9135    9.7594   22.0295 H   0  0  0  0  0  0  0  0  0  0  0  0
   13.0212   10.2809   23.1163 H   0  0  0  0  0  0  0  0  0  0  0  0
   12.2426   10.5411   24.6734 H   0  0  0  0  0  0  0  0  0  0  0  0
    9.1425   16.6532   18.5023 H   0  0  0  0  0  0  0  0  0  0  0  0
    9.4699   18.2807   19.1996 H   0  0  0  0  0  0  0  0  0  0  0  0
    7.9592   17.4321   19.5601 H   0  0  0  0  0  0  0  0  0  0  0  0
   11.3659   17.8297   18.3444 H   0  0  0  0  0  0  0  0  0  0  0  0
   12.5436   19.1304   18.7285 H   0  0  0  0  0  0  0  0  0  0  0  0
   12.9773   17.4116   19.0189 H   0  0  0  0  0  0  0  0  0  0  0  0
   12.4054   18.5582   21.1043 H   0  0  0  0  0  0  0  0  0  0  0  0
   10.7955   18.9840   20.4306 H   0  0  0  0  0  0  0  0  0  0  0  0
    8.2792    8.9486   23.6379 H   0  0  0  0  0  0  0  0  0  0  0  0
  1  2  2  0  0  0  0
  1  7  1  0  0  0  0
  2  8  1  0  0  0  0
  3  5  1  0  0  0  0
  3  8  2  0  0  0  0
  4  9  2  0  0  0  0
  4 27  1  0  0  0  0
  5  6  1  0  0  0  0
  5  7  2  0  0  0  0
  6 10  2  0  0  0  0
  6 12  1  0  0  0  0
  7 22  1  0  0  0  0
  8 26  1  0  0  0  0
  9 14  1  4  0  0  0
  9 21  1  0  0  0  0
 10 16  1  0  0  0  0
 10 22  1  0  0  0  0
 11 21  2  0  0  0  0
 11 23  1  0  0  0  0
 11 27  1  0  0  0  0
 12 13  1  0  0  0  0
 12 24  2  0  0  0  0
 13 14  2  0  0  0  0
 13 17  1  0  0  0  0
 15 18  1  0  0  0  0
 15 23  1  0  0  0  0
 15 25  2  0  0  0  0
 16 17  1  0  0  0  0
 19 20  1  0  0  0  0
 20 23  1  0  0  0  0
  1 28  1  0  0  0  0
  2 29  1  0  0  0  0
  3 30  1  0  0  0  0
  4 31  1  0  0  0  0
 14 32  1  0  0  0  0
 16 33  1  0  0  0  0
 16 34  1  0  0  0  0
 17 35  1  0  0  0  0
 17 36  1  0  0  0  0
 18 37  1  0  0  0  0
 18 38  1  0  0  0  0
 18 39  1  0  0  0  0
 19 40  1  0  0  0  0
 19 41  1  0  0  0  0
 19 42  1  0  0  0  0
 20 43  1  0  0  0  0
 20 44  1  0  0  0  0
 22 45  1  0  0  0  0
M  END
> <idnumber>
Z353866024

> <heavy_atoms>
27

> <LogS>
-6.122

> <LogP>
2.613

> <rotating_bonds>
3

> <PSA>
66.06

> <hb_acceptors>
3

> <hb_donors>
1

> <Collection>
Legacy

> <link>
https://www.enaminestore.com/catalog/Z353866024

> <ROCS_ShapeQuery>
x0446_0A_x1080_0A_x0929_0A_x0812_0A_x0719_0A_x1140_0A_x0528_0A_x0310_0A

> <ROCS_TanimotoCombo>
0.461 

> <ROCS_ShapeTanimoto>
0.264 

> <ROCS_ColorTanimoto>
0.197 

> <ROCS_RefTversky>
0.241 

> <ROCS_RefColorTversky>
0.208 

> <ROCS_RefTverskyCombo>
0.449 

> <ROCS_FitTversky>
1.584 

> <ROCS_FitColorTversky>
0.784 

> <ROCS_FitTverskyCombo>
2.367 

> <ROCS_ColorScore>
-7.442

> <ROCS_Overlap>
2845.049

> <ROCS_Rank>
248                 

$$$$
untitled-dbase-228081_33
  -OEChem-02092406493D

 46 50  0     1  0  0  0  0  0999 V2000
   12.9401   14.6228   22.6784 C   0  0  0  0  0  0  0  0  0  0  0  0
   12.7572   15.8695   22.0905 C   0  0  0  0  0  0  0  0  0  0  0  0
   11.8566   13.7597   22.8087 C   0  0  0  0  0  0  0  0  0  0  0  0
   11.4920   16.2504   21.6340 C   0  0  0  0  0  0  0  0  0  0  0  0
    5.0076   10.9735   25.3726 C   0  0  0  0  0  0  0  0  0  0  0  0
    3.9364   11.7550   25.8456 C   0  0  0  0  0  0  0  0  0  0  0  0
   10.5875   14.1501   22.3472 C   0  0  0  0  0  0  0  0  0  0  0  0
   10.3902   15.4066   21.7515 C   0  0  0  0  0  0  0  0  0  0  0  0
    5.9714   11.8875   25.0233 C   0  0  0  0  0  0  0  0  0  0  0  0
    9.4634   13.3350   22.4469 C   0  0  0  0  0  0  0  0  0  0  0  0
    8.1709   14.9099   21.4610 C   0  0  0  0  0  0  0  0  0  0  0  0
    7.3786   11.1726   23.2833 C   0  0  0  0  0  0  0  0  0  0  0  0
    7.2723   11.7769   24.4883 C   0  0  0  0  0  0  0  0  0  0  0  0
    8.5267   12.3039   25.1846 C   0  0  0  0  0  0  0  0  0  0  0  0
    9.4502    9.7937   23.2834 C   0  0  0  0  0  0  0  0  0  0  0  0
   10.1028   10.3970   24.5375 C   0  0  0  0  0  0  0  0  0  0  0  0
    8.7281   10.9751   22.6199 C   0  0  2  0  0  0  0  0  0  0  0  0
    9.8352   11.9163   24.4463 C   0  0  1  0  0  0  0  0  0  0  0  0
    6.0584   14.4067   25.1073 C   0  0  0  0  0  0  0  0  0  0  0  0
    6.8326   15.3422   20.9653 C   0  0  0  0  0  0  0  0  0  0  0  0
    4.1951   13.0647   25.8022 N   0  0  0  0  0  0  0  0  0  0  0  0
    9.1808   15.7901   21.3064 N   0  0  0  0  0  0  0  0  0  0  0  0
    8.2389   13.6874   22.0123 N   0  0  0  0  0  0  0  0  0  0  0  0
    5.4398   13.1132   25.2979 N   0  0  0  0  0  0  0  0  0  0  0  0
    9.5808   12.0995   23.0141 N   0  0  2  0  0  0  0  0  0  0  0  0
    6.8772   15.6262   19.6371 F   0  0  0  0  0  0  0  0  0  0  0  0
    6.4311   16.4808   21.5892 F   0  0  0  0  0  0  0  0  0  0  0  0
   13.9221   14.3250   23.0333 H   0  0  0  0  0  0  0  0  0  0  0  0
   13.5975   16.5495   21.9840 H   0  0  0  0  0  0  0  0  0  0  0  0
   12.0246   12.7910   23.2722 H   0  0  0  0  0  0  0  0  0  0  0  0
   11.3755   17.2326   21.1792 H   0  0  0  0  0  0  0  0  0  0  0  0
    5.0670    9.8972   25.2976 H   0  0  0  0  0  0  0  0  0  0  0  0
    2.9782   11.4246   26.2200 H   0  0  0  0  0  0  0  0  0  0  0  0
    6.5089   10.7795   22.7627 H   0  0  0  0  0  0  0  0  0  0  0  0
    8.4544   13.3972   25.2473 H   0  0  0  0  0  0  0  0  0  0  0  0
    8.5607   11.9228   26.2126 H   0  0  0  0  0  0  0  0  0  0  0  0
   10.2312    9.4075   22.6173 H   0  0  0  0  0  0  0  0  0  0  0  0
    8.7832    8.9618   23.5342 H   0  0  0  0  0  0  0  0  0  0  0  0
    9.7012    9.9542   25.4549 H   0  0  0  0  0  0  0  0  0  0  0  0
   11.1808   10.1990   24.5156 H   0  0  0  0  0  0  0  0  0  0  0  0
    8.6398   10.8656   21.5345 H   0  0  0  0  0  0  0  0  0  0  0  0
   10.6892   12.4956   24.8133 H   0  0  0  0  0  0  0  0  0  0  0  0
    5.8108   14.7540   24.1007 H   0  0  0  0  0  0  0  0  0  0  0  0
    5.6784   15.1061   25.8572 H   0  0  0  0  0  0  0  0  0  0  0  0
    7.1414   14.3102   25.2240 H   0  0  0  0  0  0  0  0  0  0  0  0
    6.0626   14.5842   21.1213 H   0  0  0  0  0  0  0  0  0  0  0  0
  1  2  1  0  0  0  0
  1  3  2  0  0  0  0
  2  4  2  0  0  0  0
  3  7  1  0  0  0  0
  4  8  1  0  0  0  0
  5  6  1  0  0  0  0
  5  9  2  0  0  0  0
  6 21  2  0  0  0  0
  7  8  1  0  0  0  0
  7 10  2  0  0  0  0
  8 22  2  0  0  0  0
  9 13  1  0  0  0  0
  9 24  1  0  0  0  0
 10 23  1  0  0  0  0
 10 25  1  0  0  0  0
 11 20  1  0  0  0  0
 11 22  1  0  0  0  0
 11 23  2  0  0  0  0
 12 13  2  0  0  0  0
 12 17  1  0  0  0  0
 13 14  1  0  0  0  0
 14 18  1  0  0  0  0
 15 16  1  0  0  0  0
 15 17  1  0  0  0  0
 16 18  1  0  0  0  0
 17 25  1  0  0  0  0
 18 25  1  0  0  0  0
 19 24  1  0  0  0  0
 20 26  1  0  0  0  0
 20 27  1  0  0  0  0
 21 24  1  0  0  0  0
  1 28  1  0  0  0  0
  2 29  1  0  0  0  0
  3 30  1  0  0  0  0
  4 31  1  0  0  0  0
  5 32  1  0  0  0  0
  6 33  1  0  0  0  0
 12 34  1  0  0  0  0
 14 35  1  0  0  0  0
 14 36  1  0  0  0  0
 15 37  1  0  0  0  0
 15 38  1  0  0  0  0
 16 39  1  0  0  0  0
 16 40  1  0  0  0  0
 17 41  1  0  0  0  0
 18 42  1  0  0  0  0
 19 43  1  0  0  0  0
 19 44  1  0  0  0  0
 19 45  1  0  0  0  0
 20 46  1  0  0  0  0
M  END
> <idnumber>
Z2017206175

> <heavy_atoms>
27

> <LogS>
-4.374

> <LogP>
2.579

> <rotating_bonds>
3

> <PSA>
46.84

> <hb_acceptors>
4

> <hb_donors>
0

> <Collection>
HTS

> <link>
https://www.enaminestore.com/catalog/Z2017206175

> <ROCS_ShapeQuery>
x0446_0A_x1080_0A_x0929_0A_x0812_0A_x0719_0A_x1140_0A_x0528_0A_x0310_0A

> <ROCS_TanimotoCombo>
0.461 

> <ROCS_ShapeTanimoto>
0.280 

> <ROCS_ColorTanimoto>
0.181 

> <ROCS_RefTversky>
0.253 

> <ROCS_RefColorTversky>
0.209 

> <ROCS_RefTverskyCombo>
0.462 

> <ROCS_FitTversky>
1.625 

> <ROCS_FitColorTversky>
0.574 

> <ROCS_FitTverskyCombo>
2.198 

> <ROCS_ColorScore>
-7.500

> <ROCS_Overlap>
2991.605

> <ROCS_Rank>
249                 

$$$$
untitled-dbase-776052_32
  -OEChem-02092406493D

 50 53  0     1  0  0  0  0  0999 V2000
   12.3497   15.7983   20.8520 C   0  0  0  0  0  0  0  0  0  0  0  0
   13.1389   15.0062   21.6858 C   0  0  0  0  0  0  0  0  0  0  0  0
   11.0036   16.0038   21.1545 C   0  0  0  0  0  0  0  0  0  0  0  0
   12.5820   14.4196   22.8222 C   0  0  0  0  0  0  0  0  0  0  0  0
   10.4467   15.4172   22.2909 C   0  0  0  0  0  0  0  0  0  0  0  0
   11.2359   14.6251   23.1248 C   0  0  0  0  0  0  0  0  0  0  0  0
    5.0183   12.6677   22.3979 C   0  0  0  0  0  0  0  0  0  0  0  0
    5.7401   13.0447   23.4588 C   0  0  0  0  0  0  0  0  0  0  0  0
    6.0320   14.4830   23.6604 C   0  0  0  0  0  0  0  0  0  0  0  0
    4.7471   14.9396   21.5726 C   0  0  0  0  0  0  0  0  0  0  0  0
    6.2096   11.9910   24.3781 C   0  0  0  0  0  0  0  0  0  0  0  0
    9.0288    9.7240   24.1709 C   0  0  0  0  0  0  0  0  0  0  0  0
    8.7893   10.1479   22.7107 C   0  0  0  0  0  0  0  0  0  0  0  0
    9.4485   11.9721   25.3190 C   0  0  0  0  0  0  0  0  0  0  0  0
    9.0583   12.6888   22.8594 C   0  0  0  0  0  0  0  0  0  0  0  0
    8.4280   10.8545   25.0156 C   0  0  1  0  0  0  0  0  0  0  0  0
    8.0754   11.4987   22.8072 C   0  0  2  0  0  0  0  0  0  0  0  0
   10.0640   12.6064   24.0402 C   0  0  0  0  0  0  0  0  0  0  0  0
    3.7461   13.0511   20.3415 C   0  0  0  0  0  0  0  0  0  0  0  0
   10.6354   13.9933   24.3485 C   0  0  0  0  0  0  0  0  0  0  0  0
    5.5042   15.3191   22.6876 N   0  0  0  0  0  0  0  0  0  0  0  0
    4.5232   13.5592   21.4664 N   0  0  0  0  0  0  0  0  0  0  0  0
    7.4381   11.4263   24.1109 N   0  0  0  0  0  0  0  0  0  0  0  0
    6.6894   14.8783   24.6187 O   0  0  0  0  0  0  0  0  0  0  0  0
    4.3292   15.7787   20.7719 O   0  0  0  0  0  0  0  0  0  0  0  0
    5.4881   11.6744   25.3241 O   0  0  0  0  0  0  0  0  0  0  0  0
   11.1683   11.7994   23.6106 O   0  0  0  0  0  0  0  0  0  0  0  0
   12.7838   16.2561   19.9679 H   0  0  0  0  0  0  0  0  0  0  0  0
   14.1873   14.8469   21.4510 H   0  0  0  0  0  0  0  0  0  0  0  0
   10.3891   16.6213   20.5061 H   0  0  0  0  0  0  0  0  0  0  0  0
   13.2045   13.8038   23.4661 H   0  0  0  0  0  0  0  0  0  0  0  0
    9.3970   15.5827   22.5186 H   0  0  0  0  0  0  0  0  0  0  0  0
    4.7815   11.6241   22.2127 H   0  0  0  0  0  0  0  0  0  0  0  0
    8.4925    8.7866   24.3622 H   0  0  0  0  0  0  0  0  0  0  0  0
   10.0867    9.5431   24.3835 H   0  0  0  0  0  0  0  0  0  0  0  0
    9.7180   10.1921   22.1338 H   0  0  0  0  0  0  0  0  0  0  0  0
    8.1373    9.4109   22.2264 H   0  0  0  0  0  0  0  0  0  0  0  0
    8.9350   12.7475   25.9024 H   0  0  0  0  0  0  0  0  0  0  0  0
   10.2450   11.5647   25.9545 H   0  0  0  0  0  0  0  0  0  0  0  0
    9.5978   12.7459   21.9058 H   0  0  0  0  0  0  0  0  0  0  0  0
    8.4657   13.6091   22.9483 H   0  0  0  0  0  0  0  0  0  0  0  0
    7.9910   10.4686   25.9391 H   0  0  0  0  0  0  0  0  0  0  0  0
    7.3469   11.6422   22.0029 H   0  0  0  0  0  0  0  0  0  0  0  0
    2.6809   13.0215   20.6146 H   0  0  0  0  0  0  0  0  0  0  0  0
    3.8835   13.7118   19.4729 H   0  0  0  0  0  0  0  0  0  0  0  0
    4.0879   12.0367   20.0883 H   0  0  0  0  0  0  0  0  0  0  0  0
   11.3893   13.9052   25.1354 H   0  0  0  0  0  0  0  0  0  0  0  0
    9.8412   14.6290   24.7492 H   0  0  0  0  0  0  0  0  0  0  0  0
    5.6849   16.3134   22.7946 H   0  0  0  0  0  0  0  0  0  0  0  0
   11.5198   12.2271   22.8173 H   0  0  0  0  0  0  0  0  0  0  0  0
  1  2  1  0  0  0  0
  1  3  2  0  0  0  0
  2  4  2  0  0  0  0
  3  5  1  0  0  0  0
  4  6  1  0  0  0  0
  5  6  2  0  0  0  0
  6 20  1  0  0  0  0
  7  8  2  0  0  0  0
  7 22  1  0  0  0  0
  8  9  1  0  0  0  0
  8 11  1  0  0  0  0
  9 21  1  0  0  0  0
  9 24  2  0  0  0  0
 10 21  1  0  0  0  0
 10 22  1  0  0  0  0
 10 25  2  0  0  0  0
 11 23  1  0  0  0  0
 11 26  2  0  0  0  0
 12 13  1  0  0  0  0
 12 16  1  0  0  0  0
 13 17  1  0  0  0  0
 14 16  1  0  0  0  0
 14 18  1  0  0  0  0
 15 17  1  0  0  0  0
 15 18  1  0  0  0  0
 16 23  1  0  0  0  0
 17 23  1  0  0  0  0
 18 20  1  0  0  0  0
 18 27  1  0  0  0  0
 19 22  1  0  0  0  0
  1 28  1  0  0  0  0
  2 29  1  0  0  0  0
  3 30  1  0  0  0  0
  4 31  1  0  0  0  0
  5 32  1  0  0  0  0
  7 33  1  0  0  0  0
 12 34  1  0  0  0  0
 12 35  1  0  0  0  0
 13 36  1  0  0  0  0
 13 37  1  0  0  0  0
 14 38  1  0  0  0  0
 14 39  1  0  0  0  0
 15 40  1  0  0  0  0
 15 41  1  0  0  0  0
 16 42  1  0  0  0  0
 17 43  1  0  0  0  0
 19 44  1  0  0  0  0
 19 45  1  0  0  0  0
 19 46  1  0  0  0  0
 20 47  1  0  0  0  0
 20 48  1  0  0  0  0
 21 49  1  0  0  0  0
 27 50  1  0  0  0  0
M  END
> <idnumber>
Z2184308792

> <heavy_atoms>
27

> <LogS>
-3.723

> <LogP>
-0.319

> <rotating_bonds>
3

> <PSA>
89.95

> <hb_acceptors>
4

> <hb_donors>
2

> <Collection>
HTS

> <link>
https://www.enaminestore.com/catalog/Z2184308792

> <ROCS_ShapeQuery>
x0446_0A_x1080_0A_x0929_0A_x0812_0A_x0719_0A_x1140_0A_x0528_0A_x0310_0A

> <ROCS_TanimotoCombo>
0.461 

> <ROCS_ShapeTanimoto>
0.261 

> <ROCS_ColorTanimoto>
0.199 

> <ROCS_RefTversky>
0.239 

> <ROCS_RefColorTversky>
0.235 

> <ROCS_RefTverskyCombo>
0.474 

> <ROCS_FitTversky>
1.569 

> <ROCS_FitColorTversky>
0.566 

> <ROCS_FitTverskyCombo>
2.135 

> <ROCS_ColorScore>
-8.482

> <ROCS_Overlap>
2823.902

> <ROCS_Rank>
250                 

$$$$
untitled-dbase-323099_15
  -OEChem-02092406493D

 44 48  0     0  0  0  0  0  0999 V2000
   12.5923   16.1959   22.1563 C   0  0  0  0  0  0  0  0  0  0  0  0
   12.2881   15.3539   21.0867 C   0  0  0  0  0  0  0  0  0  0  0  0
   12.3435   15.7797   23.4642 C   0  0  0  0  0  0  0  0  0  0  0  0
    5.0209    8.5178   25.8986 C   0  0  0  0  0  0  0  0  0  0  0  0
    4.1012    9.4055   26.4458 C   0  0  0  0  0  0  0  0  0  0  0  0
    5.5725   15.9993   24.4823 C   0  0  0  0  0  0  0  0  0  0  0  0
   11.7350   14.0958   21.3249 C   0  0  0  0  0  0  0  0  0  0  0  0
   11.7904   14.5216   23.7024 C   0  0  0  0  0  0  0  0  0  0  0  0
    6.7226   15.2903   24.8107 C   0  0  0  0  0  0  0  0  0  0  0  0
    6.1742    9.0052   25.2940 C   0  0  0  0  0  0  0  0  0  0  0  0
    4.3791   10.7603   26.3631 C   0  0  0  0  0  0  0  0  0  0  0  0
    5.3761   16.3369   23.1529 C   0  0  0  0  0  0  0  0  0  0  0  0
   11.5815   11.2500   22.4578 C   0  0  0  0  0  0  0  0  0  0  0  0
    9.6815   12.0749   23.5369 C   0  0  0  0  0  0  0  0  0  0  0  0
   11.4862   13.6796   22.6328 C   0  0  0  0  0  0  0  0  0  0  0  0
   10.9146   12.3799   22.8792 C   0  0  0  0  0  0  0  0  0  0  0  0
    7.6284   14.9455   23.8137 C   0  0  0  0  0  0  0  0  0  0  0  0
    6.3593   10.3780   25.2628 C   0  0  0  0  0  0  0  0  0  0  0  0
    7.3399   15.3300   22.5142 C   0  0  0  0  0  0  0  0  0  0  0  0
    8.6896   12.8710   24.1185 C   0  0  0  0  0  0  0  0  0  0  0  0
    9.4714   10.7028   23.5820 C   0  0  0  0  0  0  0  0  0  0  0  0
    7.5308   10.9550   24.6532 C   0  0  0  0  0  0  0  0  0  0  0  0
    5.4885   11.2713   25.7837 N   0  0  0  0  0  0  0  0  0  0  0  0
    6.2332   16.0194   22.1568 N   0  0  0  0  0  0  0  0  0  0  0  0
    7.6034   12.3002   24.6818 N   0  0  0  0  0  0  0  0  0  0  0  0
    8.4091   10.0810   24.1299 N   0  0  0  0  0  0  0  0  0  0  0  0
    8.2934   14.9604   21.5115 N   0  3  0  0  0  0  0  0  0  0  0  0
    9.2251   15.7515   21.2548 O   0  5  0  0  0  0  0  0  0  0  0  0
    8.1548   13.8619   20.9337 O   0  0  0  0  0  0  0  0  0  0  0  0
    8.7672   14.2423   24.1456 O   0  0  0  0  0  0  0  0  0  0  0  0
   10.7313    9.8186   22.8504 S   0  0  0  0  0  0  0  0  0  0  0  0
   13.0240   17.1752   21.9711 H   0  0  0  0  0  0  0  0  0  0  0  0
   12.4829   15.6773   20.0684 H   0  0  0  0  0  0  0  0  0  0  0  0
   12.5816   16.4350   24.2969 H   0  0  0  0  0  0  0  0  0  0  0  0
    4.8387    7.4482   25.9421 H   0  0  0  0  0  0  0  0  0  0  0  0
    3.1940    9.0485   26.9196 H   0  0  0  0  0  0  0  0  0  0  0  0
    4.8531   16.2793   25.2431 H   0  0  0  0  0  0  0  0  0  0  0  0
   11.5034   13.4509   20.4804 H   0  0  0  0  0  0  0  0  0  0  0  0
   11.6025   14.2119   24.7279 H   0  0  0  0  0  0  0  0  0  0  0  0
    6.9068   15.0101   25.8440 H   0  0  0  0  0  0  0  0  0  0  0  0
    6.8980    8.3193   24.8656 H   0  0  0  0  0  0  0  0  0  0  0  0
    3.6943   11.4946   26.7745 H   0  0  0  0  0  0  0  0  0  0  0  0
    4.4953   16.8903   22.8445 H   0  0  0  0  0  0  0  0  0  0  0  0
   12.5280   11.1858   21.9378 H   0  0  0  0  0  0  0  0  0  0  0  0
  1  2  1  0  0  0  0
  1  3  2  0  0  0  0
  2  7  2  0  0  0  0
  3  8  1  0  0  0  0
  4  5  1  0  0  0  0
  4 10  2  0  0  0  0
  5 11  2  0  0  0  0
  6  9  2  0  0  0  0
  6 12  1  0  0  0  0
  7 15  1  0  0  0  0
  8 15  2  0  0  0  0
  9 17  1  0  0  0  0
 10 18  1  0  0  0  0
 11 23  1  0  0  0  0
 12 24  2  0  0  0  0
 13 16  2  0  0  0  0
 13 31  1  0  0  0  0
 14 16  1  0  0  0  0
 14 20  2  0  0  0  0
 14 21  1  0  0  0  0
 15 16  1  0  0  0  0
 17 19  2  0  0  0  0
 17 30  1  0  0  0  0
 18 22  1  0  0  0  0
 18 23  2  0  0  0  0
 19 24  1  0  0  0  0
 19 27  1  0  0  0  0
 20 25  1  0  0  0  0
 20 30  1  0  0  0  0
 21 26  2  0  0  0  0
 21 31  1  0  0  0  0
 22 25  2  0  0  0  0
 22 26  1  0  0  0  0
 27 28  1  0  0  0  0
 27 29  2  0  0  0  0
  1 32  1  0  0  0  0
  2 33  1  0  0  0  0
  3 34  1  0  0  0  0
  4 35  1  0  0  0  0
  5 36  1  0  0  0  0
  6 37  1  0  0  0  0
  7 38  1  0  0  0  0
  8 39  1  0  0  0  0
  9 40  1  0  0  0  0
 10 41  1  0  0  0  0
 11 42  1  0  0  0  0
 12 43  1  0  0  0  0
 13 44  1  0  0  0  0
M  CHG  2  27   1  28  -1
M  END
> <idnumber>
Z31112530

> <heavy_atoms>
31

> <LogS>
-7.9

> <LogP>
3.919

> <rotating_bonds>
5

> <PSA>
103.93

> <hb_acceptors>
6

> <hb_donors>
0

> <Collection>
Legacy

> <link>
https://www.enaminestore.com/catalog/Z31112530

> <ROCS_ShapeQuery>
x0446_0A_x1080_0A_x0929_0A_x0812_0A_x0719_0A_x1140_0A_x0528_0A_x0310_0A

> <ROCS_TanimotoCombo>
0.461 

> <ROCS_ShapeTanimoto>
0.293 

> <ROCS_ColorTanimoto>
0.168 

> <ROCS_RefTversky>
0.265 

> <ROCS_RefColorTversky>
0.197 

> <ROCS_RefTverskyCombo>
0.462 

> <ROCS_FitTversky>
1.558 

> <ROCS_FitColorTversky>
0.532 

> <ROCS_FitTverskyCombo>
2.090 

> <ROCS_ColorScore>
-7.075

> <ROCS_Overlap>
3139.275

> <ROCS_Rank>
251                 

$$$$
untitled-dbase-321791_80
  -OEChem-02092406493D

 48 51  0     0  0  0  0  0  0999 V2000
   13.1570   14.6022   22.3356 C   0  0  0  0  0  0  0  0  0  0  0  0
   12.2038   14.2593   23.2944 C   0  0  0  0  0  0  0  0  0  0  0  0
   11.4007   15.3636   20.8617 C   0  0  0  0  0  0  0  0  0  0  0  0
    8.0445   12.5776   24.0917 C   0  0  0  0  0  0  0  0  0  0  0  0
    6.8948   13.4124   24.2954 C   0  0  0  0  0  0  0  0  0  0  0  0
   12.7555   15.1544   21.1192 C   0  0  0  0  0  0  0  0  0  0  0  0
   10.8490   14.4686   23.0369 C   0  0  0  0  0  0  0  0  0  0  0  0
   10.4474   15.0208   21.8205 C   0  0  0  0  0  0  0  0  0  0  0  0
    5.7301   12.6701   24.3664 C   0  0  0  0  0  0  0  0  0  0  0  0
    9.4102   12.8493   23.9479 C   0  0  0  0  0  0  0  0  0  0  0  0
    7.6800   11.2378   24.0281 C   0  0  0  0  0  0  0  0  0  0  0  0
    9.7934   10.5908   23.7242 C   0  0  0  0  0  0  0  0  0  0  0  0
   13.4801   18.0187   20.2083 C   0  0  0  0  0  0  0  0  0  0  0  0
   14.2698   16.9393   20.2387 C   0  0  0  0  0  0  0  0  0  0  0  0
    6.8848   14.9095   24.3961 C   0  0  0  0  0  0  0  0  0  0  0  0
    4.3616   13.2321   24.5948 C   0  0  0  0  0  0  0  0  0  0  0  0
    5.5647   15.4371   24.9786 C   0  0  0  0  0  0  0  0  0  0  0  0
    4.3502   14.7472   24.3423 C   0  0  0  0  0  0  0  0  0  0  0  0
   10.7934    9.5017   23.5200 C   0  0  0  0  0  0  0  0  0  0  0  0
    8.4152   14.1637   20.9310 C   0  0  0  0  0  0  0  0  0  0  0  0
   13.7748   15.5234   20.0950 C   0  0  0  0  0  0  0  0  0  0  0  0
   10.2900   11.8422   23.7630 N   0  0  0  0  0  0  0  0  0  0  0  0
    8.5142   10.1956   23.8460 N   0  0  0  0  0  0  0  0  0  0  0  0
    9.9166   14.1252   23.9932 O   0  0  0  0  0  0  0  0  0  0  0  0
    9.1272   15.2291   21.5572 O   0  0  0  0  0  0  0  0  0  0  0  0
    6.0027   10.9991   24.2064 S   0  0  0  0  0  0  0  0  0  0  0  0
   14.2104   14.4371   22.5455 H   0  0  0  0  0  0  0  0  0  0  0  0
   12.5235   13.8292   24.2396 H   0  0  0  0  0  0  0  0  0  0  0  0
   11.0850   15.7945   19.9145 H   0  0  0  0  0  0  0  0  0  0  0  0
   13.8831   19.0196   20.3163 H   0  0  0  0  0  0  0  0  0  0  0  0
   12.4095   17.9123   20.0721 H   0  0  0  0  0  0  0  0  0  0  0  0
   15.3395   17.0825   20.3703 H   0  0  0  0  0  0  0  0  0  0  0  0
    7.7165   15.2213   25.0399 H   0  0  0  0  0  0  0  0  0  0  0  0
    7.0418   15.3626   23.4112 H   0  0  0  0  0  0  0  0  0  0  0  0
    3.6591   12.7450   23.9070 H   0  0  0  0  0  0  0  0  0  0  0  0
    4.0177   13.0307   25.6157 H   0  0  0  0  0  0  0  0  0  0  0  0
    5.5573   15.2839   26.0635 H   0  0  0  0  0  0  0  0  0  0  0  0
    5.4933   16.5188   24.8069 H   0  0  0  0  0  0  0  0  0  0  0  0
    4.3328   14.9378   23.2633 H   0  0  0  0  0  0  0  0  0  0  0  0
    3.4327   15.1824   24.7590 H   0  0  0  0  0  0  0  0  0  0  0  0
   11.1696    9.1443   24.4859 H   0  0  0  0  0  0  0  0  0  0  0  0
   10.3524    8.6533   22.9818 H   0  0  0  0  0  0  0  0  0  0  0  0
   11.6444    9.8510   22.9216 H   0  0  0  0  0  0  0  0  0  0  0  0
    7.3746   14.4602   20.7780 H   0  0  0  0  0  0  0  0  0  0  0  0
    8.4622   13.2725   21.5619 H   0  0  0  0  0  0  0  0  0  0  0  0
    8.8761   13.9480   19.9642 H   0  0  0  0  0  0  0  0  0  0  0  0
   14.6453   14.8490   20.1593 H   0  0  0  0  0  0  0  0  0  0  0  0
   13.3684   15.3589   19.0825 H   0  0  0  0  0  0  0  0  0  0  0  0
  1  2  2  0  0  0  0
  1  6  1  0  0  0  0
  2  7  1  0  0  0  0
  3  6  2  0  0  0  0
  3  8  1  0  0  0  0
  4  5  1  0  0  0  0
  4 10  2  0  0  0  0
  4 11  1  0  0  0  0
  5  9  2  0  0  0  0
  5 15  1  0  0  0  0
  6 21  1  0  0  0  0
  7  8  2  0  0  0  0
  7 24  1  0  0  0  0
  8 25  1  0  0  0  0
  9 16  1  0  0  0  0
  9 26  1  0  0  0  0
 10 22  1  0  0  0  0
 10 24  1  0  0  0  0
 11 23  2  0  0  0  0
 11 26  1  0  0  0  0
 12 19  1  0  0  0  0
 12 22  2  0  0  0  0
 12 23  1  0  0  0  0
 13 14  2  0  0  0  0
 14 21  1  0  0  0  0
 15 17  1  0  0  0  0
 16 18  1  0  0  0  0
 17 18  1  0  0  0  0
 20 25  1  0  0  0  0
  1 27  1  0  0  0  0
  2 28  1  0  0  0  0
  3 29  1  0  0  0  0
 13 30  1  0  0  0  0
 13 31  1  0  0  0  0
 14 32  1  0  0  0  0
 15 33  1  0  0  0  0
 15 34  1  0  0  0  0
 16 35  1  0  0  0  0
 16 36  1  0  0  0  0
 17 37  1  0  0  0  0
 17 38  1  0  0  0  0
 18 39  1  0  0  0  0
 18 40  1  0  0  0  0
 19 41  1  0  0  0  0
 19 42  1  0  0  0  0
 19 43  1  0  0  0  0
 20 44  1  0  0  0  0
 20 45  1  0  0  0  0
 20 46  1  0  0  0  0
 21 47  1  0  0  0  0
 21 48  1  0  0  0  0
M  END
> <idnumber>
Z31041711

> <heavy_atoms>
26

> <LogS>
-6.95

> <LogP>
5.697

> <rotating_bonds>
5

> <PSA>
44.24

> <hb_acceptors>
3

> <hb_donors>
0

> <Collection>
Legacy

> <link>
https://www.enaminestore.com/catalog/Z31041711

> <ROCS_ShapeQuery>
x0446_0A_x1080_0A_x0929_0A_x0812_0A_x0719_0A_x1140_0A_x0528_0A_x0310_0A

> <ROCS_TanimotoCombo>
0.461 

> <ROCS_ShapeTanimoto>
0.257 

> <ROCS_ColorTanimoto>
0.204 

> <ROCS_RefTversky>
0.234 

> <ROCS_RefColorTversky>
0.219 

> <ROCS_RefTverskyCombo>
0.453 

> <ROCS_FitTversky>
1.596 

> <ROCS_FitColorTversky>
0.749 

> <ROCS_FitTverskyCombo>
2.345 

> <ROCS_ColorScore>
-7.831

> <ROCS_Overlap>
2771.495

> <ROCS_Rank>
252                 

$$$$
untitled-dbase-1070910_143
  -OEChem-02092406493D

 48 51  0     1  0  0  0  0  0999 V2000
    8.2891   12.1964   24.4386 C   0  0  0  0  0  0  0  0  0  0  0  0
    9.5303   11.9520   23.9099 C   0  0  0  0  0  0  0  0  0  0  0  0
    7.6069   10.9644   24.3447 C   0  0  0  0  0  0  0  0  0  0  0  0
    7.1995   14.9129   21.2753 C   0  0  0  0  0  0  0  0  0  0  0  0
    9.2026   14.0382   21.2800 C   0  0  0  0  0  0  0  0  0  0  0  0
    5.7782   14.8644   21.2328 C   0  0  0  0  0  0  0  0  0  0  0  0
    5.1603   13.6698   21.1448 C   0  0  0  0  0  0  0  0  0  0  0  0
    5.9129   12.4240   21.0918 C   0  0  0  0  0  0  0  0  0  0  0  0
    7.2551   12.4687   21.1318 C   0  0  0  0  0  0  0  0  0  0  0  0
   10.6321   12.8461   23.7437 C   0  0  0  0  0  0  0  0  0  0  0  0
    7.6490   13.4041   25.0084 C   0  0  0  0  0  0  0  0  0  0  0  0
    6.2149   10.7906   24.8487 C   0  0  2  0  0  0  0  0  0  0  0  0
    6.4351   12.9743   25.8649 C   0  0  1  0  0  0  0  0  0  0  0  0
    5.3093   10.0607   23.8648 C   0  0  0  0  0  0  0  0  0  0  0  0
    5.5936   14.1803   26.2578 C   0  0  0  0  0  0  0  0  0  0  0  0
   10.6063    9.8915   22.9533 C   0  0  0  0  0  0  0  0  0  0  0  0
   12.5459   13.4402   22.2202 C   0  0  0  0  0  0  0  0  0  0  0  0
   10.3131   13.0282   21.2488 C   0  0  0  0  0  0  0  0  0  0  0  0
    8.3613    9.9970   23.8186 N   0  0  0  0  0  0  0  0  0  0  0  0
    8.0687   15.8975   21.3585 N   0  0  0  0  0  0  0  0  0  0  0  0
    9.3337   15.3436   21.3614 N   0  0  0  0  0  0  0  0  0  0  0  0
    9.5209   10.6316   23.5545 N   0  0  0  0  0  0  0  0  0  0  0  0
    7.8795   13.7061   21.2228 N   0  0  0  0  0  0  0  0  0  0  0  0
   11.1488   13.0972   22.4456 N   0  0  0  0  0  0  0  0  0  0  0  0
   11.1020   13.3951   24.7637 O   0  0  0  0  0  0  0  0  0  0  0  0
    5.5906   12.0726   25.1183 O   0  0  0  0  0  0  0  0  0  0  0  0
    5.2094   15.7864   21.2726 H   0  0  0  0  0  0  0  0  0  0  0  0
    4.0781   13.6061   21.1119 H   0  0  0  0  0  0  0  0  0  0  0  0
    5.3730   11.4878   21.0196 H   0  0  0  0  0  0  0  0  0  0  0  0
    7.8718   11.5794   21.0952 H   0  0  0  0  0  0  0  0  0  0  0  0
    8.3561   13.9801   25.6149 H   0  0  0  0  0  0  0  0  0  0  0  0
    7.3162   14.0382   24.1772 H   0  0  0  0  0  0  0  0  0  0  0  0
    6.2399   10.2343   25.7938 H   0  0  0  0  0  0  0  0  0  0  0  0
    6.7687   12.4624   26.7771 H   0  0  0  0  0  0  0  0  0  0  0  0
    5.2736   10.6015   22.9190 H   0  0  0  0  0  0  0  0  0  0  0  0
    4.2997    9.9894   24.2695 H   0  0  0  0  0  0  0  0  0  0  0  0
    5.6895    9.0553   23.6832 H   0  0  0  0  0  0  0  0  0  0  0  0
    5.2510   14.7047   25.3651 H   0  0  0  0  0  0  0  0  0  0  0  0
    6.1842   14.8671   26.8651 H   0  0  0  0  0  0  0  0  0  0  0  0
    4.7246   13.8590   26.8333 H   0  0  0  0  0  0  0  0  0  0  0  0
   11.2083    9.4618   23.7583 H   0  0  0  0  0  0  0  0  0  0  0  0
   10.1993    9.1010   22.3166 H   0  0  0  0  0  0  0  0  0  0  0  0
   11.2102   10.5681   22.3422 H   0  0  0  0  0  0  0  0  0  0  0  0
   13.1285   12.5210   22.0605 H   0  0  0  0  0  0  0  0  0  0  0  0
   12.6265   14.0843   21.3321 H   0  0  0  0  0  0  0  0  0  0  0  0
   12.9381   13.9750   23.0978 H   0  0  0  0  0  0  0  0  0  0  0  0
    9.9092   12.0124   21.1776 H   0  0  0  0  0  0  0  0  0  0  0  0
   10.9604   13.1826   20.3791 H   0  0  0  0  0  0  0  0  0  0  0  0
  1  2  2  0  0  0  0
  1  3  1  0  0  0  0
  1 11  1  0  0  0  0
  2 10  1  0  0  0  0
  2 22  1  0  0  0  0
  3 12  1  0  0  0  0
  3 19  2  0  0  0  0
  4  6  1  0  0  0  0
  4 20  2  0  0  0  0
  4 23  1  0  0  0  0
  5 18  1  0  0  0  0
  5 21  2  0  0  0  0
  5 23  1  0  0  0  0
  6  7  2  0  0  0  0
  7  8  1  0  0  0  0
  8  9  2  0  0  0  0
  9 23  1  0  0  0  0
 10 24  1  0  0  0  0
 10 25  2  0  0  0  0
 11 13  1  0  0  0  0
 12 14  1  6  0  0  0
 12 26  1  0  0  0  0
 13 15  1  6  0  0  0
 13 26  1  0  0  0  0
 16 22  1  0  0  0  0
 17 24  1  0  0  0  0
 18 24  1  0  0  0  0
 19 22  1  0  0  0  0
 20 21  1  0  0  0  0
  6 27  1  0  0  0  0
  7 28  1  0  0  0  0
  8 29  1  0  0  0  0
  9 30  1  0  0  0  0
 11 31  1  0  0  0  0
 11 32  1  0  0  0  0
 12 33  1  0  0  0  0
 13 34  1  0  0  0  0
 14 35  1  0  0  0  0
 14 36  1  0  0  0  0
 14 37  1  0  0  0  0
 15 38  1  0  0  0  0
 15 39  1  0  0  0  0
 15 40  1  0  0  0  0
 16 41  1  0  0  0  0
 16 42  1  0  0  0  0
 16 43  1  0  0  0  0
 17 44  1  0  0  0  0
 17 45  1  0  0  0  0
 17 46  1  0  0  0  0
 18 47  1  0  0  0  0
 18 48  1  0  0  0  0
M  END
> <idnumber>
Z4107123096

> <heavy_atoms>
26

> <LogS>
-2.051

> <LogP>
-0.352

> <rotating_bonds>
3

> <PSA>
77.55

> <hb_acceptors>
5

> <hb_donors>
0

> <Collection>
HTS

> <link>
https://www.enaminestore.com/catalog/Z4107123096

> <ROCS_ShapeQuery>
x0446_0A_x1080_0A_x0929_0A_x0812_0A_x0719_0A_x1140_0A_x0528_0A_x0310_0A

> <ROCS_TanimotoCombo>
0.461 

> <ROCS_ShapeTanimoto>
0.268 

> <ROCS_ColorTanimoto>
0.193 

> <ROCS_RefTversky>
0.243 

> <ROCS_RefColorTversky>
0.210 

> <ROCS_RefTverskyCombo>
0.453 

> <ROCS_FitTversky>
1.623 

> <ROCS_FitColorTversky>
0.700 

> <ROCS_FitTverskyCombo>
2.324 

> <ROCS_ColorScore>
-7.515

> <ROCS_Overlap>
2875.353

> <ROCS_Rank>
253                 

$$$$
untitled-dbase-666338_48
  -OEChem-02092406493D

 66 72  0     1  0  0  0  0  0999 V2000
   12.2211   16.1351   21.9462 C   0  0  0  0  0  0  0  0  0  0  0  0
   10.8960   15.9670   21.5446 C   0  0  0  0  0  0  0  0  0  0  0  0
   12.8311   15.1778   22.7569 C   0  0  0  0  0  0  0  0  0  0  0  0
   10.1807   14.8415   21.9537 C   0  0  0  0  0  0  0  0  0  0  0  0
   12.1158   14.0523   23.1660 C   0  0  0  0  0  0  0  0  0  0  0  0
    1.4413   13.7411   19.5760 C   0  0  0  0  0  0  0  0  0  0  0  0
    2.7701   10.6129   17.4468 C   0  0  0  0  0  0  0  0  0  0  0  0
    2.1290   12.6334   19.0462 C   0  0  0  0  0  0  0  0  0  0  0  0
   10.7906   13.8842   22.7644 C   0  0  0  0  0  0  0  0  0  0  0  0
    1.4056   12.2921   17.9170 C   0  0  0  0  0  0  0  0  0  0  0  0
    3.2485   11.8611   19.3374 C   0  0  0  0  0  0  0  0  0  0  0  0
    6.2217   12.1385   23.9558 C   0  0  0  0  0  0  0  0  0  0  0  0
    9.8459    9.7950   24.1152 C   0  0  0  0  0  0  0  0  0  0  0  0
   10.1208   11.4327   22.2395 C   0  0  0  0  0  0  0  0  0  0  0  0
   10.5130   12.1634   24.6065 C   0  0  0  0  0  0  0  0  0  0  0  0
    7.8360   10.6093   22.8562 C   0  0  0  0  0  0  0  0  0  0  0  0
    8.2221   11.3488   25.2234 C   0  0  0  0  0  0  0  0  0  0  0  0
    8.4885   12.9874   23.3373 C   0  0  0  0  0  0  0  0  0  0  0  0
    3.3939   12.0746   21.7810 C   0  0  0  0  0  0  0  0  0  0  0  0
    5.4750   11.8260   20.4286 C   0  0  0  0  0  0  0  0  0  0  0  0
    4.1769   12.9082   22.7929 C   0  0  0  0  0  0  0  0  0  0  0  0
    6.2238   12.6612   21.4670 C   0  0  0  0  0  0  0  0  0  0  0  0
    9.3165   10.2204   22.7387 C   0  0  2  0  0  0  0  0  0  0  0  0
    9.7037   10.9554   25.1098 C   0  0  1  0  0  0  0  0  0  0  0  0
   10.0029   12.6439   23.2157 C   0  0  0  0  0  0  0  0  0  0  0  0
    7.6810   11.7758   23.8458 C   0  0  0  0  0  0  0  0  0  0  0  0
   -0.6574   13.2343   16.8392 C   0  0  0  0  0  0  0  0  0  0  0  0
    0.3706   14.0799   18.8496 N   0  0  0  0  0  0  0  0  0  0  0  0
    1.6659   11.2894   17.0632 N   0  0  0  0  0  0  0  0  0  0  0  0
    3.5700   10.8318   18.5176 N   0  0  0  0  0  0  0  0  0  0  0  0
    0.3747   13.1813   17.8475 N   0  0  0  0  0  0  0  0  0  0  0  0
    4.0389   12.1357   20.4594 N   0  0  0  0  0  0  0  0  0  0  0  0
    5.5904   12.5405   22.7814 N   0  0  0  0  0  0  0  0  0  0  0  0
    5.6615   12.0641   25.0523 O   0  0  0  0  0  0  0  0  0  0  0  0
   12.7784   17.0108   21.6265 H   0  0  0  0  0  0  0  0  0  0  0  0
   10.4213   16.7117   20.9124 H   0  0  0  0  0  0  0  0  0  0  0  0
   13.8631   15.3078   23.0689 H   0  0  0  0  0  0  0  0  0  0  0  0
    9.1486   14.7189   21.6360 H   0  0  0  0  0  0  0  0  0  0  0  0
   12.5991   13.3117   23.7977 H   0  0  0  0  0  0  0  0  0  0  0  0
    1.6714   14.3190   20.4599 H   0  0  0  0  0  0  0  0  0  0  0  0
    3.0560    9.7812   16.8118 H   0  0  0  0  0  0  0  0  0  0  0  0
    9.2913    8.9206   24.4768 H   0  0  0  0  0  0  0  0  0  0  0  0
   10.8979    9.4947   24.0366 H   0  0  0  0  0  0  0  0  0  0  0  0
   11.1756   11.1500   22.1197 H   0  0  0  0  0  0  0  0  0  0  0  0
    9.7680   11.7218   21.2401 H   0  0  0  0  0  0  0  0  0  0  0  0
   10.4415   12.9828   25.3344 H   0  0  0  0  0  0  0  0  0  0  0  0
   11.5770   11.8971   24.5474 H   0  0  0  0  0  0  0  0  0  0  0  0
    7.4421   10.8881   21.8699 H   0  0  0  0  0  0  0  0  0  0  0  0
    7.2466    9.7440   23.1876 H   0  0  0  0  0  0  0  0  0  0  0  0
    7.6429   10.5032   25.6175 H   0  0  0  0  0  0  0  0  0  0  0  0
    8.1049   12.1642   25.9493 H   0  0  0  0  0  0  0  0  0  0  0  0
    8.3519   13.8408   24.0169 H   0  0  0  0  0  0  0  0  0  0  0  0
    8.1001   13.3208   22.3642 H   0  0  0  0  0  0  0  0  0  0  0  0
    3.3376   11.0338   22.1165 H   0  0  0  0  0  0  0  0  0  0  0  0
    2.3723   12.4607   21.7112 H   0  0  0  0  0  0  0  0  0  0  0  0
    5.8623   12.0311   19.4250 H   0  0  0  0  0  0  0  0  0  0  0  0
    5.6496   10.7642   20.6346 H   0  0  0  0  0  0  0  0  0  0  0  0
    4.1120   13.9666   22.5458 H   0  0  0  0  0  0  0  0  0  0  0  0
    3.7609   12.7587   23.7847 H   0  0  0  0  0  0  0  0  0  0  0  0
    7.2553   12.3203   21.5678 H   0  0  0  0  0  0  0  0  0  0  0  0
    6.2447   13.7060   21.1591 H   0  0  0  0  0  0  0  0  0  0  0  0
    9.4239    9.3910   22.0306 H   0  0  0  0  0  0  0  0  0  0  0  0
   10.0787   10.6464   26.0921 H   0  0  0  0  0  0  0  0  0  0  0  0
   -1.4882   12.6075   17.1738 H   0  0  0  0  0  0  0  0  0  0  0  0
   -0.9871   14.2689   16.7097 H   0  0  0  0  0  0  0  0  0  0  0  0
   -0.2560   12.8650   15.8914 H   0  0  0  0  0  0  0  0  0  0  0  0
  1  2  1  0  0  0  0
  1  3  2  0  0  0  0
  2  4  2  0  0  0  0
  3  5  1  0  0  0  0
  4  9  1  0  0  0  0
  5  9  2  0  0  0  0
  6  8  1  0  0  0  0
  6 28  2  0  0  0  0
  7 29  2  0  0  0  0
  7 30  1  0  0  0  0
  8 10  2  0  0  0  0
  8 11  1  0  0  0  0
  9 25  1  0  0  0  0
 10 29  1  0  0  0  0
 10 31  1  0  0  0  0
 11 30  2  0  0  0  0
 11 32  1  0  0  0  0
 12 26  1  0  0  0  0
 12 33  1  0  0  0  0
 12 34  2  0  0  0  0
 13 23  1  0  0  0  0
 13 24  1  0  0  0  0
 14 23  1  0  0  0  0
 14 25  1  0  0  0  0
 15 24  1  0  0  0  0
 15 25  1  0  0  0  0
 16 23  1  0  0  0  0
 16 26  1  0  0  0  0
 17 24  1  0  0  0  0
 17 26  1  0  0  0  0
 18 25  1  0  0  0  0
 18 26  1  0  0  0  0
 19 21  1  0  0  0  0
 19 32  1  0  0  0  0
 20 22  1  0  0  0  0
 20 32  1  0  0  0  0
 21 33  1  0  0  0  0
 22 33  1  0  0  0  0
 27 31  1  0  0  0  0
 28 31  1  0  0  0  0
  1 35  1  0  0  0  0
  2 36  1  0  0  0  0
  3 37  1  0  0  0  0
  4 38  1  0  0  0  0
  5 39  1  0  0  0  0
  6 40  1  0  0  0  0
  7 41  1  0  0  0  0
 13 42  1  0  0  0  0
 13 43  1  0  0  0  0
 14 44  1  0  0  0  0
 14 45  1  0  0  0  0
 15 46  1  0  0  0  0
 15 47  1  0  0  0  0
 16 48  1  0  0  0  0
 16 49  1  0  0  0  0
 17 50  1  0  0  0  0
 17 51  1  0  0  0  0
 18 52  1  0  0  0  0
 18 53  1  0  0  0  0
 19 54  1  0  0  0  0
 19 55  1  0  0  0  0
 20 56  1  0  0  0  0
 20 57  1  0  0  0  0
 21 58  1  0  0  0  0
 21 59  1  0  0  0  0
 22 60  1  0  0  0  0
 22 61  1  0  0  0  0
 23 62  1  0  0  0  0
 24 63  1  0  0  0  0
 27 64  1  0  0  0  0
 27 65  1  0  0  0  0
 27 66  1  0  0  0  0
M  END
> <idnumber>
Z238098490

> <heavy_atoms>
34

> <LogS>
-6.176

> <LogP>
3.368

> <rotating_bonds>
3

> <PSA>
67.15

> <hb_acceptors>
5

> <hb_donors>
0

> <Collection>
Advanced

> <link>
https://www.enaminestore.com/catalog/Z238098490

> <ROCS_ShapeQuery>
x0446_0A_x1080_0A_x0929_0A_x0812_0A_x0719_0A_x1140_0A_x0528_0A_x0310_0A

> <ROCS_TanimotoCombo>
0.461 

> <ROCS_ShapeTanimoto>
0.286 

> <ROCS_ColorTanimoto>
0.174 

> <ROCS_RefTversky>
0.263 

> <ROCS_RefColorTversky>
0.213 

> <ROCS_RefTverskyCombo>
0.476 

> <ROCS_FitTversky>
1.450 

> <ROCS_FitColorTversky>
0.491 

> <ROCS_FitTverskyCombo>
1.941 

> <ROCS_ColorScore>
-7.674

> <ROCS_Overlap>
3115.331

> <ROCS_Rank>
254                 

$$$$
untitled-dbase-576480_35
  -OEChem-02092406493D

 56 60  0     1  0  0  0  0  0999 V2000
    5.7272   13.0718   25.1041 C   0  0  0  0  0  0  0  0  0  0  0  0
    5.2982   11.7531   25.1100 C   0  0  0  0  0  0  0  0  0  0  0  0
    6.7755   17.2006   22.2659 C   0  0  0  0  0  0  0  0  0  0  0  0
    6.5186   15.0244   21.2484 C   0  0  0  0  0  0  0  0  0  0  0  0
    5.3921   17.2925   22.4187 C   0  0  0  0  0  0  0  0  0  0  0  0
    5.1352   15.1163   21.4012 C   0  0  0  0  0  0  0  0  0  0  0  0
    7.0349   13.3647   24.7222 C   0  0  0  0  0  0  0  0  0  0  0  0
    6.1833   10.7434   24.7370 C   0  0  0  0  0  0  0  0  0  0  0  0
    7.3388   16.0666   21.6807 C   0  0  0  0  0  0  0  0  0  0  0  0
    4.5719   16.2504   21.9864 C   0  0  0  0  0  0  0  0  0  0  0  0
    7.9213   12.3570   24.3466 C   0  0  0  0  0  0  0  0  0  0  0  0
    7.4926   11.0330   24.3570 C   0  0  0  0  0  0  0  0  0  0  0  0
   10.0230   11.6659   23.5834 C   0  0  0  0  0  0  0  0  0  0  0  0
    9.6258   10.3261   23.6643 C   0  0  0  0  0  0  0  0  0  0  0  0
    8.7617   15.9723   21.5244 C   0  0  0  0  0  0  0  0  0  0  0  0
   10.6364   15.1414   21.2507 C   0  0  0  0  0  0  0  0  0  0  0  0
   11.8287   13.3392   23.3802 C   0  0  0  0  0  0  0  0  0  0  0  0
   12.7007   10.0390   22.7589 C   0  0  0  0  0  0  0  0  0  0  0  0
   11.9490   11.1732   22.0771 C   0  0  0  0  0  0  0  0  0  0  0  0
   11.8908    9.3831   23.8666 C   0  0  0  0  0  0  0  0  0  0  0  0
    3.0931   16.3490   22.1514 C   0  0  0  0  0  0  0  0  0  0  0  0
    9.9322    7.9097   23.3729 C   0  0  0  0  0  0  0  0  0  0  0  0
   11.8704   14.2977   21.0420 C   0  0  0  0  0  0  0  0  0  0  0  0
   12.6552   14.0324   22.3224 C   0  0  0  0  0  0  0  0  0  0  0  0
    9.1700   12.6521   23.9649 N   0  0  0  0  0  0  0  0  0  0  0  0
    8.3398   10.0515   24.0175 N   0  0  0  0  0  0  0  0  0  0  0  0
    9.3842   14.7714   21.3440 N   0  0  0  0  0  0  0  0  0  0  0  0
    9.5605   17.0433   21.5453 N   0  0  0  0  0  0  0  0  0  0  0  0
   11.3019   12.0805   23.0386 N   0  0  0  0  0  0  0  0  0  0  0  0
   10.4927    9.2493   23.4701 N   0  0  1  0  0  0  0  0  0  0  0  0
   11.6865   13.8993   24.4708 O   0  0  0  0  0  0  0  0  0  0  0  0
   10.8302   16.4819   21.3601 O   0  0  0  0  0  0  0  0  0  0  0  0
    5.0504   13.8700   25.3928 H   0  0  0  0  0  0  0  0  0  0  0  0
    4.2826   11.5080   25.4047 H   0  0  0  0  0  0  0  0  0  0  0  0
    7.4009   18.0221   22.6075 H   0  0  0  0  0  0  0  0  0  0  0  0
    6.9425   14.1338   20.7903 H   0  0  0  0  0  0  0  0  0  0  0  0
    4.9615   18.1791   22.8764 H   0  0  0  0  0  0  0  0  0  0  0  0
    4.5031   14.3000   21.0618 H   0  0  0  0  0  0  0  0  0  0  0  0
    7.3598   14.4032   24.7154 H   0  0  0  0  0  0  0  0  0  0  0  0
    5.8379    9.7117   24.7481 H   0  0  0  0  0  0  0  0  0  0  0  0
   12.9642    9.2897   22.0024 H   0  0  0  0  0  0  0  0  0  0  0  0
   13.6446   10.4089   23.1762 H   0  0  0  0  0  0  0  0  0  0  0  0
   12.6374   11.7156   21.4241 H   0  0  0  0  0  0  0  0  0  0  0  0
   11.1771   10.7810   21.4016 H   0  0  0  0  0  0  0  0  0  0  0  0
   12.3309    8.4031   24.0900 H   0  0  0  0  0  0  0  0  0  0  0  0
   11.9724    9.9571   24.7993 H   0  0  0  0  0  0  0  0  0  0  0  0
    2.6405   16.8163   21.2682 H   0  0  0  0  0  0  0  0  0  0  0  0
    2.6407   15.3587   22.2913 H   0  0  0  0  0  0  0  0  0  0  0  0
    2.8296   16.9460   23.0344 H   0  0  0  0  0  0  0  0  0  0  0  0
   10.7435    7.1823   23.2218 H   0  0  0  0  0  0  0  0  0  0  0  0
    9.3930    7.6697   24.3011 H   0  0  0  0  0  0  0  0  0  0  0  0
    9.2362    7.8644   22.5223 H   0  0  0  0  0  0  0  0  0  0  0  0
   12.5165   14.7583   20.2832 H   0  0  0  0  0  0  0  0  0  0  0  0
   11.5594   13.3336   20.6188 H   0  0  0  0  0  0  0  0  0  0  0  0
   13.5367   13.4209   22.1270 H   0  0  0  0  0  0  0  0  0  0  0  0
   12.9935   14.9778   22.7481 H   0  0  0  0  0  0  0  0  0  0  0  0
  1  2  1  0  0  0  0
  1  7  2  0  0  0  0
  2  8  2  0  0  0  0
  3  5  2  0  0  0  0
  3  9  1  0  0  0  0
  4  6  1  0  0  0  0
  4  9  2  0  0  0  0
  5 10  1  0  0  0  0
  6 10  2  0  0  0  0
  7 11  1  0  0  0  0
  8 12  1  0  0  0  0
  9 15  1  0  0  0  0
 10 21  1  0  0  0  0
 11 12  1  0  0  0  0
 11 25  2  0  0  0  0
 12 26  2  0  0  0  0
 13 14  2  0  0  0  0
 13 25  1  0  0  0  0
 13 29  1  0  0  0  0
 14 26  1  0  0  0  0
 14 30  1  0  0  0  0
 15 27  1  0  0  0  0
 15 28  2  0  0  0  0
 16 23  1  0  0  0  0
 16 27  2  0  0  0  0
 16 32  1  0  0  0  0
 17 24  1  0  0  0  0
 17 29  1  0  0  0  0
 17 31  2  0  0  0  0
 18 19  1  0  0  0  0
 18 20  1  0  0  0  0
 19 29  1  0  0  0  0
 20 30  1  0  0  0  0
 22 30  1  0  0  0  0
 23 24  1  0  0  0  0
 28 32  1  0  0  0  0
  1 33  1  0  0  0  0
  2 34  1  0  0  0  0
  3 35  1  0  0  0  0
  4 36  1  0  0  0  0
  5 37  1  0  0  0  0
  6 38  1  0  0  0  0
  7 39  1  0  0  0  0
  8 40  1  0  0  0  0
 18 41  1  0  0  0  0
 18 42  1  0  0  0  0
 19 43  1  0  0  0  0
 19 44  1  0  0  0  0
 20 45  1  0  0  0  0
 20 46  1  0  0  0  0
 21 47  1  0  0  0  0
 21 48  1  0  0  0  0
 21 49  1  0  0  0  0
 22 50  1  0  0  0  0
 22 51  1  0  0  0  0
 22 52  1  0  0  0  0
 23 53  1  0  0  0  0
 23 54  1  0  0  0  0
 24 55  1  0  0  0  0
 24 56  1  0  0  0  0
M  END
> <idnumber>
Z115054766

> <heavy_atoms>
32

> <LogS>
-5.38

> <LogP>
3.284

> <rotating_bonds>
4

> <PSA>
88.25

> <hb_acceptors>
6

> <hb_donors>
0

> <Collection>
Legacy

> <link>
https://www.enaminestore.com/catalog/Z115054766

> <ROCS_ShapeQuery>
x0446_0A_x1080_0A_x0929_0A_x0812_0A_x0719_0A_x1140_0A_x0528_0A_x0310_0A

> <ROCS_TanimotoCombo>
0.461 

> <ROCS_ShapeTanimoto>
0.287 

> <ROCS_ColorTanimoto>
0.174 

> <ROCS_RefTversky>
0.262 

> <ROCS_RefColorTversky>
0.195 

> <ROCS_RefTverskyCombo>
0.457 

> <ROCS_FitTversky>
1.515 

> <ROCS_FitColorTversky>
0.614 

> <ROCS_FitTverskyCombo>
2.129 

> <ROCS_ColorScore>
-6.988

> <ROCS_Overlap>
3096.239

> <ROCS_Rank>
255                 

$$$$
untitled-dbase-1070933_179
  -OEChem-02092406493D

 45 47  0     1  0  0  0  0  0999 V2000
   11.3519   17.7076   21.4974 C   0  0  0  0  0  0  0  0  0  0  0  0
   11.7849   16.3997   21.3102 C   0  0  0  0  0  0  0  0  0  0  0  0
    9.9941   17.9706   21.6413 C   0  0  0  0  0  0  0  0  0  0  0  0
    7.9894   12.1952   24.2519 C   0  0  0  0  0  0  0  0  0  0  0  0
    9.1921   12.0458   23.6110 C   0  0  0  0  0  0  0  0  0  0  0  0
    7.5512   10.8786   24.5104 C   0  0  0  0  0  0  0  0  0  0  0  0
   10.8279   15.3984   21.2746 C   0  0  0  0  0  0  0  0  0  0  0  0
    9.1172   16.8991   21.5906 C   0  0  0  0  0  0  0  0  0  0  0  0
   10.0775   13.0483   23.1091 C   0  0  0  0  0  0  0  0  0  0  0  0
    7.1918   13.3778   24.6497 C   0  0  0  0  0  0  0  0  0  0  0  0
    6.2792   10.5961   25.2344 C   0  0  2  0  0  0  0  0  0  0  0  0
    6.1797   12.9589   25.7416 C   0  0  1  0  0  0  0  0  0  0  0  0
    5.4333    9.5230   24.5609 C   0  0  0  0  0  0  0  0  0  0  0  0
    5.1676   14.0665   25.9975 C   0  0  0  0  0  0  0  0  0  0  0  0
   10.5388   10.0289   22.9497 C   0  0  0  0  0  0  0  0  0  0  0  0
   11.2591   13.9743   21.0747 C   0  0  0  0  0  0  0  0  0  0  0  0
    7.6527   17.1441   21.7415 C   0  0  0  0  0  0  0  0  0  0  0  0
    8.4185    9.9554   24.0895 N   0  0  0  0  0  0  0  0  0  0  0  0
    9.5004   15.6152   21.4105 N   0  0  0  0  0  0  0  0  0  0  0  0
    9.4001   10.6963   23.5374 N   0  0  0  0  0  0  0  0  0  0  0  0
   10.3678   13.0426   21.7276 N   0  0  0  0  0  0  0  0  0  0  0  0
   10.6032   13.9007   23.8689 O   0  0  0  0  0  0  0  0  0  0  0  0
    5.4514   11.7847   25.3240 O   0  0  0  0  0  0  0  0  0  0  0  0
    7.3344   18.4599   21.9205 F   0  0  0  0  0  0  0  0  0  0  0  0
    6.9183   16.7428   20.6626 F   0  0  0  0  0  0  0  0  0  0  0  0
    7.1194   16.4886   22.8129 F   0  0  0  0  0  0  0  0  0  0  0  0
   12.0713   18.5203   21.5293 H   0  0  0  0  0  0  0  0  0  0  0  0
   12.8413   16.1812   21.1954 H   0  0  0  0  0  0  0  0  0  0  0  0
    9.6432   18.9862   21.7892 H   0  0  0  0  0  0  0  0  0  0  0  0
    7.8342   14.1850   25.0177 H   0  0  0  0  0  0  0  0  0  0  0  0
    6.6580   13.7432   23.7635 H   0  0  0  0  0  0  0  0  0  0  0  0
    6.5096   10.2805   26.2594 H   0  0  0  0  0  0  0  0  0  0  0  0
    6.6992   12.7294   26.6812 H   0  0  0  0  0  0  0  0  0  0  0  0
    5.1954    9.8218   23.5399 H   0  0  0  0  0  0  0  0  0  0  0  0
    4.5043    9.3795   25.1128 H   0  0  0  0  0  0  0  0  0  0  0  0
    5.9789    8.5795   24.5352 H   0  0  0  0  0  0  0  0  0  0  0  0
    4.6389   14.3110   25.0754 H   0  0  0  0  0  0  0  0  0  0  0  0
    5.6751   14.9610   26.3604 H   0  0  0  0  0  0  0  0  0  0  0  0
    4.4417   13.7450   26.7453 H   0  0  0  0  0  0  0  0  0  0  0  0
   11.2931    9.8983   23.7301 H   0  0  0  0  0  0  0  0  0  0  0  0
   10.2273    9.0586   22.5529 H   0  0  0  0  0  0  0  0  0  0  0  0
   10.9338   10.6397   22.1331 H   0  0  0  0  0  0  0  0  0  0  0  0
   11.2855   13.7249   20.0083 H   0  0  0  0  0  0  0  0  0  0  0  0
   12.2659   13.8090   21.4724 H   0  0  0  0  0  0  0  0  0  0  0  0
    9.9754   12.3015   21.1561 H   0  0  0  0  0  0  0  0  0  0  0  0
  1  2  2  0  0  0  0
  1  3  1  0  0  0  0
  2  7  1  0  0  0  0
  3  8  2  0  0  0  0
  4  5  2  0  0  0  0
  4  6  1  0  0  0  0
  4 10  1  0  0  0  0
  5  9  1  0  0  0  0
  5 20  1  0  0  0  0
  6 11  1  0  0  0  0
  6 18  2  0  0  0  0
  7 16  1  0  0  0  0
  7 19  2  0  0  0  0
  8 17  1  0  0  0  0
  8 19  1  0  0  0  0
  9 21  1  0  0  0  0
  9 22  2  0  0  0  0
 10 12  1  0  0  0  0
 11 13  1  6  0  0  0
 11 23  1  0  0  0  0
 12 14  1  6  0  0  0
 12 23  1  0  0  0  0
 15 20  1  0  0  0  0
 16 21  1  0  0  0  0
 17 24  1  0  0  0  0
 17 25  1  0  0  0  0
 17 26  1  0  0  0  0
 18 20  1  0  0  0  0
  1 27  1  0  0  0  0
  2 28  1  0  0  0  0
  3 29  1  0  0  0  0
 10 30  1  0  0  0  0
 10 31  1  0  0  0  0
 11 32  1  0  0  0  0
 12 33  1  0  0  0  0
 13 34  1  0  0  0  0
 13 35  1  0  0  0  0
 13 36  1  0  0  0  0
 14 37  1  0  0  0  0
 14 38  1  0  0  0  0
 14 39  1  0  0  0  0
 15 40  1  0  0  0  0
 15 41  1  0  0  0  0
 15 42  1  0  0  0  0
 16 43  1  0  0  0  0
 16 44  1  0  0  0  0
 21 45  1  0  0  0  0
M  END
> <idnumber>
Z4107123272

> <heavy_atoms>
26

> <LogS>
-2.838

> <LogP>
1.182

> <rotating_bonds>
4

> <PSA>
69.04

> <hb_acceptors>
4

> <hb_donors>
1

> <Collection>
HTS

> <link>
https://www.enaminestore.com/catalog/Z4107123272

> <ROCS_ShapeQuery>
x0446_0A_x1080_0A_x0929_0A_x0812_0A_x0719_0A_x1140_0A_x0528_0A_x0310_0A

> <ROCS_TanimotoCombo>
0.461 

> <ROCS_ShapeTanimoto>
0.251 

> <ROCS_ColorTanimoto>
0.210 

> <ROCS_RefTversky>
0.230 

> <ROCS_RefColorTversky>
0.220 

> <ROCS_RefTverskyCombo>
0.450 

> <ROCS_FitTversky>
1.553 

> <ROCS_FitColorTversky>
0.828 

> <ROCS_FitTverskyCombo>
2.381 

> <ROCS_ColorScore>
-7.848

> <ROCS_Overlap>
2721.501

> <ROCS_Rank>
256                 

$$$$
untitled-dbase-570891_36
  -OEChem-02092406493D

 53 57  0     1  0  0  0  0  0999 V2000
    5.7308   13.0726   25.1084 C   0  0  0  0  0  0  0  0  0  0  0  0
    5.3014   11.7542   25.1168 C   0  0  0  0  0  0  0  0  0  0  0  0
    6.7761   17.1967   22.2625 C   0  0  0  0  0  0  0  0  0  0  0  0
    6.5177   15.0195   21.2476 C   0  0  0  0  0  0  0  0  0  0  0  0
    7.0381   13.3645   24.7242 C   0  0  0  0  0  0  0  0  0  0  0  0
    6.1856   10.7436   24.7440 C   0  0  0  0  0  0  0  0  0  0  0  0
    5.3929   17.2893   22.4161 C   0  0  0  0  0  0  0  0  0  0  0  0
    5.1344   15.1121   21.4012 C   0  0  0  0  0  0  0  0  0  0  0  0
    7.3386   16.0618   21.6782 C   0  0  0  0  0  0  0  0  0  0  0  0
    7.9235   12.3559   24.3487 C   0  0  0  0  0  0  0  0  0  0  0  0
    7.4944   11.0321   24.3617 C   0  0  0  0  0  0  0  0  0  0  0  0
    4.5720   16.2470   21.9855 C   0  0  0  0  0  0  0  0  0  0  0  0
   10.0239   11.6628   23.5835 C   0  0  0  0  0  0  0  0  0  0  0  0
    9.6263   10.3234   23.6669 C   0  0  0  0  0  0  0  0  0  0  0  0
    8.7612   15.9667   21.5200 C   0  0  0  0  0  0  0  0  0  0  0  0
   10.6352   15.1347   21.2448 C   0  0  0  0  0  0  0  0  0  0  0  0
   11.8299   13.3352   23.3752 C   0  0  0  0  0  0  0  0  0  0  0  0
   12.6998   10.0338   22.7575 C   0  0  0  0  0  0  0  0  0  0  0  0
   11.9475   11.1672   22.0752 C   0  0  0  0  0  0  0  0  0  0  0  0
   11.8912    9.3798   23.8674 C   0  0  0  0  0  0  0  0  0  0  0  0
    9.9314    7.9064   23.3787 C   0  0  0  0  0  0  0  0  0  0  0  0
   11.8686   14.2902   21.0355 C   0  0  0  0  0  0  0  0  0  0  0  0
   12.6552   14.0265   22.3152 C   0  0  0  0  0  0  0  0  0  0  0  0
    9.1718   12.6499   23.9648 N   0  0  0  0  0  0  0  0  0  0  0  0
    8.3407   10.0497   24.0224 N   0  0  0  0  0  0  0  0  0  0  0  0
    9.3830   14.7654   21.3405 N   0  0  0  0  0  0  0  0  0  0  0  0
    9.5605   17.0375   21.5381 N   0  0  0  0  0  0  0  0  0  0  0  0
   11.3021   12.0762   23.0362 N   0  0  0  0  0  0  0  0  0  0  0  0
   10.4925    9.2460   23.4731 N   0  0  1  0  0  0  0  0  0  0  0  0
   11.6895   13.8970   24.4651 O   0  0  0  0  0  0  0  0  0  0  0  0
   10.8297   16.4753   21.3520 O   0  0  0  0  0  0  0  0  0  0  0  0
    3.2437   16.3360   22.1331 F   0  0  0  0  0  0  0  0  0  0  0  0
    5.0548   13.8715   25.3969 H   0  0  0  0  0  0  0  0  0  0  0  0
    4.2861   11.5099   25.4134 H   0  0  0  0  0  0  0  0  0  0  0  0
    7.4023   18.0181   22.6028 H   0  0  0  0  0  0  0  0  0  0  0  0
    6.9406   14.1280   20.7906 H   0  0  0  0  0  0  0  0  0  0  0  0
    7.3634   14.4028   24.7154 H   0  0  0  0  0  0  0  0  0  0  0  0
    5.8397    9.7120   24.7572 H   0  0  0  0  0  0  0  0  0  0  0  0
    4.9548   18.1732   22.8703 H   0  0  0  0  0  0  0  0  0  0  0  0
    4.4946   14.3009   21.0666 H   0  0  0  0  0  0  0  0  0  0  0  0
   12.9619    9.2832   22.0017 H   0  0  0  0  0  0  0  0  0  0  0  0
   13.6444   10.4038   23.1729 H   0  0  0  0  0  0  0  0  0  0  0  0
   12.6352   11.7084   21.4203 H   0  0  0  0  0  0  0  0  0  0  0  0
   11.1744   10.7744   21.4013 H   0  0  0  0  0  0  0  0  0  0  0  0
   12.3312    8.3999   24.0916 H   0  0  0  0  0  0  0  0  0  0  0  0
   11.9744    9.9551   24.7990 H   0  0  0  0  0  0  0  0  0  0  0  0
   10.7421    7.1785   23.2275 H   0  0  0  0  0  0  0  0  0  0  0  0
    9.3934    7.6680   24.3080 H   0  0  0  0  0  0  0  0  0  0  0  0
    9.2341    7.8601   22.5291 H   0  0  0  0  0  0  0  0  0  0  0  0
   12.5137   14.7495   20.2752 H   0  0  0  0  0  0  0  0  0  0  0  0
   11.5567   13.3256   20.6142 H   0  0  0  0  0  0  0  0  0  0  0  0
   13.5361   13.4144   22.1194 H   0  0  0  0  0  0  0  0  0  0  0  0
   12.9944   14.9725   22.7390 H   0  0  0  0  0  0  0  0  0  0  0  0
  1  2  1  0  0  0  0
  1  5  2  0  0  0  0
  2  6  2  0  0  0  0
  3  7  2  0  0  0  0
  3  9  1  0  0  0  0
  4  8  1  0  0  0  0
  4  9  2  0  0  0  0
  5 10  1  0  0  0  0
  6 11  1  0  0  0  0
  7 12  1  0  0  0  0
  8 12  2  0  0  0  0
  9 15  1  0  0  0  0
 10 11  1  0  0  0  0
 10 24  2  0  0  0  0
 11 25  2  0  0  0  0
 12 32  1  0  0  0  0
 13 14  2  0  0  0  0
 13 24  1  0  0  0  0
 13 28  1  0  0  0  0
 14 25  1  0  0  0  0
 14 29  1  0  0  0  0
 15 26  1  0  0  0  0
 15 27  2  0  0  0  0
 16 22  1  0  0  0  0
 16 26  2  0  0  0  0
 16 31  1  0  0  0  0
 17 23  1  0  0  0  0
 17 28  1  0  0  0  0
 17 30  2  0  0  0  0
 18 19  1  0  0  0  0
 18 20  1  0  0  0  0
 19 28  1  0  0  0  0
 20 29  1  0  0  0  0
 21 29  1  0  0  0  0
 22 23  1  0  0  0  0
 27 31  1  0  0  0  0
  1 33  1  0  0  0  0
  2 34  1  0  0  0  0
  3 35  1  0  0  0  0
  4 36  1  0  0  0  0
  5 37  1  0  0  0  0
  6 38  1  0  0  0  0
  7 39  1  0  0  0  0
  8 40  1  0  0  0  0
 18 41  1  0  0  0  0
 18 42  1  0  0  0  0
 19 43  1  0  0  0  0
 19 44  1  0  0  0  0
 20 45  1  0  0  0  0
 20 46  1  0  0  0  0
 21 47  1  0  0  0  0
 21 48  1  0  0  0  0
 21 49  1  0  0  0  0
 22 50  1  0  0  0  0
 22 51  1  0  0  0  0
 23 52  1  0  0  0  0
 23 53  1  0  0  0  0
M  END
> <idnumber>
Z109159574

> <heavy_atoms>
32

> <LogS>
-5.15

> <LogP>
2.932

> <rotating_bonds>
4

> <PSA>
88.25

> <hb_acceptors>
6

> <hb_donors>
0

> <Collection>
Legacy

> <link>
https://www.enaminestore.com/catalog/Z109159574

> <ROCS_ShapeQuery>
x0446_0A_x1080_0A_x0929_0A_x0812_0A_x0719_0A_x1140_0A_x0528_0A_x0310_0A

> <ROCS_TanimotoCombo>
0.461 

> <ROCS_ShapeTanimoto>
0.287 

> <ROCS_ColorTanimoto>
0.174 

> <ROCS_RefTversky>
0.262 

> <ROCS_RefColorTversky>
0.195 

> <ROCS_RefTverskyCombo>
0.457 

> <ROCS_FitTversky>
1.512 

> <ROCS_FitColorTversky>
0.614 

> <ROCS_FitTverskyCombo>
2.126 

> <ROCS_ColorScore>
-6.988

> <ROCS_Overlap>
3096.918

> <ROCS_Rank>
257                 

$$$$
untitled-dbase-746739_36
  -OEChem-02092406493D

 44 47  0     1  0  0  0  0  0999 V2000
    6.2837   13.4990   24.5802 C   0  0  0  0  0  0  0  0  0  0  0  0
    5.6115   12.2641   24.5956 C   0  0  0  0  0  0  0  0  0  0  0  0
    7.6598   13.5569   24.3476 C   0  0  0  0  0  0  0  0  0  0  0  0
    6.3078   11.0726   24.3787 C   0  0  0  0  0  0  0  0  0  0  0  0
   13.5452   14.8267   22.8358 C   0  0  0  0  0  0  0  0  0  0  0  0
   13.7181   13.4777   22.5262 C   0  0  0  0  0  0  0  0  0  0  0  0
   11.4854   13.4026   21.6063 C   0  0  0  0  0  0  0  0  0  0  0  0
   11.3124   14.7516   21.9159 C   0  0  0  0  0  0  0  0  0  0  0  0
    8.3233   12.3662   24.1361 C   0  0  0  0  0  0  0  0  0  0  0  0
    7.6657   11.1574   24.1512 C   0  0  0  0  0  0  0  0  0  0  0  0
   12.3423   15.4637   22.5307 C   0  0  0  0  0  0  0  0  0  0  0  0
   12.6882   12.7657   21.9115 C   0  0  0  0  0  0  0  0  0  0  0  0
   10.0489   15.3978   21.5888 C   0  0  0  0  0  0  0  0  0  0  0  0
   10.7867   10.2521   24.7506 C   0  0  0  0  0  0  0  0  0  0  0  0
   12.1120   10.5841   24.0852 C   0  0  0  0  0  0  0  0  0  0  0  0
   10.3811   10.4551   22.3923 C   0  0  0  0  0  0  0  0  0  0  0  0
    9.7626   10.7899   23.7549 C   0  0  0  0  0  0  0  0  0  0  0  0
   13.2982   17.4292   23.4682 C   0  0  0  0  0  0  0  0  0  0  0  0
   11.8515   10.3426   22.6419 N   0  0  1  0  0  0  0  0  0  0  0  0
    9.9092   16.5913   21.3073 O   0  0  0  0  0  0  0  0  0  0  0  0
   12.4011   10.8488   20.1746 O   0  0  0  0  0  0  0  0  0  0  0  0
   14.2767   10.7023   21.8505 O   0  0  0  0  0  0  0  0  0  0  0  0
    9.6559   12.2258   23.8953 O   0  0  0  0  0  0  0  0  0  0  0  0
    8.5041   10.1094   23.9220 O   0  0  0  0  0  0  0  0  0  0  0  0
    8.9999   14.5321   21.6224 O   0  0  0  0  0  0  0  0  0  0  0  0
   12.1928   16.7823   22.8413 O   0  0  0  0  0  0  0  0  0  0  0  0
   12.9081   11.0560   21.5192 S   0  0  0  0  0  0  0  0  0  0  0  0
    5.7256   14.4159   24.7496 H   0  0  0  0  0  0  0  0  0  0  0  0
    4.5404   12.2383   24.7766 H   0  0  0  0  0  0  0  0  0  0  0  0
    8.1817   14.5069   24.3340 H   0  0  0  0  0  0  0  0  0  0  0  0
    5.7932   10.1186   24.3890 H   0  0  0  0  0  0  0  0  0  0  0  0
   14.3516   15.3754   23.3148 H   0  0  0  0  0  0  0  0  0  0  0  0
   14.6593   12.9914   22.7684 H   0  0  0  0  0  0  0  0  0  0  0  0
   10.6831   12.8464   21.1268 H   0  0  0  0  0  0  0  0  0  0  0  0
   10.6759    9.1677   24.8734 H   0  0  0  0  0  0  0  0  0  0  0  0
   10.7075   10.7164   25.7386 H   0  0  0  0  0  0  0  0  0  0  0  0
   12.3786   11.6336   24.2515 H   0  0  0  0  0  0  0  0  0  0  0  0
   12.9172    9.9395   24.4471 H   0  0  0  0  0  0  0  0  0  0  0  0
   10.0259    9.4933   22.0074 H   0  0  0  0  0  0  0  0  0  0  0  0
   10.1679   11.2339   21.6527 H   0  0  0  0  0  0  0  0  0  0  0  0
   13.0475   18.4751   23.6614 H   0  0  0  0  0  0  0  0  0  0  0  0
   14.1743   17.3675   22.8178 H   0  0  0  0  0  0  0  0  0  0  0  0
   13.5135   16.9277   24.4147 H   0  0  0  0  0  0  0  0  0  0  0  0
    8.1438   14.9578   21.4025 H   0  0  0  0  0  0  0  0  0  0  0  0
  1  2  1  0  0  0  0
  1  3  2  0  0  0  0
  2  4  2  0  0  0  0
  3  9  1  0  0  0  0
  4 10  1  0  0  0  0
  5  6  2  0  0  0  0
  5 11  1  0  0  0  0
  6 12  1  0  0  0  0
  7  8  1  0  0  0  0
  7 12  2  0  0  0  0
  8 11  2  0  0  0  0
  8 13  1  0  0  0  0
  9 10  2  0  0  0  0
  9 23  1  0  0  0  0
 10 24  1  0  0  0  0
 11 26  1  0  0  0  0
 12 27  1  0  0  0  0
 13 20  2  0  0  0  0
 13 25  1  0  0  0  0
 14 15  1  0  0  0  0
 14 17  1  0  0  0  0
 15 19  1  0  0  0  0
 16 17  1  0  0  0  0
 16 19  1  0  0  0  0
 17 23  1  0  0  0  0
 17 24  1  0  0  0  0
 18 26  1  0  0  0  0
 19 27  1  0  0  0  0
 21 27  2  0  0  0  0
 22 27  2  0  0  0  0
  1 28  1  0  0  0  0
  2 29  1  0  0  0  0
  3 30  1  0  0  0  0
  4 31  1  0  0  0  0
  5 32  1  0  0  0  0
  6 33  1  0  0  0  0
  7 34  1  0  0  0  0
 14 35  1  0  0  0  0
 14 36  1  0  0  0  0
 15 37  1  0  0  0  0
 15 38  1  0  0  0  0
 16 39  1  0  0  0  0
 16 40  1  0  0  0  0
 18 41  1  0  0  0  0
 18 42  1  0  0  0  0
 18 43  1  0  0  0  0
 25 44  1  0  0  0  0
M  END
> <idnumber>
Z2154378775

> <heavy_atoms>
27

> <LogS>
-4.701

> <LogP>
2.331

> <rotating_bonds>
3

> <PSA>
102.37

> <hb_acceptors>
7

> <hb_donors>
1

> <Collection>
HTS

> <link>
https://www.enaminestore.com/catalog/Z2154378775

> <ROCS_ShapeQuery>
x0446_0A_x1080_0A_x0929_0A_x0812_0A_x0719_0A_x1140_0A_x0528_0A_x0310_0A

> <ROCS_TanimotoCombo>
0.461 

> <ROCS_ShapeTanimoto>
0.259 

> <ROCS_ColorTanimoto>
0.201 

> <ROCS_RefTversky>
0.237 

> <ROCS_RefColorTversky>
0.230 

> <ROCS_RefTverskyCombo>
0.467 

> <ROCS_FitTversky>
1.560 

> <ROCS_FitColorTversky>
0.620 

> <ROCS_FitTverskyCombo>
2.181 

> <ROCS_ColorScore>
-8.258

> <ROCS_Overlap>
2804.059

> <ROCS_Rank>
258                 

$$$$
untitled-dbase-186647_12
  -OEChem-02092406493D

 33 35  0     0  0  0  0  0  0999 V2000
   13.2010   14.1226   23.3461 C   0  0  0  0  0  0  0  0  0  0  0  0
   11.9159   13.8890   23.8357 C   0  0  0  0  0  0  0  0  0  0  0  0
   12.2692   15.3505   21.4858 C   0  0  0  0  0  0  0  0  0  0  0  0
    6.7478   13.0744   24.7656 C   0  0  0  0  0  0  0  0  0  0  0  0
    9.6446   10.5780   23.5566 C   0  0  0  0  0  0  0  0  0  0  0  0
    7.9191   12.4611   24.2833 C   0  0  0  0  0  0  0  0  0  0  0  0
   10.9841   15.1170   21.9753 C   0  0  0  0  0  0  0  0  0  0  0  0
   13.3776   14.8534   22.1712 C   0  0  0  0  0  0  0  0  0  0  0  0
   10.8075   14.3862   23.1503 C   0  0  0  0  0  0  0  0  0  0  0  0
    7.6532   11.1057   24.3679 C   0  0  0  0  0  0  0  0  0  0  0  0
    9.1646   12.8314   23.7872 C   0  0  0  0  0  0  0  0  0  0  0  0
    5.6659    9.7826   25.1459 C   0  0  0  0  0  0  0  0  0  0  0  0
   15.7199   14.5457   22.4451 C   0  0  0  0  0  0  0  0  0  0  0  0
    5.8129   12.1890   25.1277 N   0  0  0  0  0  0  0  0  0  0  0  0
    8.4707   10.0988   24.0215 N   0  0  0  0  0  0  0  0  0  0  0  0
   10.0403   11.8659   23.4184 N   0  0  0  0  0  0  0  0  0  0  0  0
    6.3919   11.0006   24.8743 N   0  0  0  0  0  0  0  0  0  0  0  0
    9.8655   15.6327   21.2646 N   0  3  0  0  0  0  0  0  0  0  0  0
   10.0643   16.2851   20.2125 O   0  5  0  0  0  0  0  0  0  0  0  0
    8.7134   15.4202   21.7113 O   0  0  0  0  0  0  0  0  0  0  0  0
    9.5465   14.1424   23.6546 O   0  0  0  0  0  0  0  0  0  0  0  0
   14.6318   15.0820   21.6941 O   0  0  0  0  0  0  0  0  0  0  0  0
   14.0608   13.7340   23.8848 H   0  0  0  0  0  0  0  0  0  0  0  0
   11.7861   13.3202   24.7524 H   0  0  0  0  0  0  0  0  0  0  0  0
   12.4155   15.9198   20.5705 H   0  0  0  0  0  0  0  0  0  0  0  0
    6.5324   14.1284   24.8698 H   0  0  0  0  0  0  0  0  0  0  0  0
   10.3698    9.8308   23.2524 H   0  0  0  0  0  0  0  0  0  0  0  0
    5.8849    9.4814   26.1737 H   0  0  0  0  0  0  0  0  0  0  0  0
    4.5944    9.9616   25.0201 H   0  0  0  0  0  0  0  0  0  0  0  0
    5.9845    9.0076   24.4432 H   0  0  0  0  0  0  0  0  0  0  0  0
   16.6626   14.8005   21.9548 H   0  0  0  0  0  0  0  0  0  0  0  0
   15.6152   13.4600   22.5153 H   0  0  0  0  0  0  0  0  0  0  0  0
   15.7056   14.9768   23.4489 H   0  0  0  0  0  0  0  0  0  0  0  0
  1  2  2  0  0  0  0
  1  8  1  0  0  0  0
  2  9  1  0  0  0  0
  3  7  1  0  0  0  0
  3  8  2  0  0  0  0
  4  6  1  0  0  0  0
  4 14  2  0  0  0  0
  5 15  1  0  0  0  0
  5 16  2  0  0  0  0
  6 10  1  0  0  0  0
  6 11  2  0  0  0  0
  7  9  2  0  0  0  0
  7 18  1  0  0  0  0
  8 22  1  0  0  0  0
  9 21  1  0  0  0  0
 10 15  2  0  0  0  0
 10 17  1  0  0  0  0
 11 16  1  0  0  0  0
 11 21  1  0  0  0  0
 12 17  1  0  0  0  0
 13 22  1  0  0  0  0
 14 17  1  0  0  0  0
 18 19  1  0  0  0  0
 18 20  2  0  0  0  0
  1 23  1  0  0  0  0
  2 24  1  0  0  0  0
  3 25  1  0  0  0  0
  4 26  1  0  0  0  0
  5 27  1  0  0  0  0
 12 28  1  0  0  0  0
 12 29  1  0  0  0  0
 12 30  1  0  0  0  0
 13 31  1  0  0  0  0
 13 32  1  0  0  0  0
 13 33  1  0  0  0  0
M  CHG  2  18   1  19  -1
M  END
> <idnumber>
Z223817758

> <heavy_atoms>
22

> <LogS>
-4.185

> <LogP>
1.316

> <rotating_bonds>
4

> <PSA>
105.2

> <hb_acceptors>
6

> <hb_donors>
0

> <Collection>
Legacy

> <link>
https://www.enaminestore.com/catalog/Z223817758

> <ROCS_ShapeQuery>
x0446_0A_x1080_0A_x0929_0A_x0812_0A_x0719_0A_x1140_0A_x0528_0A_x0310_0A

> <ROCS_TanimotoCombo>
0.461 

> <ROCS_ShapeTanimoto>
0.246 

> <ROCS_ColorTanimoto>
0.215 

> <ROCS_RefTversky>
0.224 

> <ROCS_RefColorTversky>
0.233 

> <ROCS_RefTverskyCombo>
0.457 

> <ROCS_FitTversky>
1.647 

> <ROCS_FitColorTversky>
0.732 

> <ROCS_FitTverskyCombo>
2.379 

> <ROCS_ColorScore>
-8.351

> <ROCS_Overlap>
2650.137

> <ROCS_Rank>
259                 

$$$$
untitled-dbase-1080576_8
  -OEChem-02092406493D

 40 43  0     1  0  0  0  0  0999 V2000
   12.2999   15.5864   21.4753 C   0  0  0  0  0  0  0  0  0  0  0  0
   11.1412   15.3110   20.7831 C   0  0  0  0  0  0  0  0  0  0  0  0
   11.0676   16.4739   23.1851 C   0  0  0  0  0  0  0  0  0  0  0  0
    9.9089   16.1992   22.4926 C   0  0  0  0  0  0  0  0  0  0  0  0
    9.8724   10.5552   24.9295 C   0  0  0  0  0  0  0  0  0  0  0  0
    8.3770   10.5755   25.3159 C   0  0  0  0  0  0  0  0  0  0  0  0
    9.7191   12.9079   24.0907 C   0  0  0  0  0  0  0  0  0  0  0  0
   10.1226   11.4638   23.7042 C   0  0  2  0  0  0  0  0  0  0  0  0
    7.6022   11.5298   24.3773 C   0  0  2  0  0  0  0  0  0  0  0  0
    9.2331   11.0566   22.5468 C   0  0  2  0  0  0  0  0  0  0  0  0
    7.7828   11.0947   22.9328 C   0  0  1  0  0  0  0  0  0  0  0  0
    8.2393   12.9339   24.5460 C   0  0  2  0  0  0  0  0  0  0  0  0
    7.7322   16.3151   25.3815 C   0  0  0  0  0  0  0  0  0  0  0  0
    8.5710   16.5496   23.0769 C   0  0  0  0  0  0  0  0  0  0  0  0
   12.2839   16.1727   22.6887 N   0  0  0  0  0  0  0  0  0  0  0  0
    9.9249   15.6125   21.2793 N   0  0  0  0  0  0  0  0  0  0  0  0
    8.1707   15.6081   24.1522 N   0  0  2  0  0  0  0  0  0  0  0  0
    5.9844   14.2234   24.2737 O   0  0  0  0  0  0  0  0  0  0  0  0
    7.4827   13.9667   22.2693 O   0  0  0  0  0  0  0  0  0  0  0  0
    8.4614    9.8597   22.6785 O   0  0  0  0  0  0  0  0  0  0  0  0
    7.3180   14.1858   23.6967 S   0  0  0  0  0  0  0  0  0  0  0  0
   13.2768   15.3439   21.0758 H   0  0  0  0  0  0  0  0  0  0  0  0
   11.1548   14.8397   19.8082 H   0  0  0  0  0  0  0  0  0  0  0  0
   11.0625   16.9450   24.1610 H   0  0  0  0  0  0  0  0  0  0  0  0
   10.4791   10.8903   25.7792 H   0  0  0  0  0  0  0  0  0  0  0  0
   10.1801    9.5258   24.7093 H   0  0  0  0  0  0  0  0  0  0  0  0
    7.9657    9.5608   25.2516 H   0  0  0  0  0  0  0  0  0  0  0  0
    8.2674   10.8922   26.3599 H   0  0  0  0  0  0  0  0  0  0  0  0
   10.3579   13.2666   24.9068 H   0  0  0  0  0  0  0  0  0  0  0  0
    9.8877   13.5789   23.2395 H   0  0  0  0  0  0  0  0  0  0  0  0
   11.1756   11.4229   23.4076 H   0  0  0  0  0  0  0  0  0  0  0  0
    6.5383   11.5389   24.6371 H   0  0  0  0  0  0  0  0  0  0  0  0
    9.5317   11.4078   21.5714 H   0  0  0  0  0  0  0  0  0  0  0  0
    7.0497   11.4569   22.2295 H   0  0  0  0  0  0  0  0  0  0  0  0
    8.1923   13.2319   25.6012 H   0  0  0  0  0  0  0  0  0  0  0  0
    7.4467   15.5783   26.1467 H   0  0  0  0  0  0  0  0  0  0  0  0
    8.5568   16.9367   25.7607 H   0  0  0  0  0  0  0  0  0  0  0  0
    6.8683   16.9547   25.1481 H   0  0  0  0  0  0  0  0  0  0  0  0
    8.5876   17.5593   23.5015 H   0  0  0  0  0  0  0  0  0  0  0  0
    7.7903   16.5324   22.3092 H   0  0  0  0  0  0  0  0  0  0  0  0
  1  2  2  0  0  0  0
  1 15  1  0  0  0  0
  2 16  1  0  0  0  0
  3  4  1  0  0  0  0
  3 15  2  0  0  0  0
  4 14  1  0  0  0  0
  4 16  2  0  0  0  0
  5  6  1  0  0  0  0
  5  8  1  0  0  0  0
  6  9  1  1  0  0  0
  7  8  1  6  0  0  0
  7 12  1  0  0  0  0
  8 10  1  0  0  0  0
  9 11  1  0  0  0  0
  9 12  1  0  0  0  0
 10 11  1  0  0  0  0
 10 20  1  1  0  0  0
 11 20  1  1  0  0  0
 12 21  1  6  0  0  0
 13 17  1  0  0  0  0
 14 17  1  0  0  0  0
 17 21  1  0  0  0  0
 18 21  2  0  0  0  0
 19 21  2  0  0  0  0
  1 22  1  0  0  0  0
  2 23  1  0  0  0  0
  3 24  1  0  0  0  0
  5 25  1  0  0  0  0
  5 26  1  0  0  0  0
  6 27  1  0  0  0  0
  6 28  1  0  0  0  0
  7 29  1  0  0  0  0
  7 30  1  0  0  0  0
  8 31  1  0  0  0  0
  9 32  1  0  0  0  0
 10 33  1  0  0  0  0
 11 34  1  0  0  0  0
 12 35  1  0  0  0  0
 13 36  1  0  0  0  0
 13 37  1  0  0  0  0
 13 38  1  0  0  0  0
 14 39  1  0  0  0  0
 14 40  1  0  0  0  0
M  END
> <idnumber>
Z4265052385

> <heavy_atoms>
21

> <LogS>
-1.479

> <LogP>
-0.183

> <rotating_bonds>
3

> <PSA>
75.69

> <hb_acceptors>
5

> <hb_donors>
0

> <Collection>
Functional

> <link>
https://www.enaminestore.com/catalog/Z4265052385

> <ROCS_ShapeQuery>
x0446_0A_x1080_0A_x0929_0A_x0812_0A_x0719_0A_x1140_0A_x0528_0A_x0310_0A

> <ROCS_TanimotoCombo>
0.461 

> <ROCS_ShapeTanimoto>
0.229 

> <ROCS_ColorTanimoto>
0.231 

> <ROCS_RefTversky>
0.210 

> <ROCS_RefColorTversky>
0.307 

> <ROCS_RefTverskyCombo>
0.517 

> <ROCS_FitTversky>
1.650 

> <ROCS_FitColorTversky>
0.484 

> <ROCS_FitTverskyCombo>
2.134 

> <ROCS_ColorScore>
-11.189

> <ROCS_Overlap>
2484.775

> <ROCS_Rank>
260                 

$$$$
untitled-dbase-325355_0
  -OEChem-02092406493D

 46 50  0     0  0  0  0  0  0999 V2000
   13.0367   16.0033   22.2573 C   0  0  0  0  0  0  0  0  0  0  0  0
   13.1334   14.7688   22.9067 C   0  0  0  0  0  0  0  0  0  0  0  0
   11.8302   16.4270   21.6848 C   0  0  0  0  0  0  0  0  0  0  0  0
   12.0316   13.9123   23.0093 C   0  0  0  0  0  0  0  0  0  0  0  0
    8.1264   12.4985   23.7490 C   0  0  0  0  0  0  0  0  0  0  0  0
    7.3065   13.4731   24.4002 C   0  0  0  0  0  0  0  0  0  0  0  0
   10.7182   15.5777   21.7806 C   0  0  0  0  0  0  0  0  0  0  0  0
   10.8448   14.3582   22.4316 C   0  0  0  0  0  0  0  0  0  0  0  0
    6.3928   12.9040   25.2606 C   0  0  0  0  0  0  0  0  0  0  0  0
    9.1642   12.5962   22.8167 C   0  0  0  0  0  0  0  0  0  0  0  0
    7.7866   11.2149   24.1562 C   0  0  0  0  0  0  0  0  0  0  0  0
    9.3431   10.3012   22.8449 C   0  0  0  0  0  0  0  0  0  0  0  0
   12.8523    7.1770   23.6738 C   0  0  0  0  0  0  0  0  0  0  0  0
   13.1204    8.5745   24.2241 C   0  0  0  0  0  0  0  0  0  0  0  0
   11.6468    7.3340   22.7586 C   0  0  0  0  0  0  0  0  0  0  0  0
   12.0580    9.4614   23.5920 C   0  0  0  0  0  0  0  0  0  0  0  0
    7.4108   14.9403   24.1898 C   0  0  0  0  0  0  0  0  0  0  0  0
    5.3784   13.5663   26.1114 C   0  0  0  0  0  0  0  0  0  0  0  0
   10.0449    9.0834   22.3171 C   0  0  0  0  0  0  0  0  0  0  0  0
    9.4336   15.7196   21.3266 N   0  0  0  0  0  0  0  0  0  0  0  0
    9.7768   11.4821   22.3622 N   0  0  0  0  0  0  0  0  0  0  0  0
    8.3626   10.0714   23.7365 N   0  0  0  0  0  0  0  0  0  0  0  0
    8.7527   14.6319   21.6708 N   0  0  0  0  0  0  0  0  0  0  0  0
    9.5949   13.8191   22.3301 N   0  0  0  0  0  0  0  0  0  0  0  0
   10.9777    8.5184   23.2990 N   0  0  0  0  0  0  0  0  0  0  0  0
    6.5143   11.1981   25.2899 S   0  0  0  0  0  0  0  0  0  0  0  0
   13.9118   16.6451   22.1944 H   0  0  0  0  0  0  0  0  0  0  0  0
   14.0835   14.4679   23.3416 H   0  0  0  0  0  0  0  0  0  0  0  0
   11.7643   17.3868   21.1830 H   0  0  0  0  0  0  0  0  0  0  0  0
   12.1074   12.9555   23.5127 H   0  0  0  0  0  0  0  0  0  0  0  0
   13.7178    6.7812   23.1326 H   0  0  0  0  0  0  0  0  0  0  0  0
   12.6289    6.4900   24.4986 H   0  0  0  0  0  0  0  0  0  0  0  0
   13.0231    8.5679   25.3161 H   0  0  0  0  0  0  0  0  0  0  0  0
   14.1298    8.9203   23.9787 H   0  0  0  0  0  0  0  0  0  0  0  0
   11.9839    7.4933   21.7262 H   0  0  0  0  0  0  0  0  0  0  0  0
   11.0032    6.4490   22.7834 H   0  0  0  0  0  0  0  0  0  0  0  0
   11.7387   10.2568   24.2729 H   0  0  0  0  0  0  0  0  0  0  0  0
   12.4552    9.9218   22.6779 H   0  0  0  0  0  0  0  0  0  0  0  0
    6.7557   15.2614   23.3680 H   0  0  0  0  0  0  0  0  0  0  0  0
    7.1271   15.4992   25.0934 H   0  0  0  0  0  0  0  0  0  0  0  0
    8.4402   15.2412   23.9460 H   0  0  0  0  0  0  0  0  0  0  0  0
    4.4262   13.6803   25.5711 H   0  0  0  0  0  0  0  0  0  0  0  0
    5.1793   12.9944   27.0318 H   0  0  0  0  0  0  0  0  0  0  0  0
    5.7062   14.5673   26.4353 H   0  0  0  0  0  0  0  0  0  0  0  0
    9.3210    8.3048   22.0527 H   0  0  0  0  0  0  0  0  0  0  0  0
   10.6140    9.3193   21.4118 H   0  0  0  0  0  0  0  0  0  0  0  0
  1  2  1  0  0  0  0
  1  3  2  0  0  0  0
  2  4  2  0  0  0  0
  3  7  1  0  0  0  0
  4  8  1  0  0  0  0
  5  6  1  0  0  0  0
  5 10  1  0  0  0  0
  5 11  2  0  0  0  0
  6  9  2  0  0  0  0
  6 17  1  0  0  0  0
  7  8  2  0  0  0  0
  7 20  1  0  0  0  0
  8 24  1  0  0  0  0
  9 18  1  0  0  0  0
  9 26  1  0  0  0  0
 10 21  2  0  0  0  0
 10 24  1  0  0  0  0
 11 22  1  0  0  0  0
 11 26  1  0  0  0  0
 12 19  1  0  0  0  0
 12 21  1  0  0  0  0
 12 22  2  0  0  0  0
 13 14  1  0  0  0  0
 13 15  1  0  0  0  0
 14 16  1  0  0  0  0
 15 25  1  0  0  0  0
 16 25  1  0  0  0  0
 19 25  1  0  0  0  0
 20 23  2  0  0  0  0
 23 24  1  0  0  0  0
  1 27  1  0  0  0  0
  2 28  1  0  0  0  0
  3 29  1  0  0  0  0
  4 30  1  0  0  0  0
 13 31  1  0  0  0  0
 13 32  1  0  0  0  0
 14 33  1  0  0  0  0
 14 34  1  0  0  0  0
 15 35  1  0  0  0  0
 15 36  1  0  0  0  0
 16 37  1  0  0  0  0
 16 38  1  0  0  0  0
 17 39  1  0  0  0  0
 17 40  1  0  0  0  0
 17 41  1  0  0  0  0
 18 42  1  0  0  0  0
 18 43  1  0  0  0  0
 18 44  1  0  0  0  0
 19 45  1  0  0  0  0
 19 46  1  0  0  0  0
M  END
> <idnumber>
Z31204198

> <heavy_atoms>
26

> <LogS>
-4.79

> <LogP>
4.227

> <rotating_bonds>
3

> <PSA>
59.73

> <hb_acceptors>
5

> <hb_donors>
0

> <Collection>
HTS

> <link>
https://www.enaminestore.com/catalog/Z31204198

> <ROCS_ShapeQuery>
x0446_0A_x1080_0A_x0929_0A_x0812_0A_x0719_0A_x1140_0A_x0528_0A_x0310_0A

> <ROCS_TanimotoCombo>
0.461 

> <ROCS_ShapeTanimoto>
0.276 

> <ROCS_ColorTanimoto>
0.184 

> <ROCS_RefTversky>
0.249 

> <ROCS_RefColorTversky>
0.206 

> <ROCS_RefTverskyCombo>
0.456 

> <ROCS_FitTversky>
1.658 

> <ROCS_FitColorTversky>
0.631 

> <ROCS_FitTverskyCombo>
2.289 

> <ROCS_ColorScore>
-7.403

> <ROCS_Overlap>
2945.058

> <ROCS_Rank>
261                 

$$$$
untitled-dbase-328983_41
  -OEChem-02092406493D

 42 46  0     0  0  0  0  0  0999 V2000
   12.4029    7.9453   23.5950 C   0  0  0  0  0  0  0  0  0  0  0  0
   11.6071    9.0179   23.9817 C   0  0  0  0  0  0  0  0  0  0  0  0
   11.6732   14.8722   20.9452 C   0  0  0  0  0  0  0  0  0  0  0  0
   12.9967   15.1028   21.3203 C   0  0  0  0  0  0  0  0  0  0  0  0
   12.4371   14.5855   23.6130 C   0  0  0  0  0  0  0  0  0  0  0  0
   12.1040    7.3144   22.3981 C   0  0  0  0  0  0  0  0  0  0  0  0
   10.3357    8.7242   21.9933 C   0  0  0  0  0  0  0  0  0  0  0  0
    8.1992   12.6186   24.2367 C   0  0  0  0  0  0  0  0  0  0  0  0
   10.5516    9.4210   23.1713 C   0  0  0  0  0  0  0  0  0  0  0  0
    7.1495   13.4956   24.5949 C   0  0  0  0  0  0  0  0  0  0  0  0
   10.7316   14.4984   21.9041 C   0  0  0  0  0  0  0  0  0  0  0  0
   11.1136   14.3550   23.2379 C   0  0  0  0  0  0  0  0  0  0  0  0
   13.3787   14.9594   22.6541 C   0  0  0  0  0  0  0  0  0  0  0  0
    5.9367   12.8655   24.6586 C   0  0  0  0  0  0  0  0  0  0  0  0
    9.5743   12.7741   24.0464 C   0  0  0  0  0  0  0  0  0  0  0  0
    7.6889   11.3318   24.0455 C   0  0  0  0  0  0  0  0  0  0  0  0
    9.7087   10.5287   23.5451 C   0  0  0  0  0  0  0  0  0  0  0  0
    7.0213   14.9365   24.9264 C   0  0  0  0  0  0  0  0  0  0  0  0
    4.8130   13.7544   25.0333 C   0  0  0  0  0  0  0  0  0  0  0  0
    5.4767   15.1555   24.8593 C   0  0  0  0  0  0  0  0  0  0  0  0
   11.0873    7.6774   21.5844 N   0  0  0  0  0  0  0  0  0  0  0  0
   10.3340   11.7138   23.6965 N   0  0  0  0  0  0  0  0  0  0  0  0
    8.4024   10.2433   23.6970 N   0  0  0  0  0  0  0  0  0  0  0  0
    9.3870   14.2663   21.5034 N   0  3  0  0  0  0  0  0  0  0  0  0
    9.0504   13.1110   21.1511 O   0  5  0  0  0  0  0  0  0  0  0  0
    8.5777   15.2239   21.5140 O   0  0  0  0  0  0  0  0  0  0  0  0
   10.2014   13.9856   24.2042 O   0  0  0  0  0  0  0  0  0  0  0  0
   14.6500   15.1799   23.0142 F   0  0  0  0  0  0  0  0  0  0  0  0
    5.9900   11.2334   24.3030 S   0  0  0  0  0  0  0  0  0  0  0  0
   13.2316    7.6136   24.2098 H   0  0  0  0  0  0  0  0  0  0  0  0
   11.8209    9.5297   24.9167 H   0  0  0  0  0  0  0  0  0  0  0  0
   11.3892   14.9881   19.9023 H   0  0  0  0  0  0  0  0  0  0  0  0
   13.7301   15.3936   20.5743 H   0  0  0  0  0  0  0  0  0  0  0  0
   12.7424   14.4752   24.6499 H   0  0  0  0  0  0  0  0  0  0  0  0
   12.6945    6.4722   22.0519 H   0  0  0  0  0  0  0  0  0  0  0  0
    9.5289    8.9896   21.3161 H   0  0  0  0  0  0  0  0  0  0  0  0
    7.3918   15.1308   25.9383 H   0  0  0  0  0  0  0  0  0  0  0  0
    7.5432   15.5844   24.2170 H   0  0  0  0  0  0  0  0  0  0  0  0
    3.9391   13.6466   24.3851 H   0  0  0  0  0  0  0  0  0  0  0  0
    4.5209   13.5950   26.0764 H   0  0  0  0  0  0  0  0  0  0  0  0
    5.1257   15.8769   25.6037 H   0  0  0  0  0  0  0  0  0  0  0  0
    5.2164   15.5514   23.8686 H   0  0  0  0  0  0  0  0  0  0  0  0
  1  2  2  0  0  0  0
  1  6  1  0  0  0  0
  2  9  1  0  0  0  0
  3  4  2  0  0  0  0
  3 11  1  0  0  0  0
  4 13  1  0  0  0  0
  5 12  1  0  0  0  0
  5 13  2  0  0  0  0
  6 21  2  0  0  0  0
  7  9  2  0  0  0  0
  7 21  1  0  0  0  0
  8 10  1  0  0  0  0
  8 15  2  0  0  0  0
  8 16  1  0  0  0  0
  9 17  1  0  0  0  0
 10 14  2  0  0  0  0
 10 18  1  0  0  0  0
 11 12  2  0  0  0  0
 11 24  1  0  0  0  0
 12 27  1  0  0  0  0
 13 28  1  0  0  0  0
 14 19  1  0  0  0  0
 14 29  1  0  0  0  0
 15 22  1  0  0  0  0
 15 27  1  0  0  0  0
 16 23  2  0  0  0  0
 16 29  1  0  0  0  0
 17 22  2  0  0  0  0
 17 23  1  0  0  0  0
 18 20  1  0  0  0  0
 19 20  1  0  0  0  0
 24 25  1  0  0  0  0
 24 26  2  0  0  0  0
  1 30  1  0  0  0  0
  2 31  1  0  0  0  0
  3 32  1  0  0  0  0
  4 33  1  0  0  0  0
  5 34  1  0  0  0  0
  6 35  1  0  0  0  0
  7 36  1  0  0  0  0
 18 37  1  0  0  0  0
 18 38  1  0  0  0  0
 19 39  1  0  0  0  0
 19 40  1  0  0  0  0
 20 41  1  0  0  0  0
 20 42  1  0  0  0  0
M  CHG  2  24   1  25  -1
M  END
> <idnumber>
Z31266401

> <heavy_atoms>
29

> <LogS>
-7.47

> <LogP>
4.294

> <rotating_bonds>
4

> <PSA>
91.04

> <hb_acceptors>
5

> <hb_donors>
0

> <Collection>
Legacy

> <link>
https://www.enaminestore.com/catalog/Z31266401

> <ROCS_ShapeQuery>
x0446_0A_x1080_0A_x0929_0A_x0812_0A_x0719_0A_x1140_0A_x0528_0A_x0310_0A

> <ROCS_TanimotoCombo>
0.461 

> <ROCS_ShapeTanimoto>
0.280 

> <ROCS_ColorTanimoto>
0.181 

> <ROCS_RefTversky>
0.254 

> <ROCS_RefColorTversky>
0.206 

> <ROCS_RefTverskyCombo>
0.460 

> <ROCS_FitTversky>
1.567 

> <ROCS_FitColorTversky>
0.597 

> <ROCS_FitTverskyCombo>
2.164 

> <ROCS_ColorScore>
-7.391

> <ROCS_Overlap>
3006.286

> <ROCS_Rank>
262                 

$$$$
untitled-dbase-1019280_19
  -OEChem-02092406493D

 37 41  0     1  0  0  0  0  0999 V2000
   12.5105   14.9402   23.4934 C   0  0  0  0  0  0  0  0  0  0  0  0
   12.6108   16.2452   22.9779 C   0  0  0  0  0  0  0  0  0  0  0  0
   11.4723   14.0397   23.1374 C   0  0  0  0  0  0  0  0  0  0  0  0
    6.9814   13.3779   24.0648 C   0  0  0  0  0  0  0  0  0  0  0  0
    5.8298   13.2571   24.8300 C   0  0  0  0  0  0  0  0  0  0  0  0
    6.3662   11.1275   25.5104 C   0  0  0  0  0  0  0  0  0  0  0  0
   11.5912   16.5920   22.0725 C   0  0  0  0  0  0  0  0  0  0  0  0
   10.5249   15.6673   21.7069 C   0  0  0  0  0  0  0  0  0  0  0  0
    7.8461   12.2880   24.0165 C   0  0  0  0  0  0  0  0  0  0  0  0
    7.5535   11.1442   24.7904 C   0  0  0  0  0  0  0  0  0  0  0  0
   10.4436   14.3656   22.2349 C   0  0  0  0  0  0  0  0  0  0  0  0
    9.2550    9.9127   22.5364 C   0  0  0  0  0  0  0  0  0  0  0  0
    8.2544    9.2659   23.5177 C   0  0  0  0  0  0  0  0  0  0  0  0
    9.8237   10.4951   24.7767 C   0  0  0  0  0  0  0  0  0  0  0  0
    9.9237   11.0355   23.3501 C   0  0  2  0  0  0  0  0  0  0  0  0
    5.4951   12.1592   25.5462 N   0  0  0  0  0  0  0  0  0  0  0  0
   11.3948   17.7389   21.4103 N   0  0  0  0  0  0  0  0  0  0  0  0
    9.7174   16.2842   20.8352 N   0  0  0  0  0  0  0  0  0  0  0  0
    8.4285   10.0236   24.7757 N   0  0  1  0  0  0  0  0  0  0  0  0
    9.1156   12.3107   23.2924 N   0  0  1  0  0  0  0  0  0  0  0  0
    7.9431   13.9269   21.6618 O   0  0  0  0  0  0  0  0  0  0  0  0
    9.6904   12.3397   20.7814 O   0  0  0  0  0  0  0  0  0  0  0  0
   10.2501   17.5491   20.6552 O   0  0  0  0  0  0  0  0  0  0  0  0
    9.1823   13.1954   21.8349 S   0  0  0  0  0  0  0  0  0  0  0  0
   13.2662   14.6025   24.2014 H   0  0  0  0  0  0  0  0  0  0  0  0
   13.4098   16.9181   23.2620 H   0  0  0  0  0  0  0  0  0  0  0  0
   11.4850   13.0496   23.5929 H   0  0  0  0  0  0  0  0  0  0  0  0
    7.1756   14.3032   23.5364 H   0  0  0  0  0  0  0  0  0  0  0  0
    5.1213   14.0772   24.8915 H   0  0  0  0  0  0  0  0  0  0  0  0
    6.0759   10.2635   26.1000 H   0  0  0  0  0  0  0  0  0  0  0  0
   10.0036    9.1685   22.2405 H   0  0  0  0  0  0  0  0  0  0  0  0
    8.7564   10.2746   21.6325 H   0  0  0  0  0  0  0  0  0  0  0  0
    7.2270    9.2845   23.1344 H   0  0  0  0  0  0  0  0  0  0  0  0
    8.5238    8.2174   23.6893 H   0  0  0  0  0  0  0  0  0  0  0  0
   10.5021    9.6474   24.9317 H   0  0  0  0  0  0  0  0  0  0  0  0
   10.0240   11.2423   25.5546 H   0  0  0  0  0  0  0  0  0  0  0  0
   10.9568   11.2314   23.0490 H   0  0  0  0  0  0  0  0  0  0  0  0
  1  2  2  0  0  0  0
  1  3  1  0  0  0  0
  2  7  1  0  0  0  0
  3 11  2  0  0  0  0
  4  5  2  0  0  0  0
  4  9  1  0  0  0  0
  5 16  1  0  0  0  0
  6 10  1  0  0  0  0
  6 16  2  0  0  0  0
  7  8  1  0  0  0  0
  7 17  2  0  0  0  0
  8 11  1  0  0  0  0
  8 18  2  0  0  0  0
  9 10  2  0  0  0  0
  9 20  1  0  0  0  0
 10 19  1  0  0  0  0
 11 24  1  0  0  0  0
 12 13  1  0  0  0  0
 12 15  1  0  0  0  0
 13 19  1  0  0  0  0
 14 15  1  0  0  0  0
 14 19  1  0  0  0  0
 15 20  1  0  0  0  0
 17 23  1  0  0  0  0
 18 23  1  0  0  0  0
 20 24  1  0  0  0  0
 21 24  2  0  0  0  0
 22 24  2  0  0  0  0
  1 25  1  0  0  0  0
  2 26  1  0  0  0  0
  3 27  1  0  0  0  0
  4 28  1  0  0  0  0
  5 29  1  0  0  0  0
  6 30  1  0  0  0  0
 12 31  1  0  0  0  0
 12 32  1  0  0  0  0
 13 33  1  0  0  0  0
 13 34  1  0  0  0  0
 14 35  1  0  0  0  0
 14 36  1  0  0  0  0
 15 37  1  0  0  0  0
M  END
> <idnumber>
Z3294676067

> <heavy_atoms>
24

> <LogS>
-2.835

> <LogP>
2.244

> <rotating_bonds>
1

> <PSA>
92.43

> <hb_acceptors>
6

> <hb_donors>
0

> <Collection>
HTS

> <link>
https://www.enaminestore.com/catalog/Z3294676067

> <ROCS_ShapeQuery>
x0446_0A_x1080_0A_x0929_0A_x0812_0A_x0719_0A_x1140_0A_x0528_0A_x0310_0A

> <ROCS_TanimotoCombo>
0.461 

> <ROCS_ShapeTanimoto>
0.269 

> <ROCS_ColorTanimoto>
0.191 

> <ROCS_RefTversky>
0.242 

> <ROCS_RefColorTversky>
0.232 

> <ROCS_RefTverskyCombo>
0.474 

> <ROCS_FitTversky>
1.696 

> <ROCS_FitColorTversky>
0.522 

> <ROCS_FitTverskyCombo>
2.218 

> <ROCS_ColorScore>
-8.368

> <ROCS_Overlap>
2865.969

> <ROCS_Rank>
263                 

$$$$
untitled-dbase-1153627_44
  -OEChem-02092406493D

 57 62  0     1  0  0  0  0  0999 V2000
   16.9170   10.9226   25.2998 C   0  0  0  0  0  0  0  0  0  0  0  0
   15.6144   11.1168   25.7595 C   0  0  0  0  0  0  0  0  0  0  0  0
   17.4355   11.7497   24.3034 C   0  0  0  0  0  0  0  0  0  0  0  0
   14.8304   12.1380   25.2227 C   0  0  0  0  0  0  0  0  0  0  0  0
   16.6515   12.7708   23.7666 C   0  0  0  0  0  0  0  0  0  0  0  0
   15.3489   12.9650   24.2262 C   0  0  0  0  0  0  0  0  0  0  0  0
   10.6829   14.5152   21.4188 C   0  0  0  0  0  0  0  0  0  0  0  0
   12.8193   15.0687   22.5098 C   0  0  0  0  0  0  0  0  0  0  0  0
   14.0210   15.5949   22.1828 C   0  0  0  0  0  0  0  0  0  0  0  0
   13.1633   14.0200   23.5476 C   0  0  0  0  0  0  0  0  0  0  0  0
    8.3161    9.6770   24.5851 C   0  0  0  0  0  0  0  0  0  0  0  0
    9.8848   11.4927   25.3233 C   0  0  0  0  0  0  0  0  0  0  0  0
    7.4532   12.0068   24.9465 C   0  0  0  0  0  0  0  0  0  0  0  0
   10.0537   10.5937   23.0219 C   0  0  0  0  0  0  0  0  0  0  0  0
    7.6175   11.1087   22.6445 C   0  0  0  0  0  0  0  0  0  0  0  0
    9.7551   10.2171   24.4799 C   0  0  2  0  0  0  0  0  0  0  0  0
    7.3061   10.7349   24.1006 C   0  0  1  0  0  0  0  0  0  0  0  0
    8.8852   12.5319   24.8068 C   0  0  0  0  0  0  0  0  0  0  0  0
    9.0502   11.6670   22.5616 C   0  0  0  0  0  0  0  0  0  0  0  0
   14.3491   16.6091   21.1316 C   0  0  0  0  0  0  0  0  0  0  0  0
   16.0841   15.9048   23.5221 C   0  0  0  0  0  0  0  0  0  0  0  0
    9.3675   12.1266   21.1410 C   0  0  0  0  0  0  0  0  0  0  0  0
    9.5735   15.1560   21.1309 N   0  0  0  0  0  0  0  0  0  0  0  0
    9.7552   16.4396   21.5939 N   0  0  0  0  0  0  0  0  0  0  0  0
   10.9506   16.5800   22.1538 N   0  0  0  0  0  0  0  0  0  0  0  0
   11.5286   15.3758   22.0431 N   0  0  0  0  0  0  0  0  0  0  0  0
   14.5516   14.0033   23.6806 N   0  0  0  0  0  0  0  0  0  0  0  0
   15.0726   15.0419   22.9141 N   0  0  0  0  0  0  0  0  0  0  0  0
   12.3361   13.3160   24.1050 O   0  0  0  0  0  0  0  0  0  0  0  0
    9.1601   12.8189   23.4239 O   0  0  0  0  0  0  0  0  0  0  0  0
   11.0376   12.8206   21.0643 S   0  0  0  0  0  0  0  0  0  0  0  0
   17.5280   10.1281   25.7181 H   0  0  0  0  0  0  0  0  0  0  0  0
   15.2107   10.4737   26.5358 H   0  0  0  0  0  0  0  0  0  0  0  0
   18.4502   11.5988   23.9464 H   0  0  0  0  0  0  0  0  0  0  0  0
   13.8167   12.2800   25.5888 H   0  0  0  0  0  0  0  0  0  0  0  0
   17.0663   13.4092   22.9904 H   0  0  0  0  0  0  0  0  0  0  0  0
    8.2165    8.7650   23.9837 H   0  0  0  0  0  0  0  0  0  0  0  0
    8.0969    9.4012   25.6239 H   0  0  0  0  0  0  0  0  0  0  0  0
    9.7018   11.2742   26.3817 H   0  0  0  0  0  0  0  0  0  0  0  0
   10.9055   11.8846   25.2364 H   0  0  0  0  0  0  0  0  0  0  0  0
    6.7440   12.7644   24.5916 H   0  0  0  0  0  0  0  0  0  0  0  0
    7.2194   11.7991   25.9971 H   0  0  0  0  0  0  0  0  0  0  0  0
   11.0784   10.9813   22.9558 H   0  0  0  0  0  0  0  0  0  0  0  0
    9.9966    9.7060   22.3802 H   0  0  0  0  0  0  0  0  0  0  0  0
    7.5022   10.2333   21.9938 H   0  0  0  0  0  0  0  0  0  0  0  0
    6.8970   11.8652   22.3080 H   0  0  0  0  0  0  0  0  0  0  0  0
   10.4664    9.4602   24.8277 H   0  0  0  0  0  0  0  0  0  0  0  0
    6.2860   10.3439   24.1801 H   0  0  0  0  0  0  0  0  0  0  0  0
    8.9959   13.4661   25.3669 H   0  0  0  0  0  0  0  0  0  0  0  0
   14.2859   17.6122   21.5532 H   0  0  0  0  0  0  0  0  0  0  0  0
   13.6468   16.5230   20.3021 H   0  0  0  0  0  0  0  0  0  0  0  0
   15.3586   16.4397   20.7565 H   0  0  0  0  0  0  0  0  0  0  0  0
   16.8236   15.2866   24.0521 H   0  0  0  0  0  0  0  0  0  0  0  0
   16.5885   16.4875   22.7372 H   0  0  0  0  0  0  0  0  0  0  0  0
   15.6012   16.5899   24.2344 H   0  0  0  0  0  0  0  0  0  0  0  0
    8.6490   12.8860   20.8290 H   0  0  0  0  0  0  0  0  0  0  0  0
    9.2991   11.2810   20.4553 H   0  0  0  0  0  0  0  0  0  0  0  0
  1  2  1  0  0  0  0
  1  3  2  0  0  0  0
  2  4  2  0  0  0  0
  3  5  1  0  0  0  0
  4  6  1  0  0  0  0
  5  6  2  0  0  0  0
  6 27  1  0  0  0  0
  7 23  2  0  0  0  0
  7 26  1  0  0  0  0
  7 31  1  0  0  0  0
  8  9  2  0  0  0  0
  8 10  1  0  0  0  0
  8 26  1  0  0  0  0
  9 20  1  0  0  0  0
  9 28  1  0  0  0  0
 10 27  1  0  0  0  0
 10 29  2  0  0  0  0
 11 16  1  0  0  0  0
 11 17  1  0  0  0  0
 12 16  1  0  0  0  0
 12 18  1  0  0  0  0
 13 17  1  0  0  0  0
 13 18  1  0  0  0  0
 14 16  1  0  0  0  0
 14 19  1  0  0  0  0
 15 17  1  0  0  0  0
 15 19  1  0  0  0  0
 18 30  1  0  0  0  0
 19 22  1  0  0  0  0
 19 30  1  0  0  0  0
 21 28  1  0  0  0  0
 22 31  1  0  0  0  0
 23 24  1  0  0  0  0
 24 25  2  0  0  0  0
 25 26  1  0  0  0  0
 27 28  1  0  0  0  0
  1 32  1  0  0  0  0
  2 33  1  0  0  0  0
  3 34  1  0  0  0  0
  4 35  1  0  0  0  0
  5 36  1  0  0  0  0
 11 37  1  0  0  0  0
 11 38  1  0  0  0  0
 12 39  1  0  0  0  0
 12 40  1  0  0  0  0
 13 41  1  0  0  0  0
 13 42  1  0  0  0  0
 14 43  1  0  0  0  0
 14 44  1  0  0  0  0
 15 45  1  0  0  0  0
 15 46  1  0  0  0  0
 16 47  1  0  0  0  0
 17 48  1  0  0  0  0
 18 49  1  0  0  0  0
 20 50  1  0  0  0  0
 20 51  1  0  0  0  0
 20 52  1  0  0  0  0
 21 53  1  0  0  0  0
 21 54  1  0  0  0  0
 21 55  1  0  0  0  0
 22 56  1  0  0  0  0
 22 57  1  0  0  0  0
M  END
> <idnumber>
Z7351034782

> <heavy_atoms>
31

> <LogS>
-4.418

> <LogP>
1.707

> <rotating_bonds>
4

> <PSA>
76.38

> <hb_acceptors>
6

> <hb_donors>
0

> <Collection>
Advanced

> <link>
https://www.enaminestore.com/catalog/Z7351034782

> <ROCS_ShapeQuery>
x0446_0A_x1080_0A_x0929_0A_x0812_0A_x0719_0A_x1140_0A_x0528_0A_x0310_0A

> <ROCS_TanimotoCombo>
0.461 

> <ROCS_ShapeTanimoto>
0.251 

> <ROCS_ColorTanimoto>
0.209 

> <ROCS_RefTversky>
0.234 

> <ROCS_RefColorTversky>
0.252 

> <ROCS_RefTverskyCombo>
0.486 

> <ROCS_FitTversky>
1.393 

> <ROCS_FitColorTversky>
0.556 

> <ROCS_FitTverskyCombo>
1.949 

> <ROCS_ColorScore>
-9.079

> <ROCS_Overlap>
2774.961

> <ROCS_Rank>
264                 

$$$$
untitled-dbase-1134421_178
  -OEChem-02092406493D

 43 47  0     1  0  0  0  0  0999 V2000
    3.5172   13.2070   19.7438 C   0  0  0  0  0  0  0  0  0  0  0  0
    3.8071   11.9547   19.1646 C   0  0  0  0  0  0  0  0  0  0  0  0
    4.9838   11.0272   21.1623 C   0  0  0  0  0  0  0  0  0  0  0  0
    4.6942   12.2686   21.7300 C   0  0  0  0  0  0  0  0  0  0  0  0
    3.9771   13.3676   21.0709 C   0  0  0  0  0  0  0  0  0  0  0  0
    4.5068   10.9162   19.8429 C   0  0  0  0  0  0  0  0  0  0  0  0
    5.0721   12.5841   23.0123 C   0  0  0  0  0  0  0  0  0  0  0  0
   12.7357   15.0893   21.8675 C   0  0  0  0  0  0  0  0  0  0  0  0
   10.6252   15.5217   21.6004 C   0  0  0  0  0  0  0  0  0  0  0  0
    5.7950   11.8312   24.0494 C   0  0  0  0  0  0  0  0  0  0  0  0
   10.6038   13.1815   23.6738 C   0  0  0  0  0  0  0  0  0  0  0  0
    8.9165    9.9973   23.8506 C   0  0  0  0  0  0  0  0  0  0  0  0
    7.8291   11.6003   22.4975 C   0  0  0  0  0  0  0  0  0  0  0  0
    8.9505   11.9482   25.1854 C   0  0  0  0  0  0  0  0  0  0  0  0
    9.2437   11.1917   22.9460 C   0  0  1  0  0  0  0  0  0  0  0  0
    7.9900   10.8289   24.7452 C   0  0  1  0  0  0  0  0  0  0  0  0
   11.2015   13.1557   22.2906 C   0  0  0  0  0  0  0  0  0  0  0  0
    3.8401   14.4463   21.8535 N   0  0  0  0  0  0  0  0  0  0  0  0
   12.7483   16.3370   21.5257 N   0  0  0  0  0  0  0  0  0  0  0  0
   11.4291   16.6435   21.3489 N   0  0  0  0  0  0  0  0  0  0  0  0
   11.5106   14.5091   21.9407 N   0  0  0  0  0  0  0  0  0  0  0  0
    7.0755   11.4103   23.7482 N   0  0  0  0  0  0  0  0  0  0  0  0
    9.6903   12.1843   23.9374 N   0  0  0  0  0  0  0  0  0  0  0  0
    9.4065   15.4662   21.5309 O   0  0  0  0  0  0  0  0  0  0  0  0
    5.2197   11.6397   25.1184 O   0  0  0  0  0  0  0  0  0  0  0  0
   10.9367   14.0461   24.4851 O   0  0  0  0  0  0  0  0  0  0  0  0
    4.5379   14.1759   23.3306 S   0  0  0  0  0  0  0  0  0  0  0  0
    4.8132    9.2864   18.9128 Br  0  0  0  0  0  0  0  0  0  0  0  0
    2.9826   13.9796   19.2051 H   0  0  0  0  0  0  0  0  0  0  0  0
    3.4718   11.7881   18.1407 H   0  0  0  0  0  0  0  0  0  0  0  0
    5.5130   10.2280   21.6662 H   0  0  0  0  0  0  0  0  0  0  0  0
   13.6134   14.4721   22.0987 H   0  0  0  0  0  0  0  0  0  0  0  0
    8.3988    9.1840   23.3308 H   0  0  0  0  0  0  0  0  0  0  0  0
    9.7923    9.6018   24.3763 H   0  0  0  0  0  0  0  0  0  0  0  0
    7.7571   12.6364   22.1532 H   0  0  0  0  0  0  0  0  0  0  0  0
    7.4205   10.9246   21.7390 H   0  0  0  0  0  0  0  0  0  0  0  0
    8.4451   12.8596   25.5176 H   0  0  0  0  0  0  0  0  0  0  0  0
    9.6577   11.6128   25.9508 H   0  0  0  0  0  0  0  0  0  0  0  0
    9.9582   11.0246   22.1385 H   0  0  0  0  0  0  0  0  0  0  0  0
    7.4807   10.3070   25.5569 H   0  0  0  0  0  0  0  0  0  0  0  0
   10.4676   12.7317   21.6113 H   0  0  0  0  0  0  0  0  0  0  0  0
   12.0973   12.5421   22.3188 H   0  0  0  0  0  0  0  0  0  0  0  0
   11.0803   17.5530   21.0746 H   0  0  0  0  0  0  0  0  0  0  0  0
  1  2  2  0  0  0  0
  1  5  1  0  0  0  0
  2  6  1  0  0  0  0
  3  4  1  0  0  0  0
  3  6  2  0  0  0  0
  4  5  1  0  0  0  0
  4  7  2  0  0  0  0
  5 18  2  0  0  0  0
  6 28  1  0  0  0  0
  7 10  1  0  0  0  0
  7 27  1  0  0  0  0
  8 19  2  0  0  0  0
  8 21  1  0  0  0  0
  9 20  1  0  0  0  0
  9 21  1  0  0  0  0
  9 24  2  0  0  0  0
 10 22  1  0  0  0  0
 10 25  2  0  0  0  0
 11 17  1  0  0  0  0
 11 23  1  0  0  0  0
 11 26  2  0  0  0  0
 12 15  1  1  0  0  0
 12 16  1  1  0  0  0
 13 15  1  0  0  0  0
 13 22  1  0  0  0  0
 14 16  1  0  0  0  0
 14 23  1  0  0  0  0
 15 23  1  0  0  0  0
 16 22  1  0  0  0  0
 17 21  1  0  0  0  0
 18 27  1  0  0  0  0
 19 20  1  0  0  0  0
  1 29  1  0  0  0  0
  2 30  1  0  0  0  0
  3 31  1  0  0  0  0
  8 32  1  0  0  0  0
 12 33  1  0  0  0  0
 12 34  1  0  0  0  0
 13 35  1  0  0  0  0
 13 36  1  0  0  0  0
 14 37  1  0  0  0  0
 14 38  1  0  0  0  0
 15 39  1  0  0  0  0
 16 40  1  0  0  0  0
 17 41  1  0  0  0  0
 17 42  1  0  0  0  0
 20 43  1  0  0  0  0
M  END
> <idnumber>
Z6032609687

> <heavy_atoms>
28

> <LogS>
-5.341

> <LogP>
2.168

> <rotating_bonds>
3

> <PSA>
98.21

> <hb_acceptors>
5

> <hb_donors>
1

> <Collection>
Advanced

> <link>
https://www.enaminestore.com/catalog/Z6032609687

> <ROCS_ShapeQuery>
x0446_0A_x1080_0A_x0929_0A_x0812_0A_x0719_0A_x1140_0A_x0528_0A_x0310_0A

> <ROCS_TanimotoCombo>
0.461 

> <ROCS_ShapeTanimoto>
0.245 

> <ROCS_ColorTanimoto>
0.216 

> <ROCS_RefTversky>
0.227 

> <ROCS_RefColorTversky>
0.263 

> <ROCS_RefTverskyCombo>
0.491 

> <ROCS_FitTversky>
1.450 

> <ROCS_FitColorTversky>
0.545 

> <ROCS_FitTverskyCombo>
1.995 

> <ROCS_ColorScore>
-9.522

> <ROCS_Overlap>
2689.867

> <ROCS_Rank>
265                 

$$$$
untitled-dbase-1154629_13
  -OEChem-02092406493D

 50 53  0     1  0  0  0  0  0999 V2000
   12.5956   12.9749   20.1513 C   0  0  0  0  0  0  0  0  0  0  0  0
   11.8747   13.8292   19.3169 C   0  0  0  0  0  0  0  0  0  0  0  0
   12.2213   12.8243   21.4865 C   0  0  0  0  0  0  0  0  0  0  0  0
   10.7795   14.5329   19.8178 C   0  0  0  0  0  0  0  0  0  0  0  0
   11.1261   13.5280   21.9874 C   0  0  0  0  0  0  0  0  0  0  0  0
    4.8137   13.7226   23.1804 C   0  0  0  0  0  0  0  0  0  0  0  0
   10.4052   14.3823   21.1531 C   0  0  0  0  0  0  0  0  0  0  0  0
    5.0446   12.3622   23.4591 C   0  0  0  0  0  0  0  0  0  0  0  0
    3.8730   13.7132   22.1797 C   0  0  0  0  0  0  0  0  0  0  0  0
   10.7491   13.3548   23.3964 C   0  0  0  0  0  0  0  0  0  0  0  0
    5.9642   11.7915   24.4521 C   0  0  0  0  0  0  0  0  0  0  0  0
    9.0953   10.1556   23.6930 C   0  0  0  0  0  0  0  0  0  0  0  0
    9.3977   12.0606   25.0530 C   0  0  0  0  0  0  0  0  0  0  0  0
    7.7166   11.7755   22.6705 C   0  0  0  0  0  0  0  0  0  0  0  0
    8.3761   10.9389   24.8002 C   0  0  1  0  0  0  0  0  0  0  0  0
    9.2003   11.3841   22.7784 C   0  0  1  0  0  0  0  0  0  0  0  0
    5.4385   14.8965   23.8161 C   0  0  0  0  0  0  0  0  0  0  0  0
    2.6845   11.8628   20.9554 C   0  0  0  0  0  0  0  0  0  0  0  0
    8.6543   15.9265   20.6995 C   0  0  0  0  0  0  0  0  0  0  0  0
    4.3097   11.5478   22.6972 N   0  0  0  0  0  0  0  0  0  0  0  0
    3.6077   12.3989   21.9298 N   0  0  0  0  0  0  0  0  0  0  0  0
    9.8476   12.3515   23.6891 N   0  0  0  0  0  0  0  0  0  0  0  0
    7.2540   11.5260   24.0383 N   0  0  0  0  0  0  0  0  0  0  0  0
    3.2582   14.7029   21.4988 N   0  0  0  0  0  0  0  0  0  0  0  0
   11.2690   14.1044   24.2196 O   0  0  0  0  0  0  0  0  0  0  0  0
    5.5289   11.6002   25.5852 O   0  0  0  0  0  0  0  0  0  0  0  0
    9.3309   15.0770   21.6235 O   0  0  0  0  0  0  0  0  0  0  0  0
   13.4485   12.4270   19.7608 H   0  0  0  0  0  0  0  0  0  0  0  0
   12.1671   13.9464   18.2776 H   0  0  0  0  0  0  0  0  0  0  0  0
   12.7901   12.1554   22.1274 H   0  0  0  0  0  0  0  0  0  0  0  0
   10.2221   15.1967   19.1625 H   0  0  0  0  0  0  0  0  0  0  0  0
   10.0705    9.7620   23.9993 H   0  0  0  0  0  0  0  0  0  0  0  0
    8.4868    9.3482   23.2716 H   0  0  0  0  0  0  0  0  0  0  0  0
    8.9663   12.9536   25.5221 H   0  0  0  0  0  0  0  0  0  0  0  0
   10.2586   11.7165   25.6405 H   0  0  0  0  0  0  0  0  0  0  0  0
    7.5565   12.8231   22.3870 H   0  0  0  0  0  0  0  0  0  0  0  0
    7.1614   11.1204   21.9868 H   0  0  0  0  0  0  0  0  0  0  0  0
    8.0634   10.3813   25.6810 H   0  0  0  0  0  0  0  0  0  0  0  0
    9.7228   11.2580   21.8321 H   0  0  0  0  0  0  0  0  0  0  0  0
    6.3567   15.1975   23.2840 H   0  0  0  0  0  0  0  0  0  0  0  0
    4.7622   15.7692   23.8335 H   0  0  0  0  0  0  0  0  0  0  0  0
    5.7111   14.7036   24.8687 H   0  0  0  0  0  0  0  0  0  0  0  0
    3.2288   11.7193   20.0183 H   0  0  0  0  0  0  0  0  0  0  0  0
    2.2867   10.9102   21.3162 H   0  0  0  0  0  0  0  0  0  0  0  0
    1.8585   12.5657   20.8152 H   0  0  0  0  0  0  0  0  0  0  0  0
    7.8190   16.4205   21.2019 H   0  0  0  0  0  0  0  0  0  0  0  0
    8.2877   15.3327   19.8584 H   0  0  0  0  0  0  0  0  0  0  0  0
    9.3538   16.6814   20.3327 H   0  0  0  0  0  0  0  0  0  0  0  0
    3.4192   15.6986   21.7129 H   0  0  0  0  0  0  0  0  0  0  0  0
    2.5277   14.5137   20.7962 H   0  0  0  0  0  0  0  0  0  0  0  0
  1  2  1  0  0  0  0
  1  3  2  0  0  0  0
  2  4  2  0  0  0  0
  3  5  1  0  0  0  0
  4  7  1  0  0  0  0
  5  7  2  0  0  0  0
  5 10  1  0  0  0  0
  6  8  1  0  0  0  0
  6  9  2  0  0  0  0
  6 17  1  0  0  0  0
  7 27  1  0  0  0  0
  8 11  1  0  0  0  0
  8 20  2  0  0  0  0
  9 21  1  0  0  0  0
  9 24  1  0  0  0  0
 10 22  1  0  0  0  0
 10 25  2  0  0  0  0
 11 23  1  0  0  0  0
 11 26  2  0  0  0  0
 12 15  1  1  0  0  0
 12 16  1  1  0  0  0
 13 15  1  0  0  0  0
 13 22  1  0  0  0  0
 14 16  1  0  0  0  0
 14 23  1  0  0  0  0
 15 23  1  0  0  0  0
 16 22  1  0  0  0  0
 18 21  1  0  0  0  0
 19 27  1  0  0  0  0
 20 21  1  0  0  0  0
  1 28  1  0  0  0  0
  2 29  1  0  0  0  0
  3 30  1  0  0  0  0
  4 31  1  0  0  0  0
 12 32  1  0  0  0  0
 12 33  1  0  0  0  0
 13 34  1  0  0  0  0
 13 35  1  0  0  0  0
 14 36  1  0  0  0  0
 14 37  1  0  0  0  0
 15 38  1  0  0  0  0
 16 39  1  0  0  0  0
 17 40  1  0  0  0  0
 17 41  1  0  0  0  0
 17 42  1  0  0  0  0
 18 43  1  0  0  0  0
 18 44  1  0  0  0  0
 18 45  1  0  0  0  0
 19 46  1  0  0  0  0
 19 47  1  0  0  0  0
 19 48  1  0  0  0  0
 24 49  1  0  0  0  0
 24 50  1  0  0  0  0
M  END
> <idnumber>
Z7396307456

> <heavy_atoms>
27

> <LogS>
-3.846

> <LogP>
0.31

> <rotating_bonds>
3

> <PSA>
93.69

> <hb_acceptors>
5

> <hb_donors>
1

> <Collection>
Advanced

> <link>
https://www.enaminestore.com/catalog/Z7396307456

> <ROCS_ShapeQuery>
x0446_0A_x1080_0A_x0929_0A_x0812_0A_x0719_0A_x1140_0A_x0528_0A_x0310_0A

> <ROCS_TanimotoCombo>
0.461 

> <ROCS_ShapeTanimoto>
0.224 

> <ROCS_ColorTanimoto>
0.237 

> <ROCS_RefTversky>
0.211 

> <ROCS_RefColorTversky>
0.274 

> <ROCS_RefTverskyCombo>
0.485 

> <ROCS_FitTversky>
1.372 

> <ROCS_FitColorTversky>
0.635 

> <ROCS_FitTverskyCombo>
2.007 

> <ROCS_ColorScore>
-9.877

> <ROCS_Overlap>
2495.735

> <ROCS_Rank>
266                 

$$$$
untitled-dbase-600650_16
  -OEChem-02092406493D

 52 56  0     0  0  0  0  0  0999 V2000
    8.3255   14.0230   22.2455 C   0  0  0  0  0  0  0  0  0  0  0  0
    7.1650   15.4919   21.2907 C   0  0  0  0  0  0  0  0  0  0  0  0
    4.0582   14.3245   20.2944 C   0  0  0  0  0  0  0  0  0  0  0  0
    2.9338   10.6660   18.5418 C   0  0  0  0  0  0  0  0  0  0  0  0
    2.7468   11.0002   20.0208 C   0  0  0  0  0  0  0  0  0  0  0  0
    3.9605   11.5962   17.8972 C   0  0  0  0  0  0  0  0  0  0  0  0
    9.6785   11.3488   25.3909 C   0  0  0  0  0  0  0  0  0  0  0  0
    9.8188   10.0666   23.2412 C   0  0  0  0  0  0  0  0  0  0  0  0
    7.6125   10.3327   24.4003 C   0  0  0  0  0  0  0  0  0  0  0  0
   10.1040   12.5563   23.2366 C   0  0  0  0  0  0  0  0  0  0  0  0
    7.9041   12.8243   24.4085 C   0  0  0  0  0  0  0  0  0  0  0  0
    8.0458   11.5302   22.2389 C   0  0  0  0  0  0  0  0  0  0  0  0
    2.4141   12.4769   20.2154 C   0  0  0  0  0  0  0  0  0  0  0  0
    3.6058   13.0628   18.1324 C   0  0  0  0  0  0  0  0  0  0  0  0
   10.3752   11.2634   24.0255 C   0  0  0  0  0  0  0  0  0  0  0  0
    8.1667   11.5273   25.1939 C   0  0  0  0  0  0  0  0  0  0  0  0
    8.3077   10.2379   23.0323 C   0  0  0  0  0  0  0  0  0  0  0  0
    8.5782   12.7768   23.0054 C   0  0  0  0  0  0  0  0  0  0  0  0
    5.0730   15.1565   19.5517 C   0  0  0  0  0  0  0  0  0  0  0  0
    9.1769   14.9043   21.7754 N   0  0  0  0  0  0  0  0  0  0  0  0
    8.4134   15.8707   21.1474 N   0  0  0  0  0  0  0  0  0  0  0  0
    3.4114   13.3286   19.5634 N   0  0  0  0  0  0  0  0  0  0  0  0
    3.8495   14.5529   21.4887 O   0  0  0  0  0  0  0  0  0  0  0  0
    7.0255   14.3256   21.9785 O   0  0  0  0  0  0  0  0  0  0  0  0
    5.8089   16.3833   20.6670 S   0  0  0  0  0  0  0  0  0  0  0  0
    3.2549    9.6240   18.4331 H   0  0  0  0  0  0  0  0  0  0  0  0
    1.9737   10.7634   18.0204 H   0  0  0  0  0  0  0  0  0  0  0  0
    1.9439   10.3825   20.4385 H   0  0  0  0  0  0  0  0  0  0  0  0
    3.6622   10.7546   20.5730 H   0  0  0  0  0  0  0  0  0  0  0  0
    4.9560   11.3895   18.3099 H   0  0  0  0  0  0  0  0  0  0  0  0
    4.0112   11.3967   16.8211 H   0  0  0  0  0  0  0  0  0  0  0  0
    9.8769   10.4392   25.9711 H   0  0  0  0  0  0  0  0  0  0  0  0
   10.0841   12.1890   25.9678 H   0  0  0  0  0  0  0  0  0  0  0  0
   10.3253    9.9844   22.2717 H   0  0  0  0  0  0  0  0  0  0  0  0
   10.0196    9.1353   23.7851 H   0  0  0  0  0  0  0  0  0  0  0  0
    7.7693    9.4047   24.9641 H   0  0  0  0  0  0  0  0  0  0  0  0
    6.5295   10.4426   24.2641 H   0  0  0  0  0  0  0  0  0  0  0  0
   10.5295   13.4129   23.7769 H   0  0  0  0  0  0  0  0  0  0  0  0
   10.6277   12.5150   22.2718 H   0  0  0  0  0  0  0  0  0  0  0  0
    6.8215   12.9742   24.2985 H   0  0  0  0  0  0  0  0  0  0  0  0
    8.2774   13.6852   24.9793 H   0  0  0  0  0  0  0  0  0  0  0  0
    8.5207   11.4613   21.2510 H   0  0  0  0  0  0  0  0  0  0  0  0
    6.9679   11.6361   22.0552 H   0  0  0  0  0  0  0  0  0  0  0  0
    1.4410   12.7127   19.7684 H   0  0  0  0  0  0  0  0  0  0  0  0
    2.3461   12.7026   21.2842 H   0  0  0  0  0  0  0  0  0  0  0  0
    4.3819   13.6962   17.6994 H   0  0  0  0  0  0  0  0  0  0  0  0
    2.6651   13.3131   17.6276 H   0  0  0  0  0  0  0  0  0  0  0  0
   11.4544   11.1401   24.1695 H   0  0  0  0  0  0  0  0  0  0  0  0
    7.6716   11.5824   26.1699 H   0  0  0  0  0  0  0  0  0  0  0  0
    7.9126    9.3798   22.4772 H   0  0  0  0  0  0  0  0  0  0  0  0
    4.5931   15.6731   18.7156 H   0  0  0  0  0  0  0  0  0  0  0  0
    5.8617   14.5158   19.1469 H   0  0  0  0  0  0  0  0  0  0  0  0
  1 18  1  0  0  0  0
  1 20  2  0  0  0  0
  1 24  1  0  0  0  0
  2 21  2  0  0  0  0
  2 24  1  0  0  0  0
  2 25  1  0  0  0  0
  3 19  1  0  0  0  0
  3 22  1  0  0  0  0
  3 23  2  0  0  0  0
  4  5  1  0  0  0  0
  4  6  1  0  0  0  0
  5 13  1  0  0  0  0
  6 14  1  0  0  0  0
  7 15  1  0  0  0  0
  7 16  1  0  0  0  0
  8 15  1  0  0  0  0
  8 17  1  0  0  0  0
  9 16  1  0  0  0  0
  9 17  1  0  0  0  0
 10 15  1  0  0  0  0
 10 18  1  0  0  0  0
 11 16  1  0  0  0  0
 11 18  1  0  0  0  0
 12 17  1  0  0  0  0
 12 18  1  0  0  0  0
 13 22  1  0  0  0  0
 14 22  1  0  0  0  0
 19 25  1  0  0  0  0
 20 21  1  0  0  0  0
  4 26  1  0  0  0  0
  4 27  1  0  0  0  0
  5 28  1  0  0  0  0
  5 29  1  0  0  0  0
  6 30  1  0  0  0  0
  6 31  1  0  0  0  0
  7 32  1  0  0  0  0
  7 33  1  0  0  0  0
  8 34  1  0  0  0  0
  8 35  1  0  0  0  0
  9 36  1  0  0  0  0
  9 37  1  0  0  0  0
 10 38  1  0  0  0  0
 10 39  1  0  0  0  0
 11 40  1  0  0  0  0
 11 41  1  0  0  0  0
 12 42  1  0  0  0  0
 12 43  1  0  0  0  0
 13 44  1  0  0  0  0
 13 45  1  0  0  0  0
 14 46  1  0  0  0  0
 14 47  1  0  0  0  0
 15 48  1  0  0  0  0
 16 49  1  0  0  0  0
 17 50  1  0  0  0  0
 19 51  1  0  0  0  0
 19 52  1  0  0  0  0
M  END
> <idnumber>
Z152355880

> <heavy_atoms>
25

> <LogS>
-5.63

> <LogP>
3.381

> <rotating_bonds>
4

> <PSA>
59.23

> <hb_acceptors>
3

> <hb_donors>
0

> <Collection>
HTS

> <link>
https://www.enaminestore.com/catalog/Z152355880

> <ROCS_ShapeQuery>
x0446_0A_x1080_0A_x0929_0A_x0812_0A_x0719_0A_x1140_0A_x0528_0A_x0310_0A

> <ROCS_TanimotoCombo>
0.461 

> <ROCS_ShapeTanimoto>
0.236 

> <ROCS_ColorTanimoto>
0.225 

> <ROCS_RefTversky>
0.218 

> <ROCS_RefColorTversky>
0.250 

> <ROCS_RefTverskyCombo>
0.468 

> <ROCS_FitTversky>
1.527 

> <ROCS_FitColorTversky>
0.689 

> <ROCS_FitTverskyCombo>
2.217 

> <ROCS_ColorScore>
-8.981

> <ROCS_Overlap>
2577.453

> <ROCS_Rank>
267                 

$$$$
untitled-dbase-960284_147
  -OEChem-02092406493D

 49 52  0     1  0  0  0  0  0999 V2000
    3.3411   10.5083   18.7039 C   0  0  0  0  0  0  0  0  0  0  0  0
    4.2998   10.9547   19.6588 C   0  0  0  0  0  0  0  0  0  0  0  0
   11.5876   16.0224   22.3838 C   0  0  0  0  0  0  0  0  0  0  0  0
   10.3844   15.7841   21.7513 C   0  0  0  0  0  0  0  0  0  0  0  0
   11.9211   15.1348   23.3864 C   0  0  0  0  0  0  0  0  0  0  0  0
    2.4410   11.4973   18.3731 C   0  0  0  0  0  0  0  0  0  0  0  0
    4.0960   12.2682   20.0212 C   0  0  0  0  0  0  0  0  0  0  0  0
    9.9994   13.9656   23.0597 C   0  0  0  0  0  0  0  0  0  0  0  0
    7.0415   13.0491   22.2220 C   0  0  0  0  0  0  0  0  0  0  0  0
    7.2002   10.8800   24.2383 C   0  0  0  0  0  0  0  0  0  0  0  0
    7.9947   11.7421   25.2243 C   0  0  0  0  0  0  0  0  0  0  0  0
   10.1036   10.7975   24.2326 C   0  0  0  0  0  0  0  0  0  0  0  0
    8.2953   12.2491   22.4108 C   0  0  2  0  0  0  0  0  0  0  0  0
    7.9575   10.8178   22.9000 C   0  0  1  0  0  0  0  0  0  0  0  0
    9.3798   12.0967   24.6414 C   0  0  1  0  0  0  0  0  0  0  0  0
    9.2851   10.0837   23.1523 C   0  0  0  0  0  0  0  0  0  0  0  0
   13.2035   15.3117   24.1278 C   0  0  0  0  0  0  0  0  0  0  0  0
    1.3058   11.4300   17.4273 C   0  0  0  0  0  0  0  0  0  0  0  0
    4.8820   13.1027   20.9908 C   0  0  0  0  0  0  0  0  0  0  0  0
    9.5624   14.7612   22.0650 N   0  0  0  0  0  0  0  0  0  0  0  0
   11.1477   14.0915   23.7519 N   0  0  0  0  0  0  0  0  0  0  0  0
    9.1736   12.8960   23.4112 N   0  0  1  0  0  0  0  0  0  0  0  0
    6.1522   12.4968   21.3201 N   0  0  0  0  0  0  0  0  0  0  0  0
    6.8894   14.0909   22.8491 O   0  0  0  0  0  0  0  0  0  0  0  0
   10.0008   10.0177   22.0019 F   0  0  0  0  0  0  0  0  0  0  0  0
    9.0471    8.8029   23.5280 F   0  0  0  0  0  0  0  0  0  0  0  0
    2.7534   12.9571   19.2120 S   0  0  0  0  0  0  0  0  0  0  0  0
    3.3174    9.5113   18.2825 H   0  0  0  0  0  0  0  0  0  0  0  0
    5.0980   10.3406   20.0559 H   0  0  0  0  0  0  0  0  0  0  0  0
   12.2212   16.8543   22.1043 H   0  0  0  0  0  0  0  0  0  0  0  0
   10.0377   16.4286   20.9506 H   0  0  0  0  0  0  0  0  0  0  0  0
    7.0670    9.8739   24.6479 H   0  0  0  0  0  0  0  0  0  0  0  0
    6.1976   11.2946   24.1017 H   0  0  0  0  0  0  0  0  0  0  0  0
    7.4385   12.6605   25.4555 H   0  0  0  0  0  0  0  0  0  0  0  0
    8.1156   11.2054   26.1746 H   0  0  0  0  0  0  0  0  0  0  0  0
   11.1079   11.0229   23.8634 H   0  0  0  0  0  0  0  0  0  0  0  0
   10.2119   10.1479   25.1059 H   0  0  0  0  0  0  0  0  0  0  0  0
    8.7933   12.1830   21.4334 H   0  0  0  0  0  0  0  0  0  0  0  0
    7.3567   10.2819   22.1559 H   0  0  0  0  0  0  0  0  0  0  0  0
    9.9644   12.6521   25.3861 H   0  0  0  0  0  0  0  0  0  0  0  0
   13.0520   15.9529   25.0045 H   0  0  0  0  0  0  0  0  0  0  0  0
   13.6038   14.3475   24.4665 H   0  0  0  0  0  0  0  0  0  0  0  0
   13.9718   15.7686   23.4907 H   0  0  0  0  0  0  0  0  0  0  0  0
    0.3858   11.1053   17.9381 H   0  0  0  0  0  0  0  0  0  0  0  0
    1.1044   12.4064   16.9571 H   0  0  0  0  0  0  0  0  0  0  0  0
    1.5002   10.7258   16.6018 H   0  0  0  0  0  0  0  0  0  0  0  0
    5.0801   14.0958   20.5732 H   0  0  0  0  0  0  0  0  0  0  0  0
    4.3279   13.2469   21.9243 H   0  0  0  0  0  0  0  0  0  0  0  0
    6.4032   11.6234   20.8668 H   0  0  0  0  0  0  0  0  0  0  0  0
  1  2  1  0  0  0  0
  1  6  2  0  0  0  0
  2  7  2  0  0  0  0
  3  4  1  0  0  0  0
  3  5  2  0  0  0  0
  4 20  2  0  0  0  0
  5 17  1  0  0  0  0
  5 21  1  0  0  0  0
  6 18  1  0  0  0  0
  6 27  1  0  0  0  0
  7 19  1  0  0  0  0
  7 27  1  0  0  0  0
  8 20  1  0  0  0  0
  8 21  2  0  0  0  0
  8 22  1  0  0  0  0
  9 13  1  6  0  0  0
  9 23  1  0  0  0  0
  9 24  2  0  0  0  0
 10 11  1  0  0  0  0
 10 14  1  6  0  0  0
 11 15  1  0  0  0  0
 12 15  1  0  0  0  0
 12 16  1  0  0  0  0
 13 14  1  0  0  0  0
 13 22  1  0  0  0  0
 14 16  1  0  0  0  0
 15 22  1  1  0  0  0
 16 25  1  0  0  0  0
 16 26  1  0  0  0  0
 19 23  1  0  0  0  0
  1 28  1  0  0  0  0
  2 29  1  0  0  0  0
  3 30  1  0  0  0  0
  4 31  1  0  0  0  0
 10 32  1  0  0  0  0
 10 33  1  0  0  0  0
 11 34  1  0  0  0  0
 11 35  1  0  0  0  0
 12 36  1  0  0  0  0
 12 37  1  0  0  0  0
 13 38  1  0  0  0  0
 14 39  1  0  0  0  0
 15 40  1  0  0  0  0
 17 41  1  0  0  0  0
 17 42  1  0  0  0  0
 17 43  1  0  0  0  0
 18 44  1  0  0  0  0
 18 45  1  0  0  0  0
 18 46  1  0  0  0  0
 19 47  1  0  0  0  0
 19 48  1  0  0  0  0
 23 49  1  0  0  0  0
M  END
> <idnumber>
Z2803817203

> <heavy_atoms>
27

> <LogS>
-5.409

> <LogP>
2.483

> <rotating_bonds>
4

> <PSA>
58.12

> <hb_acceptors>
4

> <hb_donors>
1

> <Collection>
Advanced

> <link>
https://www.enaminestore.com/catalog/Z2803817203

> <ROCS_ShapeQuery>
x0446_0A_x1080_0A_x0929_0A_x0812_0A_x0719_0A_x1140_0A_x0528_0A_x0310_0A

> <ROCS_TanimotoCombo>
0.460 

> <ROCS_ShapeTanimoto>
0.272 

> <ROCS_ColorTanimoto>
0.188 

> <ROCS_RefTversky>
0.246 

> <ROCS_RefColorTversky>
0.217 

> <ROCS_RefTverskyCombo>
0.463 

> <ROCS_FitTversky>
1.628 

> <ROCS_FitColorTversky>
0.587 

> <ROCS_FitTverskyCombo>
2.215 

> <ROCS_ColorScore>
-7.803

> <ROCS_Overlap>
2911.723

> <ROCS_Rank>
268                 

$$$$
untitled-dbase-1058261_47
  -OEChem-02092406493D

 46 50  0     1  0  0  0  0  0999 V2000
    8.3862   10.2171   23.3966 C   0  0  0  0  0  0  0  0  0  0  0  0
    9.6571   10.4791   22.9071 C   0  0  0  0  0  0  0  0  0  0  0  0
    7.6470   13.3944   25.0775 C   0  0  0  0  0  0  0  0  0  0  0  0
    6.3762   13.1032   25.5549 C   0  0  0  0  0  0  0  0  0  0  0  0
    6.4244   11.0030   24.6505 C   0  0  0  0  0  0  0  0  0  0  0  0
    7.7055   11.1993   24.1292 C   0  0  0  0  0  0  0  0  0  0  0  0
    8.3381   12.4357   24.3493 C   0  0  0  0  0  0  0  0  0  0  0  0
   10.2001   11.7214   23.1717 C   0  0  0  0  0  0  0  0  0  0  0  0
    9.5476   14.5473   21.7179 C   0  0  0  0  0  0  0  0  0  0  0  0
    7.8764   13.8458   20.6543 C   0  0  0  0  0  0  0  0  0  0  0  0
   11.5394   12.0604   22.6823 C   0  0  0  0  0  0  0  0  0  0  0  0
   12.1394   16.0727   23.6458 C   0  0  0  0  0  0  0  0  0  0  0  0
   10.9237   15.2049   23.9857 C   0  0  0  0  0  0  0  0  0  0  0  0
   13.0125   15.1888   21.3510 C   0  0  0  0  0  0  0  0  0  0  0  0
   13.1364   13.7635   21.8699 C   0  0  0  0  0  0  0  0  0  0  0  0
   11.8755   15.8141   22.1491 C   0  0  1  0  0  0  0  0  0  0  0  0
   10.9292   14.6113   22.5369 C   0  0  2  0  0  0  0  0  0  0  0  0
    4.9873   11.6592   20.2439 C   0  0  0  0  0  0  0  0  0  0  0  0
    7.0058   12.8433   20.0279 C   0  0  0  0  0  0  0  0  0  0  0  0
    5.7451   11.9282   25.3597 N   0  0  0  0  0  0  0  0  0  0  0  0
    9.5720   12.6927   23.8748 N   0  0  0  0  0  0  0  0  0  0  0  0
    8.8366   15.6106   21.4234 N   0  0  0  0  0  0  0  0  0  0  0  0
    7.7372   15.1490   20.7238 N   0  0  0  0  0  0  0  0  0  0  0  0
   11.8168   13.3923   22.3851 N   0  0  0  0  0  0  0  0  0  0  0  0
   12.3292   11.1268   22.5482 O   0  0  0  0  0  0  0  0  0  0  0  0
    9.0033   13.3854   21.2633 O   0  0  0  0  0  0  0  0  0  0  0  0
    5.8429   12.6253   20.8315 O   0  0  0  0  0  0  0  0  0  0  0  0
    7.9303    9.2485   23.2065 H   0  0  0  0  0  0  0  0  0  0  0  0
   10.1958    9.7277   22.3401 H   0  0  0  0  0  0  0  0  0  0  0  0
    8.0886   14.3665   25.2775 H   0  0  0  0  0  0  0  0  0  0  0  0
    5.8185   13.8377   26.1266 H   0  0  0  0  0  0  0  0  0  0  0  0
    5.8938   10.0659   24.5061 H   0  0  0  0  0  0  0  0  0  0  0  0
   12.0569   17.1187   23.9559 H   0  0  0  0  0  0  0  0  0  0  0  0
   13.0856   15.6741   24.0281 H   0  0  0  0  0  0  0  0  0  0  0  0
   11.0840   14.4905   24.7990 H   0  0  0  0  0  0  0  0  0  0  0  0
   10.0269   15.7911   24.2207 H   0  0  0  0  0  0  0  0  0  0  0  0
   13.9480   15.7464   21.4550 H   0  0  0  0  0  0  0  0  0  0  0  0
   12.7452   15.1685   20.2879 H   0  0  0  0  0  0  0  0  0  0  0  0
   13.4562   13.0589   21.0960 H   0  0  0  0  0  0  0  0  0  0  0  0
   13.8434   13.6979   22.7045 H   0  0  0  0  0  0  0  0  0  0  0  0
   11.3870   16.6580   21.6479 H   0  0  0  0  0  0  0  0  0  0  0  0
    4.1098   11.5143   20.8788 H   0  0  0  0  0  0  0  0  0  0  0  0
    5.5266   10.7157   20.1285 H   0  0  0  0  0  0  0  0  0  0  0  0
    4.6686   12.0170   19.2620 H   0  0  0  0  0  0  0  0  0  0  0  0
    6.6634   13.1491   19.0203 H   0  0  0  0  0  0  0  0  0  0  0  0
    7.5134   11.8678   19.8990 H   0  0  0  0  0  0  0  0  0  0  0  0
  1  2  2  0  0  0  0
  1  6  1  0  0  0  0
  2  8  1  0  0  0  0
  3  4  2  0  0  0  0
  3  7  1  0  0  0  0
  4 20  1  0  0  0  0
  5  6  1  0  0  0  0
  5 20  2  0  0  0  0
  6  7  2  0  0  0  0
  7 21  1  0  0  0  0
  8 11  1  0  0  0  0
  8 21  2  0  0  0  0
  9 17  1  6  0  0  0
  9 22  2  0  0  0  0
  9 26  1  0  0  0  0
 10 19  1  0  0  0  0
 10 23  2  0  0  0  0
 10 26  1  0  0  0  0
 11 24  1  0  0  0  0
 11 25  2  0  0  0  0
 12 13  1  0  0  0  0
 12 16  1  1  0  0  0
 13 17  1  0  0  0  0
 14 15  1  0  0  0  0
 14 16  1  0  0  0  0
 15 24  1  0  0  0  0
 16 17  1  0  0  0  0
 17 24  1  0  0  0  0
 18 27  1  0  0  0  0
 19 27  1  0  0  0  0
 22 23  1  0  0  0  0
  1 28  1  0  0  0  0
  2 29  1  0  0  0  0
  3 30  1  0  0  0  0
  4 31  1  0  0  0  0
  5 32  1  0  0  0  0
 12 33  1  0  0  0  0
 12 34  1  0  0  0  0
 13 35  1  0  0  0  0
 13 36  1  0  0  0  0
 14 37  1  0  0  0  0
 14 38  1  0  0  0  0
 15 39  1  0  0  0  0
 15 40  1  0  0  0  0
 16 41  1  0  0  0  0
 18 42  1  0  0  0  0
 18 43  1  0  0  0  0
 18 44  1  0  0  0  0
 19 45  1  0  0  0  0
 19 46  1  0  0  0  0
M  END
> <idnumber>
Z3799778374

> <heavy_atoms>
27

> <LogS>
-2.665

> <LogP>
-0.85

> <rotating_bonds>
4

> <PSA>
94.24

> <hb_acceptors>
6

> <hb_donors>
0

> <Collection>
Premium

> <link>
https://www.enaminestore.com/catalog/Z3799778374

> <ROCS_ShapeQuery>
x0446_0A_x1080_0A_x0929_0A_x0812_0A_x0719_0A_x1140_0A_x0528_0A_x0310_0A

> <ROCS_TanimotoCombo>
0.460 

> <ROCS_ShapeTanimoto>
0.277 

> <ROCS_ColorTanimoto>
0.184 

> <ROCS_RefTversky>
0.250 

> <ROCS_RefColorTversky>
0.224 

> <ROCS_RefTverskyCombo>
0.474 

> <ROCS_FitTversky>
1.620 

> <ROCS_FitColorTversky>
0.509 

> <ROCS_FitTverskyCombo>
2.129 

> <ROCS_ColorScore>
-8.066

> <ROCS_Overlap>
2957.395

> <ROCS_Rank>
269                 

$$$$
untitled-dbase-556206_34
  -OEChem-02092406493D

 47 50  0     0  0  0  0  0  0999 V2000
    6.3578   15.2386   21.2434 C   0  0  0  0  0  0  0  0  0  0  0  0
   12.8982   16.4720   23.0925 C   0  0  0  0  0  0  0  0  0  0  0  0
   13.0486   15.8147   20.7725 C   0  0  0  0  0  0  0  0  0  0  0  0
   11.9055   15.5142   23.2995 C   0  0  0  0  0  0  0  0  0  0  0  0
   12.0559   14.8569   20.9795 C   0  0  0  0  0  0  0  0  0  0  0  0
    6.9917   13.9808   21.3818 C   0  0  0  0  0  0  0  0  0  0  0  0
    7.3668   16.1590   21.0799 C   0  0  0  0  0  0  0  0  0  0  0  0
    7.9455   12.2539   24.3097 C   0  0  0  0  0  0  0  0  0  0  0  0
    9.2890   12.0962   23.9110 C   0  0  0  0  0  0  0  0  0  0  0  0
   13.4697   16.6223   21.8290 C   0  0  0  0  0  0  0  0  0  0  0  0
   11.4844   14.7067   22.2430 C   0  0  0  0  0  0  0  0  0  0  0  0
    8.3430   14.2222   21.2928 C   0  0  0  0  0  0  0  0  0  0  0  0
    9.4541   10.7469   23.7006 C   0  0  0  0  0  0  0  0  0  0  0  0
    7.3638   10.9974   24.3215 C   0  0  0  0  0  0  0  0  0  0  0  0
    5.3786   11.7332   24.9715 C   0  0  0  0  0  0  0  0  0  0  0  0
    7.1571   13.4103   24.6728 C   0  0  0  0  0  0  0  0  0  0  0  0
   10.3080   13.0901   23.7443 C   0  0  0  0  0  0  0  0  0  0  0  0
   14.5311   17.6464   21.6077 C   0  0  0  0  0  0  0  0  0  0  0  0
   10.5977    9.9240   23.2773 C   0  0  0  0  0  0  0  0  0  0  0  0
    4.9034   14.1093   25.3937 C   0  0  0  0  0  0  0  0  0  0  0  0
    9.5513   13.3335   21.3588 C   0  0  0  0  0  0  0  0  0  0  0  0
    6.0823   10.6891   24.6461 N   0  0  0  0  0  0  0  0  0  0  0  0
    5.8314   13.0596   25.0045 N   0  0  0  0  0  0  0  0  0  0  0  0
   10.4527   13.7109   22.4579 N   0  0  0  0  0  0  0  0  0  0  0  0
    7.6228   14.5448   24.6790 O   0  0  0  0  0  0  0  0  0  0  0  0
   11.0671   13.4013   24.6868 O   0  0  0  0  0  0  0  0  0  0  0  0
    8.5800   15.5476   21.1087 O   0  0  0  0  0  0  0  0  0  0  0  0
    8.2987   10.0730   23.9453 O   0  0  0  0  0  0  0  0  0  0  0  0
    5.2981   15.4483   21.2610 H   0  0  0  0  0  0  0  0  0  0  0  0
   13.2187   17.0984   23.9209 H   0  0  0  0  0  0  0  0  0  0  0  0
   13.4879   15.9255   19.7846 H   0  0  0  0  0  0  0  0  0  0  0  0
   11.4674   15.4055   24.2885 H   0  0  0  0  0  0  0  0  0  0  0  0
   11.7344   14.2336   20.1488 H   0  0  0  0  0  0  0  0  0  0  0  0
    6.5196   13.0198   21.5285 H   0  0  0  0  0  0  0  0  0  0  0  0
    7.3860   17.2297   20.9387 H   0  0  0  0  0  0  0  0  0  0  0  0
    4.3201   11.6203   25.2566 H   0  0  0  0  0  0  0  0  0  0  0  0
   15.5224   17.2155   21.7940 H   0  0  0  0  0  0  0  0  0  0  0  0
   14.5063   18.0303   20.5796 H   0  0  0  0  0  0  0  0  0  0  0  0
   14.3964   18.5097   22.2724 H   0  0  0  0  0  0  0  0  0  0  0  0
   11.1883    9.5798   24.1443 H   0  0  0  0  0  0  0  0  0  0  0  0
   10.2823    9.0266   22.7145 H   0  0  0  0  0  0  0  0  0  0  0  0
   11.2835   10.4735   22.6068 H   0  0  0  0  0  0  0  0  0  0  0  0
    4.9488   14.2542   26.4832 H   0  0  0  0  0  0  0  0  0  0  0  0
    5.1771   15.0467   24.8875 H   0  0  0  0  0  0  0  0  0  0  0  0
    3.8819   13.8212   25.1046 H   0  0  0  0  0  0  0  0  0  0  0  0
    9.2550   12.2896   21.5088 H   0  0  0  0  0  0  0  0  0  0  0  0
   10.1235   13.3784   20.4262 H   0  0  0  0  0  0  0  0  0  0  0  0
  1  6  1  0  0  0  0
  1  7  2  0  0  0  0
  2  4  2  0  0  0  0
  2 10  1  0  0  0  0
  3  5  1  0  0  0  0
  3 10  2  0  0  0  0
  4 11  1  0  0  0  0
  5 11  2  0  0  0  0
  6 12  2  0  0  0  0
  7 27  1  0  0  0  0
  8  9  1  0  0  0  0
  8 14  2  0  0  0  0
  8 16  1  0  0  0  0
  9 13  2  0  0  0  0
  9 17  1  0  0  0  0
 10 18  1  0  0  0  0
 11 24  1  0  0  0  0
 12 21  1  0  0  0  0
 12 27  1  0  0  0  0
 13 19  1  0  0  0  0
 13 28  1  0  0  0  0
 14 22  1  0  0  0  0
 14 28  1  0  0  0  0
 15 22  2  0  0  0  0
 15 23  1  0  0  0  0
 16 23  1  0  0  0  0
 16 25  2  0  0  0  0
 17 24  1  0  0  0  0
 17 26  2  0  0  0  0
 20 23  1  0  0  0  0
 21 24  1  0  0  0  0
  1 29  1  0  0  0  0
  2 30  1  0  0  0  0
  3 31  1  0  0  0  0
  4 32  1  0  0  0  0
  5 33  1  0  0  0  0
  6 34  1  0  0  0  0
  7 35  1  0  0  0  0
 15 36  1  0  0  0  0
 18 37  1  0  0  0  0
 18 38  1  0  0  0  0
 18 39  1  0  0  0  0
 19 40  1  0  0  0  0
 19 41  1  0  0  0  0
 19 42  1  0  0  0  0
 20 43  1  0  0  0  0
 20 44  1  0  0  0  0
 20 45  1  0  0  0  0
 21 46  1  0  0  0  0
 21 47  1  0  0  0  0
M  END
> <idnumber>
Z99145633

> <heavy_atoms>
28

> <LogS>
-5.21

> <LogP>
3.106

> <rotating_bonds>
4

> <PSA>
79.26

> <hb_acceptors>
3

> <hb_donors>
0

> <Collection>
Legacy

> <link>
https://www.enaminestore.com/catalog/Z99145633

> <ROCS_ShapeQuery>
x0446_0A_x1080_0A_x0929_0A_x0812_0A_x0719_0A_x1140_0A_x0528_0A_x0310_0A

> <ROCS_TanimotoCombo>
0.460 

> <ROCS_ShapeTanimoto>
0.294 

> <ROCS_ColorTanimoto>
0.167 

> <ROCS_RefTversky>
0.263 

> <ROCS_RefColorTversky>
0.184 

> <ROCS_RefTverskyCombo>
0.447 

> <ROCS_FitTversky>
1.667 

> <ROCS_FitColorTversky>
0.632 

> <ROCS_FitTverskyCombo>
2.299 

> <ROCS_ColorScore>
-6.601

> <ROCS_Overlap>
3109.113

> <ROCS_Rank>
270                 

$$$$
untitled-dbase-412238_39
  -OEChem-02092406493D

 41 44  0     0  0  0  0  0  0999 V2000
   13.1585   14.6111   22.3505 C   0  0  0  0  0  0  0  0  0  0  0  0
   12.7619   15.1572   21.1298 C   0  0  0  0  0  0  0  0  0  0  0  0
    6.1210   15.6030   23.4763 C   0  0  0  0  0  0  0  0  0  0  0  0
    7.5547   15.4848   25.4173 C   0  0  0  0  0  0  0  0  0  0  0  0
   12.2012   14.2687   23.3054 C   0  0  0  0  0  0  0  0  0  0  0  0
   11.4078   15.3611   20.8641 C   0  0  0  0  0  0  0  0  0  0  0  0
    6.0834   16.9928   23.5887 C   0  0  0  0  0  0  0  0  0  0  0  0
    7.5171   16.8747   25.5297 C   0  0  0  0  0  0  0  0  0  0  0  0
    5.7248   12.6908   24.3501 C   0  0  0  0  0  0  0  0  0  0  0  0
    9.7913   10.5939   23.7328 C   0  0  0  0  0  0  0  0  0  0  0  0
    8.0422   12.5801   24.0815 C   0  0  0  0  0  0  0  0  0  0  0  0
    6.8566   14.8490   24.3907 C   0  0  0  0  0  0  0  0  0  0  0  0
    6.8957   13.4134   24.2745 C   0  0  0  0  0  0  0  0  0  0  0  0
   10.8471   14.4725   23.0397 C   0  0  0  0  0  0  0  0  0  0  0  0
   10.4504   15.0187   21.8191 C   0  0  0  0  0  0  0  0  0  0  0  0
    6.7815   17.6286   24.6153 C   0  0  0  0  0  0  0  0  0  0  0  0
    9.4074   12.8534   23.9497 C   0  0  0  0  0  0  0  0  0  0  0  0
    7.6758   11.2418   24.0193 C   0  0  0  0  0  0  0  0  0  0  0  0
    8.7554   13.0522   20.6123 C   0  0  0  0  0  0  0  0  0  0  0  0
    8.5884   14.5441   20.4178 C   0  0  0  0  0  0  0  0  0  0  0  0
   10.2885   11.8456   23.7736 N   0  0  0  0  0  0  0  0  0  0  0  0
    8.5106   10.1986   23.8455 N   0  0  0  0  0  0  0  0  0  0  0  0
    9.9106   14.1309   23.9925 O   0  0  0  0  0  0  0  0  0  0  0  0
    9.1312   15.2237   21.5482 O   0  0  0  0  0  0  0  0  0  0  0  0
    5.9961   11.0096   24.1890 S   0  0  0  0  0  0  0  0  0  0  0  0
    6.7348   19.3433   24.7556 Cl  0  0  0  0  0  0  0  0  0  0  0  0
   14.2131   14.4522   22.5573 H   0  0  0  0  0  0  0  0  0  0  0  0
   13.5071   15.4239   20.3865 H   0  0  0  0  0  0  0  0  0  0  0  0
    5.5711   15.1231   22.6699 H   0  0  0  0  0  0  0  0  0  0  0  0
    8.1326   14.9109   26.1380 H   0  0  0  0  0  0  0  0  0  0  0  0
   12.5168   13.8434   24.2543 H   0  0  0  0  0  0  0  0  0  0  0  0
   11.1057   15.7884   19.9119 H   0  0  0  0  0  0  0  0  0  0  0  0
    5.5061   17.5677   22.8691 H   0  0  0  0  0  0  0  0  0  0  0  0
    8.0649   17.3563   26.3355 H   0  0  0  0  0  0  0  0  0  0  0  0
    4.7178   13.0605   24.4921 H   0  0  0  0  0  0  0  0  0  0  0  0
   10.5191    9.8026   23.5906 H   0  0  0  0  0  0  0  0  0  0  0  0
    9.8122   12.7866   20.7047 H   0  0  0  0  0  0  0  0  0  0  0  0
    8.2271   12.7186   21.5115 H   0  0  0  0  0  0  0  0  0  0  0  0
    8.3257   12.5025   19.7683 H   0  0  0  0  0  0  0  0  0  0  0  0
    7.5293   14.8030   20.3261 H   0  0  0  0  0  0  0  0  0  0  0  0
    9.1175   14.8759   19.5195 H   0  0  0  0  0  0  0  0  0  0  0  0
  1  2  1  0  0  0  0
  1  5  2  0  0  0  0
  2  6  2  0  0  0  0
  3  7  2  0  0  0  0
  3 12  1  0  0  0  0
  4  8  1  0  0  0  0
  4 12  2  0  0  0  0
  5 14  1  0  0  0  0
  6 15  1  0  0  0  0
  7 16  1  0  0  0  0
  8 16  2  0  0  0  0
  9 13  2  0  0  0  0
  9 25  1  0  0  0  0
 10 21  2  0  0  0  0
 10 22  1  0  0  0  0
 11 13  1  0  0  0  0
 11 17  2  0  0  0  0
 11 18  1  0  0  0  0
 12 13  1  0  0  0  0
 14 15  2  0  0  0  0
 14 23  1  0  0  0  0
 15 24  1  0  0  0  0
 16 26  1  0  0  0  0
 17 21  1  0  0  0  0
 17 23  1  0  0  0  0
 18 22  2  0  0  0  0
 18 25  1  0  0  0  0
 19 20  1  0  0  0  0
 20 24  1  0  0  0  0
  1 27  1  0  0  0  0
  2 28  1  0  0  0  0
  3 29  1  0  0  0  0
  4 30  1  0  0  0  0
  5 31  1  0  0  0  0
  6 32  1  0  0  0  0
  7 33  1  0  0  0  0
  8 34  1  0  0  0  0
  9 35  1  0  0  0  0
 10 36  1  0  0  0  0
 19 37  1  0  0  0  0
 19 38  1  0  0  0  0
 19 39  1  0  0  0  0
 20 40  1  0  0  0  0
 20 41  1  0  0  0  0
M  END
> <idnumber>
Z52587549

> <heavy_atoms>
26

> <LogS>
-8.01

> <LogP>
5.684

> <rotating_bonds>
5

> <PSA>
44.24

> <hb_acceptors>
3

> <hb_donors>
0

> <Collection>
Legacy

> <link>
https://www.enaminestore.com/catalog/Z52587549

> <ROCS_ShapeQuery>
x0446_0A_x1080_0A_x0929_0A_x0812_0A_x0719_0A_x1140_0A_x0528_0A_x0310_0A

> <ROCS_TanimotoCombo>
0.460 

> <ROCS_ShapeTanimoto>
0.251 

> <ROCS_ColorTanimoto>
0.209 

> <ROCS_RefTversky>
0.231 

> <ROCS_RefColorTversky>
0.219 

> <ROCS_RefTverskyCombo>
0.449 

> <ROCS_FitTversky>
1.559 

> <ROCS_FitColorTversky>
0.824 

> <ROCS_FitTverskyCombo>
2.383 

> <ROCS_ColorScore>
-7.819

> <ROCS_Overlap>
2725.115

> <ROCS_Rank>
271                 

$$$$
untitled-dbase-639605_53
  -OEChem-02092406493D

 41 45  0     0  0  0  0  0  0999 V2000
   13.3628   15.2114   22.2287 C   0  0  0  0  0  0  0  0  0  0  0  0
    6.1445   13.3079   25.4730 C   0  0  0  0  0  0  0  0  0  0  0  0
    5.5397   12.1042   25.0571 C   0  0  0  0  0  0  0  0  0  0  0  0
   12.6601   16.4112   22.2400 C   0  0  0  0  0  0  0  0  0  0  0  0
    5.0740   14.5064   20.6857 C   0  0  0  0  0  0  0  0  0  0  0  0
   12.6864   14.0222   21.9755 C   0  0  0  0  0  0  0  0  0  0  0  0
    7.5071   13.5378   25.2623 C   0  0  0  0  0  0  0  0  0  0  0  0
    6.2854   11.1069   24.4221 C   0  0  0  0  0  0  0  0  0  0  0  0
   11.2833   16.4195   21.9978 C   0  0  0  0  0  0  0  0  0  0  0  0
    6.3102   15.1320   20.9745 C   0  0  0  0  0  0  0  0  0  0  0  0
    5.3418   13.1613   20.5812 C   0  0  0  0  0  0  0  0  0  0  0  0
   11.3018   14.0389   21.7329 C   0  0  0  0  0  0  0  0  0  0  0  0
    8.2231   12.5399   24.6337 C   0  0  0  0  0  0  0  0  0  0  0  0
    7.6280   11.3557   24.2242 C   0  0  0  0  0  0  0  0  0  0  0  0
   10.5812   15.2443   21.7415 C   0  0  0  0  0  0  0  0  0  0  0  0
    7.2454   14.1246   21.0262 C   0  0  0  0  0  0  0  0  0  0  0  0
   10.5662   12.8860   21.4731 C   0  0  0  0  0  0  0  0  0  0  0  0
    8.6586   14.0873   21.2715 C   0  0  0  0  0  0  0  0  0  0  0  0
    9.6404   12.4813   24.2783 C   0  0  0  0  0  0  0  0  0  0  0  0
    8.6565   10.5229   23.6009 C   0  0  0  0  0  0  0  0  0  0  0  0
   11.0942   10.7966   23.1509 C   0  0  0  0  0  0  0  0  0  0  0  0
    9.2569   15.2719   21.5106 N   0  0  0  0  0  0  0  0  0  0  0  0
    9.2405   12.8777   21.2381 N   0  0  0  0  0  0  0  0  0  0  0  0
    9.8208   11.2581   23.6670 N   0  0  0  0  0  0  0  0  0  0  0  0
   10.4397   13.3700   24.5069 O   0  0  0  0  0  0  0  0  0  0  0  0
    8.4483    9.4158   23.1405 O   0  0  0  0  0  0  0  0  0  0  0  0
    6.6631   12.9202   20.7876 O   0  0  0  0  0  0  0  0  0  0  0  0
   11.2794   11.2704   21.4162 S   0  0  0  0  0  0  0  0  0  0  0  0
   14.4322   15.2033   22.4160 H   0  0  0  0  0  0  0  0  0  0  0  0
    5.5405   14.0663   25.9644 H   0  0  0  0  0  0  0  0  0  0  0  0
    4.4782   11.9516   25.2341 H   0  0  0  0  0  0  0  0  0  0  0  0
   13.1807   17.3444   22.4353 H   0  0  0  0  0  0  0  0  0  0  0  0
    4.1087   14.9772   20.5683 H   0  0  0  0  0  0  0  0  0  0  0  0
   13.2683   13.1055   21.9751 H   0  0  0  0  0  0  0  0  0  0  0  0
    7.9718   14.4629   25.5826 H   0  0  0  0  0  0  0  0  0  0  0  0
    5.8202   10.1819   24.1027 H   0  0  0  0  0  0  0  0  0  0  0  0
   10.7563   17.3718   22.0106 H   0  0  0  0  0  0  0  0  0  0  0  0
    6.4914   16.1869   21.1254 H   0  0  0  0  0  0  0  0  0  0  0  0
    4.7346   12.2918   20.3759 H   0  0  0  0  0  0  0  0  0  0  0  0
   11.8844   11.2452   23.7594 H   0  0  0  0  0  0  0  0  0  0  0  0
   11.1228    9.7091   23.2604 H   0  0  0  0  0  0  0  0  0  0  0  0
  1  4  1  0  0  0  0
  1  6  2  0  0  0  0
  2  3  1  0  0  0  0
  2  7  2  0  0  0  0
  3  8  2  0  0  0  0
  4  9  2  0  0  0  0
  5 10  1  0  0  0  0
  5 11  2  0  0  0  0
  6 12  1  0  0  0  0
  7 13  1  0  0  0  0
  8 14  1  0  0  0  0
  9 15  1  0  0  0  0
 10 16  2  0  0  0  0
 11 27  1  0  0  0  0
 12 15  1  0  0  0  0
 12 17  2  0  0  0  0
 13 14  2  0  0  0  0
 13 19  1  0  0  0  0
 14 20  1  0  0  0  0
 15 22  2  0  0  0  0
 16 18  1  0  0  0  0
 16 27  1  0  0  0  0
 17 23  1  0  0  0  0
 17 28  1  0  0  0  0
 18 22  1  0  0  0  0
 18 23  2  0  0  0  0
 19 24  1  0  0  0  0
 19 25  2  0  0  0  0
 20 24  1  0  0  0  0
 20 26  2  0  0  0  0
 21 24  1  0  0  0  0
 21 28  1  0  0  0  0
  1 29  1  0  0  0  0
  2 30  1  0  0  0  0
  3 31  1  0  0  0  0
  4 32  1  0  0  0  0
  5 33  1  0  0  0  0
  6 34  1  0  0  0  0
  7 35  1  0  0  0  0
  8 36  1  0  0  0  0
  9 37  1  0  0  0  0
 10 38  1  0  0  0  0
 11 39  1  0  0  0  0
 21 40  1  0  0  0  0
 21 41  1  0  0  0  0
M  END
> <idnumber>
Z217938976

> <heavy_atoms>
28

> <LogS>
-7.448

> <LogP>
4.649

> <rotating_bonds>
4

> <PSA>
76.3

> <hb_acceptors>
4

> <hb_donors>
0

> <Collection>
Legacy

> <link>
https://www.enaminestore.com/catalog/Z217938976

> <ROCS_ShapeQuery>
x0446_0A_x1080_0A_x0929_0A_x0812_0A_x0719_0A_x1140_0A_x0528_0A_x0310_0A

> <ROCS_TanimotoCombo>
0.460 

> <ROCS_ShapeTanimoto>
0.287 

> <ROCS_ColorTanimoto>
0.173 

> <ROCS_RefTversky>
0.258 

> <ROCS_RefColorTversky>
0.195 

> <ROCS_RefTverskyCombo>
0.453 

> <ROCS_FitTversky>
1.625 

> <ROCS_FitColorTversky>
0.613 

> <ROCS_FitTverskyCombo>
2.238 

> <ROCS_ColorScore>
-6.979

> <ROCS_Overlap>
3056.557

> <ROCS_Rank>
272                 

$$$$
untitled-dbase-325197_26
  -OEChem-02092406493D

 40 43  0     0  0  0  0  0  0999 V2000
   13.0452   16.0112   22.2689 C   0  0  0  0  0  0  0  0  0  0  0  0
   13.1401   14.7738   22.9129 C   0  0  0  0  0  0  0  0  0  0  0  0
   11.8406   16.4374   21.6943 C   0  0  0  0  0  0  0  0  0  0  0  0
   12.0382   13.9164   23.0076 C   0  0  0  0  0  0  0  0  0  0  0  0
    8.1288   12.4917   23.7298 C   0  0  0  0  0  0  0  0  0  0  0  0
    7.3047   13.4626   24.3813 C   0  0  0  0  0  0  0  0  0  0  0  0
   10.7285   15.5873   21.7824 C   0  0  0  0  0  0  0  0  0  0  0  0
   10.8532   14.3648   22.4280 C   0  0  0  0  0  0  0  0  0  0  0  0
    6.3891   12.8888   25.2365 C   0  0  0  0  0  0  0  0  0  0  0  0
    9.1697   12.5945   22.8014 C   0  0  0  0  0  0  0  0  0  0  0  0
    7.7901   11.2061   24.1315 C   0  0  0  0  0  0  0  0  0  0  0  0
    9.3530   10.2998   22.8227 C   0  0  0  0  0  0  0  0  0  0  0  0
    5.4032   13.5150   26.0585 C   0  0  0  0  0  0  0  0  0  0  0  0
    7.4082   14.9304   24.1732 C   0  0  0  0  0  0  0  0  0  0  0  0
   10.0560    9.0922   22.2979 C   0  0  0  0  0  0  0  0  0  0  0  0
    3.3000   14.3324   23.8133 C   0  0  0  0  0  0  0  0  0  0  0  0
    3.5437   14.8006   25.2321 C   0  0  0  0  0  0  0  0  0  0  0  0
    9.4454   15.7310   21.3247 N   0  0  0  0  0  0  0  0  0  0  0  0
    9.7861   11.4831   22.3455 N   0  0  0  0  0  0  0  0  0  0  0  0
    8.3699   10.0651   23.7101 N   0  0  0  0  0  0  0  0  0  0  0  0
    8.7637   14.6415   21.6614 N   0  0  0  0  0  0  0  0  0  0  0  0
    9.6038   13.8259   22.3198 N   0  0  0  0  0  0  0  0  0  0  0  0
    4.9797   13.0708   27.1511 O   0  0  0  0  0  0  0  0  0  0  0  0
    4.9416   14.6980   25.5234 O   0  0  0  0  0  0  0  0  0  0  0  0
    6.5139   11.1831   25.2607 S   0  0  0  0  0  0  0  0  0  0  0  0
   13.9204   16.6536   22.2120 H   0  0  0  0  0  0  0  0  0  0  0  0
   14.0888   14.4710   23.3495 H   0  0  0  0  0  0  0  0  0  0  0  0
   11.7762   17.3995   21.1968 H   0  0  0  0  0  0  0  0  0  0  0  0
   12.1125   12.9573   23.5068 H   0  0  0  0  0  0  0  0  0  0  0  0
    6.7554   15.2518   23.3500 H   0  0  0  0  0  0  0  0  0  0  0  0
    7.1213   15.4875   25.0768 H   0  0  0  0  0  0  0  0  0  0  0  0
    8.4381   15.2324   23.9330 H   0  0  0  0  0  0  0  0  0  0  0  0
   10.9149    8.8456   22.9331 H   0  0  0  0  0  0  0  0  0  0  0  0
    9.3850    8.2246   22.2659 H   0  0  0  0  0  0  0  0  0  0  0  0
   10.4147    9.2553   21.2736 H   0  0  0  0  0  0  0  0  0  0  0  0
    3.8515   14.9494   23.0986 H   0  0  0  0  0  0  0  0  0  0  0  0
    3.6097   13.2891   23.6925 H   0  0  0  0  0  0  0  0  0  0  0  0
    2.2333   14.3779   23.5698 H   0  0  0  0  0  0  0  0  0  0  0  0
    2.9892   14.1794   25.9418 H   0  0  0  0  0  0  0  0  0  0  0  0
    3.2345   15.8434   25.3508 H   0  0  0  0  0  0  0  0  0  0  0  0
  1  2  1  0  0  0  0
  1  3  2  0  0  0  0
  2  4  2  0  0  0  0
  3  7  1  0  0  0  0
  4  8  1  0  0  0  0
  5  6  1  0  0  0  0
  5 10  1  0  0  0  0
  5 11  2  0  0  0  0
  6  9  2  0  0  0  0
  6 14  1  0  0  0  0
  7  8  2  0  0  0  0
  7 18  1  0  0  0  0
  8 22  1  0  0  0  0
  9 13  1  0  0  0  0
  9 25  1  0  0  0  0
 10 19  2  0  0  0  0
 10 22  1  0  0  0  0
 11 20  1  0  0  0  0
 11 25  1  0  0  0  0
 12 15  1  0  0  0  0
 12 19  1  0  0  0  0
 12 20  2  0  0  0  0
 13 23  2  0  0  0  0
 13 24  1  0  0  0  0
 16 17  1  0  0  0  0
 17 24  1  0  0  0  0
 18 21  2  0  0  0  0
 21 22  1  0  0  0  0
  1 26  1  0  0  0  0
  2 27  1  0  0  0  0
  3 28  1  0  0  0  0
  4 29  1  0  0  0  0
 14 30  1  0  0  0  0
 14 31  1  0  0  0  0
 14 32  1  0  0  0  0
 15 33  1  0  0  0  0
 15 34  1  0  0  0  0
 15 35  1  0  0  0  0
 16 36  1  0  0  0  0
 16 37  1  0  0  0  0
 16 38  1  0  0  0  0
 17 39  1  0  0  0  0
 17 40  1  0  0  0  0
M  END
> <idnumber>
Z31204171

> <heavy_atoms>
25

> <LogS>
-5.27

> <LogP>
4.32

> <rotating_bonds>
4

> <PSA>
82.79

> <hb_acceptors>
5

> <hb_donors>
0

> <Collection>
HTS

> <link>
https://www.enaminestore.com/catalog/Z31204171

> <ROCS_ShapeQuery>
x0446_0A_x1080_0A_x0929_0A_x0812_0A_x0719_0A_x1140_0A_x0528_0A_x0310_0A

> <ROCS_TanimotoCombo>
0.460 

> <ROCS_ShapeTanimoto>
0.271 

> <ROCS_ColorTanimoto>
0.189 

> <ROCS_RefTversky>
0.244 

> <ROCS_RefColorTversky>
0.207 

> <ROCS_RefTverskyCombo>
0.452 

> <ROCS_FitTversky>
1.670 

> <ROCS_FitColorTversky>
0.689 

> <ROCS_FitTverskyCombo>
2.359 

> <ROCS_ColorScore>
-7.419

> <ROCS_Overlap>
2887.827

> <ROCS_Rank>
273                 

$$$$
untitled-dbase-1040521_149
  -OEChem-02092406493D

 45 47  0     1  0  0  0  0  0999 V2000
    8.3692   14.0315   19.9566 C   0  0  0  0  0  0  0  0  0  0  0  0
    8.3736   12.3586   23.9961 C   0  0  0  0  0  0  0  0  0  0  0  0
    9.6875   12.1330   23.5581 C   0  0  0  0  0  0  0  0  0  0  0  0
    7.7724   11.1243   23.9463 C   0  0  0  0  0  0  0  0  0  0  0  0
    9.4380   14.0688   20.8164 C   0  0  0  0  0  0  0  0  0  0  0  0
   10.7499   13.0890   23.4263 C   0  0  0  0  0  0  0  0  0  0  0  0
    7.6325   13.5551   24.4523 C   0  0  0  0  0  0  0  0  0  0  0  0
    6.3540   10.8391   24.2830 C   0  0  1  0  0  0  0  0  0  0  0  0
    6.1150   13.2518   24.3949 C   0  0  2  0  0  0  0  0  0  0  0  0
    6.1876    9.6134   25.1666 C   0  0  0  0  0  0  0  0  0  0  0  0
    5.3193   14.3159   25.1370 C   0  0  0  0  0  0  0  0  0  0  0  0
   12.8530   15.2102   22.0023 C   0  0  0  0  0  0  0  0  0  0  0  0
    6.3951   15.5740   19.7353 C   0  0  0  0  0  0  0  0  0  0  0  0
   10.6040   13.1282   20.9165 C   0  0  0  0  0  0  0  0  0  0  0  0
   12.7354   13.7241   22.0124 C   0  0  0  0  0  0  0  0  0  0  0  0
    9.9042   10.8506   23.2403 N   0  0  0  0  0  0  0  0  0  0  0  0
    9.3235   15.1503   21.6451 N   0  0  0  0  0  0  0  0  0  0  0  0
    8.2055   15.7929   21.3255 N   0  0  0  0  0  0  0  0  0  0  0  0
    8.7149   10.2614   23.4776 N   0  0  0  0  0  0  0  0  0  0  0  0
    7.6347   15.1204   20.3130 N   0  0  0  0  0  0  0  0  0  0  0  0
   11.3427   13.3064   22.1586 N   0  0  0  0  0  0  0  0  0  0  0  0
   11.1039   13.7083   24.4491 O   0  0  0  0  0  0  0  0  0  0  0  0
    5.8388   11.9773   25.0186 O   0  0  0  0  0  0  0  0  0  0  0  0
    8.0812   13.3595   19.1605 H   0  0  0  0  0  0  0  0  0  0  0  0
    7.9338   13.7718   25.4847 H   0  0  0  0  0  0  0  0  0  0  0  0
    7.8684   14.4303   23.8378 H   0  0  0  0  0  0  0  0  0  0  0  0
    5.7597   10.7262   23.3689 H   0  0  0  0  0  0  0  0  0  0  0  0
    5.7690   13.2106   23.3536 H   0  0  0  0  0  0  0  0  0  0  0  0
    6.7784    9.7233   26.0775 H   0  0  0  0  0  0  0  0  0  0  0  0
    6.5220    8.7199   24.6371 H   0  0  0  0  0  0  0  0  0  0  0  0
    5.1391    9.4872   25.4413 H   0  0  0  0  0  0  0  0  0  0  0  0
    5.6478   14.3733   26.1754 H   0  0  0  0  0  0  0  0  0  0  0  0
    4.2566   14.0712   25.1168 H   0  0  0  0  0  0  0  0  0  0  0  0
    5.4658   15.2891   24.6668 H   0  0  0  0  0  0  0  0  0  0  0  0
   12.4581   15.6162   22.9453 H   0  0  0  0  0  0  0  0  0  0  0  0
   13.9106   15.4935   21.8957 H   0  0  0  0  0  0  0  0  0  0  0  0
   12.2774   15.6178   21.1582 H   0  0  0  0  0  0  0  0  0  0  0  0
    5.5752   15.1000   20.2812 H   0  0  0  0  0  0  0  0  0  0  0  0
    6.3313   16.6625   19.8190 H   0  0  0  0  0  0  0  0  0  0  0  0
    6.3649   15.2938   18.6787 H   0  0  0  0  0  0  0  0  0  0  0  0
   10.2653   12.0874   20.8718 H   0  0  0  0  0  0  0  0  0  0  0  0
   11.3027   13.2788   20.0869 H   0  0  0  0  0  0  0  0  0  0  0  0
   13.1321   13.3261   21.0667 H   0  0  0  0  0  0  0  0  0  0  0  0
   13.3206   13.3232   22.8531 H   0  0  0  0  0  0  0  0  0  0  0  0
    8.6246    9.2694   23.2955 H   0  0  0  0  0  0  0  0  0  0  0  0
  1  5  2  0  0  0  0
  1 20  1  0  0  0  0
  2  3  1  0  0  0  0
  2  4  2  0  0  0  0
  2  7  1  0  0  0  0
  3  6  1  0  0  0  0
  3 16  2  0  0  0  0
  4  8  1  0  0  0  0
  4 19  1  0  0  0  0
  5 14  1  0  0  0  0
  5 17  1  0  0  0  0
  6 21  1  0  0  0  0
  6 22  2  0  0  0  0
  7  9  1  0  0  0  0
  8 10  1  1  0  0  0
  8 23  1  0  0  0  0
  9 11  1  1  0  0  0
  9 23  1  0  0  0  0
 12 15  1  0  0  0  0
 13 20  1  0  0  0  0
 14 21  1  0  0  0  0
 15 21  1  0  0  0  0
 16 19  1  0  0  0  0
 17 18  2  0  0  0  0
 18 20  1  0  0  0  0
  1 24  1  0  0  0  0
  7 25  1  0  0  0  0
  7 26  1  0  0  0  0
  8 27  1  0  0  0  0
  9 28  1  0  0  0  0
 10 29  1  0  0  0  0
 10 30  1  0  0  0  0
 10 31  1  0  0  0  0
 11 32  1  0  0  0  0
 11 33  1  0  0  0  0
 11 34  1  0  0  0  0
 12 35  1  0  0  0  0
 12 36  1  0  0  0  0
 12 37  1  0  0  0  0
 13 38  1  0  0  0  0
 13 39  1  0  0  0  0
 13 40  1  0  0  0  0
 14 41  1  0  0  0  0
 14 42  1  0  0  0  0
 15 43  1  0  0  0  0
 15 44  1  0  0  0  0
 19 45  1  0  0  0  0
M  END
> <idnumber>
Z3543534803

> <heavy_atoms>
23

> <LogS>
-1.296

> <LogP>
-0.331

> <rotating_bonds>
4

> <PSA>
88.93

> <hb_acceptors>
5

> <hb_donors>
1

> <Collection>
Premium

> <link>
https://www.enaminestore.com/catalog/Z3543534803

> <ROCS_ShapeQuery>
x0446_0A_x1080_0A_x0929_0A_x0812_0A_x0719_0A_x1140_0A_x0528_0A_x0310_0A

> <ROCS_TanimotoCombo>
0.460 

> <ROCS_ShapeTanimoto>
0.251 

> <ROCS_ColorTanimoto>
0.209 

> <ROCS_RefTversky>
0.228 

> <ROCS_RefColorTversky>
0.225 

> <ROCS_RefTverskyCombo>
0.453 

> <ROCS_FitTversky>
1.668 

> <ROCS_FitColorTversky>
0.750 

> <ROCS_FitTverskyCombo>
2.417 

> <ROCS_ColorScore>
-8.060

> <ROCS_Overlap>
2693.636

> <ROCS_Rank>
274                 

$$$$
untitled-dbase-199037_39
  -OEChem-02092406493D

 42 45  0     0  0  0  0  0  0999 V2000
    6.1870   13.3850   25.4690 C   0  0  0  0  0  0  0  0  0  0  0  0
   12.0354    9.4542   23.4489 C   0  0  0  0  0  0  0  0  0  0  0  0
    5.4161   12.3010   25.0550 C   0  0  0  0  0  0  0  0  0  0  0  0
   11.1363    8.4567   23.0786 C   0  0  0  0  0  0  0  0  0  0  0  0
    7.5667   13.3807   25.2602 C   0  0  0  0  0  0  0  0  0  0  0  0
   11.5632   10.6945   23.8800 C   0  0  0  0  0  0  0  0  0  0  0  0
    6.0244   11.2101   24.4364 C   0  0  0  0  0  0  0  0  0  0  0  0
    9.7649    8.6964   23.1438 C   0  0  0  0  0  0  0  0  0  0  0  0
    8.1897   12.2899   24.6355 C   0  0  0  0  0  0  0  0  0  0  0  0
   10.1850   10.9490   23.9461 C   0  0  0  0  0  0  0  0  0  0  0  0
    7.4072   11.2026   24.2328 C   0  0  0  0  0  0  0  0  0  0  0  0
    9.2913    9.9365   23.5816 C   0  0  0  0  0  0  0  0  0  0  0  0
    6.7919   14.4388   21.7977 C   0  0  0  0  0  0  0  0  0  0  0  0
   10.0252   13.3402   23.3649 C   0  0  0  0  0  0  0  0  0  0  0  0
    9.1882   15.3393   21.4896 C   0  0  0  0  0  0  0  0  0  0  0  0
    5.8252   16.4505   22.5527 C   0  0  0  0  0  0  0  0  0  0  0  0
    7.2285   16.7420   22.0647 C   0  0  0  0  0  0  0  0  0  0  0  0
    9.6754   12.2968   24.3859 C   0  0  0  0  0  0  0  0  0  0  0  0
    9.6656   13.9617   21.1136 C   0  0  0  0  0  0  0  0  0  0  0  0
    5.6039   15.0794   22.1910 N   0  0  0  0  0  0  0  0  0  0  0  0
    7.8213   15.4432   21.7845 N   0  0  0  0  0  0  0  0  0  0  0  0
    6.8926   13.2503   21.5231 O   0  0  0  0  0  0  0  0  0  0  0  0
   10.7486   14.3015   23.5877 O   0  0  0  0  0  0  0  0  0  0  0  0
    9.9725   16.2891   21.5152 O   0  0  0  0  0  0  0  0  0  0  0  0
    7.9247   10.0819   23.6270 O   0  0  0  0  0  0  0  0  0  0  0  0
    9.4164   13.0425   22.1818 O   0  0  0  0  0  0  0  0  0  0  0  0
    5.7141   14.2350   25.9520 H   0  0  0  0  0  0  0  0  0  0  0  0
   13.1042    9.2678   23.3997 H   0  0  0  0  0  0  0  0  0  0  0  0
    4.3421   12.3052   25.2157 H   0  0  0  0  0  0  0  0  0  0  0  0
   11.5037    7.4919   22.7413 H   0  0  0  0  0  0  0  0  0  0  0  0
    8.1543   14.2360   25.5848 H   0  0  0  0  0  0  0  0  0  0  0  0
   12.2773   11.4647   24.1613 H   0  0  0  0  0  0  0  0  0  0  0  0
    5.4166   10.3666   24.1197 H   0  0  0  0  0  0  0  0  0  0  0  0
    9.0698    7.9116   22.8572 H   0  0  0  0  0  0  0  0  0  0  0  0
    5.7443   16.5303   23.6408 H   0  0  0  0  0  0  0  0  0  0  0  0
    5.0693   17.0801   22.0768 H   0  0  0  0  0  0  0  0  0  0  0  0
    7.2237   17.3174   21.1321 H   0  0  0  0  0  0  0  0  0  0  0  0
    7.8305   17.2807   22.8034 H   0  0  0  0  0  0  0  0  0  0  0  0
   10.1757   12.5578   25.3278 H   0  0  0  0  0  0  0  0  0  0  0  0
   10.7382   13.9682   20.9001 H   0  0  0  0  0  0  0  0  0  0  0  0
    9.1337   13.6089   20.2259 H   0  0  0  0  0  0  0  0  0  0  0  0
    4.6963   14.6256   22.2162 H   0  0  0  0  0  0  0  0  0  0  0  0
  1  3  1  0  0  0  0
  1  5  2  0  0  0  0
  2  4  1  0  0  0  0
  2  6  2  0  0  0  0
  3  7  2  0  0  0  0
  4  8  2  0  0  0  0
  5  9  1  0  0  0  0
  6 10  1  0  0  0  0
  7 11  1  0  0  0  0
  8 12  1  0  0  0  0
  9 11  2  0  0  0  0
  9 18  1  0  0  0  0
 10 12  2  0  0  0  0
 10 18  1  0  0  0  0
 11 25  1  0  0  0  0
 12 25  1  0  0  0  0
 13 20  1  0  0  0  0
 13 21  1  0  0  0  0
 13 22  2  0  0  0  0
 14 18  1  0  0  0  0
 14 23  2  0  0  0  0
 14 26  1  0  0  0  0
 15 19  1  0  0  0  0
 15 21  1  0  0  0  0
 15 24  2  0  0  0  0
 16 17  1  0  0  0  0
 16 20  1  0  0  0  0
 17 21  1  0  0  0  0
 19 26  1  0  0  0  0
  1 27  1  0  0  0  0
  2 28  1  0  0  0  0
  3 29  1  0  0  0  0
  4 30  1  0  0  0  0
  5 31  1  0  0  0  0
  6 32  1  0  0  0  0
  7 33  1  0  0  0  0
  8 34  1  0  0  0  0
 16 35  1  0  0  0  0
 16 36  1  0  0  0  0
 17 37  1  0  0  0  0
 17 38  1  0  0  0  0
 18 39  1  0  0  0  0
 19 40  1  0  0  0  0
 19 41  1  0  0  0  0
 20 42  1  0  0  0  0
M  END
> <idnumber>
Z18366735

> <heavy_atoms>
26

> <LogS>
-3.866

> <LogP>
2.635

> <rotating_bonds>
4

> <PSA>
84.94

> <hb_acceptors>
3

> <hb_donors>
1

> <Collection>
Legacy

> <link>
https://www.enaminestore.com/catalog/Z18366735

> <ROCS_ShapeQuery>
x0446_0A_x1080_0A_x0929_0A_x0812_0A_x0719_0A_x1140_0A_x0528_0A_x0310_0A

> <ROCS_TanimotoCombo>
0.460 

> <ROCS_ShapeTanimoto>
0.279 

> <ROCS_ColorTanimoto>
0.181 

> <ROCS_RefTversky>
0.251 

> <ROCS_RefColorTversky>
0.198 

> <ROCS_RefTverskyCombo>
0.449 

> <ROCS_FitTversky>
1.677 

> <ROCS_FitColorTversky>
0.680 

> <ROCS_FitTverskyCombo>
2.357 

> <ROCS_ColorScore>
-7.082

> <ROCS_Overlap>
2966.819

> <ROCS_Rank>
275                 

$$$$
untitled-dbase-685875_8
  -OEChem-02092406493D

 48 52  0     0  0  0  0  0  0999 V2000
   13.1670   14.5911   22.3762 C   0  0  0  0  0  0  0  0  0  0  0  0
   12.7864   15.1362   21.1533 C   0  0  0  0  0  0  0  0  0  0  0  0
   11.0177   15.8999   19.6401 C   0  0  0  0  0  0  0  0  0  0  0  0
   12.1948   14.2608   23.3121 C   0  0  0  0  0  0  0  0  0  0  0  0
    9.6691   16.1015   19.3838 C   0  0  0  0  0  0  0  0  0  0  0  0
   11.4287   15.3527   20.8631 C   0  0  0  0  0  0  0  0  0  0  0  0
    8.0415   12.5834   24.0776 C   0  0  0  0  0  0  0  0  0  0  0  0
    6.8892   13.4163   24.2743 C   0  0  0  0  0  0  0  0  0  0  0  0
   10.4362   15.0199   21.8086 C   0  0  0  0  0  0  0  0  0  0  0  0
   10.8450   14.4762   23.0233 C   0  0  0  0  0  0  0  0  0  0  0  0
    5.7291   12.6697   24.3696 C   0  0  0  0  0  0  0  0  0  0  0  0
    8.7719   15.7449   20.3700 C   0  0  0  0  0  0  0  0  0  0  0  0
    9.4071   12.8576   23.9371 C   0  0  0  0  0  0  0  0  0  0  0  0
    7.6812   11.2420   24.0248 C   0  0  0  0  0  0  0  0  0  0  0  0
    9.7967   10.5991   23.7271 C   0  0  0  0  0  0  0  0  0  0  0  0
    6.8793   14.9115   24.4007 C   0  0  0  0  0  0  0  0  0  0  0  0
    4.3543   13.2320   24.5553 C   0  0  0  0  0  0  0  0  0  0  0  0
    5.4674   15.4929   24.2307 C   0  0  0  0  0  0  0  0  0  0  0  0
    4.4267   14.6926   25.0256 C   0  0  0  0  0  0  0  0  0  0  0  0
    7.3113   15.9439   20.1377 C   0  0  0  0  0  0  0  0  0  0  0  0
   11.2601    9.4054   22.0778 C   0  0  0  0  0  0  0  0  0  0  0  0
   10.7998    9.5116   23.5289 C   0  0  0  0  0  0  0  0  0  0  0  0
    9.1267   15.2144   21.5627 N   0  0  0  0  0  0  0  0  0  0  0  0
   10.2900   11.8518   23.7599 N   0  0  0  0  0  0  0  0  0  0  0  0
    8.5185   10.2011   23.8500 N   0  0  0  0  0  0  0  0  0  0  0  0
    9.9102   14.1350   23.9781 O   0  0  0  0  0  0  0  0  0  0  0  0
    6.0053   10.9992   24.2106 S   0  0  0  0  0  0  0  0  0  0  0  0
   14.2171   14.4255   22.5968 H   0  0  0  0  0  0  0  0  0  0  0  0
   13.5555   15.3913   20.4275 H   0  0  0  0  0  0  0  0  0  0  0  0
   11.7467   16.1717   18.8801 H   0  0  0  0  0  0  0  0  0  0  0  0
   12.4902   13.8351   24.2673 H   0  0  0  0  0  0  0  0  0  0  0  0
    9.3431   16.5248   18.4402 H   0  0  0  0  0  0  0  0  0  0  0  0
    7.2663   15.1803   25.3913 H   0  0  0  0  0  0  0  0  0  0  0  0
    7.5399   15.3652   23.6539 H   0  0  0  0  0  0  0  0  0  0  0  0
    3.8202   13.1859   23.5980 H   0  0  0  0  0  0  0  0  0  0  0  0
    3.7821   12.6438   25.2816 H   0  0  0  0  0  0  0  0  0  0  0  0
    5.4624   16.5399   24.5539 H   0  0  0  0  0  0  0  0  0  0  0  0
    5.1916   15.4840   23.1683 H   0  0  0  0  0  0  0  0  0  0  0  0
    3.4395   15.1579   24.9266 H   0  0  0  0  0  0  0  0  0  0  0  0
    4.6895   14.7230   26.0910 H   0  0  0  0  0  0  0  0  0  0  0  0
    6.8733   15.0500   19.6777 H   0  0  0  0  0  0  0  0  0  0  0  0
    6.7831   16.1464   21.0781 H   0  0  0  0  0  0  0  0  0  0  0  0
    7.1269   16.8015   19.4781 H   0  0  0  0  0  0  0  0  0  0  0  0
   10.4104    9.2398   21.4068 H   0  0  0  0  0  0  0  0  0  0  0  0
   11.9578    8.5713   21.9535 H   0  0  0  0  0  0  0  0  0  0  0  0
   11.7670   10.3221   21.7581 H   0  0  0  0  0  0  0  0  0  0  0  0
   11.6768    9.6774   24.1743 H   0  0  0  0  0  0  0  0  0  0  0  0
   10.3822    8.5431   23.8467 H   0  0  0  0  0  0  0  0  0  0  0  0
  1  2  1  0  0  0  0
  1  4  2  0  0  0  0
  2  6  2  0  0  0  0
  3  5  2  0  0  0  0
  3  6  1  0  0  0  0
  4 10  1  0  0  0  0
  5 12  1  0  0  0  0
  6  9  1  0  0  0  0
  7  8  1  0  0  0  0
  7 13  1  0  0  0  0
  7 14  2  0  0  0  0
  8 11  2  0  0  0  0
  8 16  1  0  0  0  0
  9 10  2  0  0  0  0
  9 23  1  0  0  0  0
 10 26  1  0  0  0  0
 11 17  1  0  0  0  0
 11 27  1  0  0  0  0
 12 20  1  0  0  0  0
 12 23  2  0  0  0  0
 13 24  2  0  0  0  0
 13 26  1  0  0  0  0
 14 25  1  0  0  0  0
 14 27  1  0  0  0  0
 15 22  1  0  0  0  0
 15 24  1  0  0  0  0
 15 25  2  0  0  0  0
 16 18  1  0  0  0  0
 17 19  1  0  0  0  0
 18 19  1  0  0  0  0
 21 22  1  0  0  0  0
  1 28  1  0  0  0  0
  2 29  1  0  0  0  0
  3 30  1  0  0  0  0
  4 31  1  0  0  0  0
  5 32  1  0  0  0  0
 16 33  1  0  0  0  0
 16 34  1  0  0  0  0
 17 35  1  0  0  0  0
 17 36  1  0  0  0  0
 18 37  1  0  0  0  0
 18 38  1  0  0  0  0
 19 39  1  0  0  0  0
 19 40  1  0  0  0  0
 20 41  1  0  0  0  0
 20 42  1  0  0  0  0
 20 43  1  0  0  0  0
 21 44  1  0  0  0  0
 21 45  1  0  0  0  0
 21 46  1  0  0  0  0
 22 47  1  0  0  0  0
 22 48  1  0  0  0  0
M  END
> <idnumber>
Z275021938

> <heavy_atoms>
27

> <LogS>
-6.9

> <LogP>
5.97

> <rotating_bonds>
3

> <PSA>
47.9

> <hb_acceptors>
3

> <hb_donors>
0

> <Collection>
HTS

> <link>
https://www.enaminestore.com/catalog/Z275021938

> <ROCS_ShapeQuery>
x0446_0A_x1080_0A_x0929_0A_x0812_0A_x0719_0A_x1140_0A_x0528_0A_x0310_0A

> <ROCS_TanimotoCombo>
0.460 

> <ROCS_ShapeTanimoto>
0.262 

> <ROCS_ColorTanimoto>
0.199 

> <ROCS_RefTversky>
0.239 

> <ROCS_RefColorTversky>
0.218 

> <ROCS_RefTverskyCombo>
0.458 

> <ROCS_FitTversky>
1.563 

> <ROCS_FitColorTversky>
0.686 

> <ROCS_FitTverskyCombo>
2.249 

> <ROCS_ColorScore>
-7.826

> <ROCS_Overlap>
2828.028

> <ROCS_Rank>
276                 

$$$$
untitled-dbase-1092768_36
  -OEChem-02092406493D

 38 41  0     0  0  0  0  0  0999 V2000
    9.5142   16.8055   22.4680 C   0  0  0  0  0  0  0  0  0  0  0  0
    9.2964   10.5119   23.4734 C   0  0  0  0  0  0  0  0  0  0  0  0
   10.8031   16.4027   22.2241 C   0  0  0  0  0  0  0  0  0  0  0  0
    9.3484   11.8933   23.7352 C   0  0  0  0  0  0  0  0  0  0  0  0
    8.1695   12.1751   24.3908 C   0  0  0  0  0  0  0  0  0  0  0  0
   10.3783   12.8345   23.4135 C   0  0  0  0  0  0  0  0  0  0  0  0
   12.7776   15.1667   19.9913 C   0  0  0  0  0  0  0  0  0  0  0  0
   11.7917   14.2048   19.4055 C   0  0  0  0  0  0  0  0  0  0  0  0
    6.2370   10.7411   25.1348 C   0  0  0  0  0  0  0  0  0  0  0  0
    5.3387   11.9745   25.2308 C   0  0  0  0  0  0  0  0  0  0  0  0
   11.7569   14.4982   20.8947 C   0  0  0  0  0  0  0  0  0  0  0  0
   12.2429   13.4342   21.8191 C   0  0  0  0  0  0  0  0  0  0  0  0
    8.6423   15.9641   21.8346 N   0  0  0  0  0  0  0  0  0  0  0  0
    8.1755    9.9435   23.9231 N   0  0  0  0  0  0  0  0  0  0  0  0
    9.3551   15.0406   21.1988 N   0  0  0  0  0  0  0  0  0  0  0  0
   10.6505   15.3053   21.4338 N   0  0  0  0  0  0  0  0  0  0  0  0
    7.5051   10.9759   24.4668 N   0  0  0  0  0  0  0  0  0  0  0  0
    6.0756   13.0789   25.9022 N   0  0  0  0  0  0  0  0  0  0  0  0
   11.1554   12.5917   22.2622 N   0  0  0  0  0  0  0  0  0  0  0  0
   10.6009   13.8339   24.1400 O   0  0  0  0  0  0  0  0  0  0  0  0
    8.4287   14.1717   25.9697 O   0  0  0  0  0  0  0  0  0  0  0  0
    7.0279   14.3803   23.8677 O   0  0  0  0  0  0  0  0  0  0  0  0
    7.4512   13.6439   25.0413 S   0  0  0  0  0  0  0  0  0  0  0  0
    9.1738   17.6440   23.0564 H   0  0  0  0  0  0  0  0  0  0  0  0
   10.0271    9.8927   22.9722 H   0  0  0  0  0  0  0  0  0  0  0  0
   11.7663   16.7850   22.5313 H   0  0  0  0  0  0  0  0  0  0  0  0
   13.8121   14.8503   20.0561 H   0  0  0  0  0  0  0  0  0  0  0  0
   12.6527   16.2179   19.7597 H   0  0  0  0  0  0  0  0  0  0  0  0
   11.0043   14.6102   18.7806 H   0  0  0  0  0  0  0  0  0  0  0  0
   12.1629   13.2417   19.0759 H   0  0  0  0  0  0  0  0  0  0  0  0
    6.4576   10.3654   26.1405 H   0  0  0  0  0  0  0  0  0  0  0  0
    5.7396    9.9453   24.5675 H   0  0  0  0  0  0  0  0  0  0  0  0
    5.0493   12.3078   24.2278 H   0  0  0  0  0  0  0  0  0  0  0  0
    4.4193   11.7585   25.7882 H   0  0  0  0  0  0  0  0  0  0  0  0
   12.9860   12.8153   21.2950 H   0  0  0  0  0  0  0  0  0  0  0  0
   12.7114   13.9063   22.6953 H   0  0  0  0  0  0  0  0  0  0  0  0
    5.4495   13.8076   26.2770 H   0  0  0  0  0  0  0  0  0  0  0  0
   10.9872   11.7405   21.7360 H   0  0  0  0  0  0  0  0  0  0  0  0
  1  3  2  0  0  0  0
  1 13  1  0  0  0  0
  2  4  1  0  0  0  0
  2 14  2  0  0  0  0
  3 16  1  0  0  0  0
  4  5  2  0  0  0  0
  4  6  1  0  0  0  0
  5 17  1  0  0  0  0
  5 23  1  0  0  0  0
  6 19  1  0  0  0  0
  6 20  2  0  0  0  0
  7  8  1  0  0  0  0
  7 11  1  0  0  0  0
  8 11  1  0  0  0  0
  9 10  1  0  0  0  0
  9 17  1  0  0  0  0
 10 18  1  0  0  0  0
 11 12  1  0  0  0  0
 11 16  1  0  0  0  0
 12 19  1  0  0  0  0
 13 15  2  0  0  0  0
 14 17  1  0  0  0  0
 15 16  1  0  0  0  0
 18 23  1  0  0  0  0
 21 23  2  0  0  0  0
 22 23  2  0  0  0  0
  1 24  1  0  0  0  0
  2 25  1  0  0  0  0
  3 26  1  0  0  0  0
  7 27  1  0  0  0  0
  7 28  1  0  0  0  0
  8 29  1  0  0  0  0
  8 30  1  0  0  0  0
  9 31  1  0  0  0  0
  9 32  1  0  0  0  0
 10 33  1  0  0  0  0
 10 34  1  0  0  0  0
 12 35  1  0  0  0  0
 12 36  1  0  0  0  0
 18 37  1  0  0  0  0
 19 38  1  0  0  0  0
M  END
> <idnumber>
Z4521998840

> <heavy_atoms>
23

> <LogS>
-0.747

> <LogP>
-1.601

> <rotating_bonds>
4

> <PSA>
123.8

> <hb_acceptors>
6

> <hb_donors>
2

> <Collection>
Premium

> <link>
https://www.enaminestore.com/catalog/Z4521998840

> <ROCS_ShapeQuery>
x0446_0A_x1080_0A_x0929_0A_x0812_0A_x0719_0A_x1140_0A_x0528_0A_x0310_0A

> <ROCS_TanimotoCombo>
0.460 

> <ROCS_ShapeTanimoto>
0.247 

> <ROCS_ColorTanimoto>
0.214 

> <ROCS_RefTversky>
0.225 

> <ROCS_RefColorTversky>
0.238 

> <ROCS_RefTverskyCombo>
0.463 

> <ROCS_FitTversky>
1.646 

> <ROCS_FitColorTversky>
0.675 

> <ROCS_FitTverskyCombo>
2.321 

> <ROCS_ColorScore>
-8.542

> <ROCS_Overlap>
2657.262

> <ROCS_Rank>
277                 

$$$$
untitled-dbase-431522_175
  -OEChem-02092406493D

 57 61  0     0  0  0  0  0  0999 V2000
    4.2642    9.5926   23.9788 C   0  0  0  0  0  0  0  0  0  0  0  0
    9.6103    7.8464   22.4824 C   0  0  0  0  0  0  0  0  0  0  0  0
   10.3616    6.6961   22.2419 C   0  0  0  0  0  0  0  0  0  0  0  0
    9.8004   11.3508   22.7864 C   0  0  0  0  0  0  0  0  0  0  0  0
   12.2925    7.7478   23.2432 C   0  0  0  0  0  0  0  0  0  0  0  0
    7.9057   12.3275   23.8593 C   0  0  0  0  0  0  0  0  0  0  0  0
   10.2002    8.9475   23.1032 C   0  0  0  0  0  0  0  0  0  0  0  0
    9.0307   12.4861   23.0406 C   0  0  0  0  0  0  0  0  0  0  0  0
   11.7026    6.6467   22.6223 C   0  0  0  0  0  0  0  0  0  0  0  0
   11.5412    8.8982   23.4837 C   0  0  0  0  0  0  0  0  0  0  0  0
    9.4175   10.1383   23.3501 C   0  0  0  0  0  0  0  0  0  0  0  0
    6.8697   13.1277   24.3807 C   0  0  0  0  0  0  0  0  0  0  0  0
    7.6376   11.0617   24.3566 C   0  0  0  0  0  0  0  0  0  0  0  0
    9.3526   13.7843   22.4972 C   0  0  0  0  0  0  0  0  0  0  0  0
   10.3991   15.6386   22.0228 C   0  0  0  0  0  0  0  0  0  0  0  0
   11.4528   16.6834   21.9885 C   0  0  0  0  0  0  0  0  0  0  0  0
   12.7795   16.1622   21.4385 C   0  0  0  0  0  0  0  0  0  0  0  0
   13.5659   15.2941   22.4248 C   0  0  0  0  0  0  0  0  0  0  0  0
   12.9294   13.9393   22.7450 C   0  0  0  0  0  0  0  0  0  0  0  0
   11.6239   14.0392   23.5296 C   0  0  0  0  0  0  0  0  0  0  0  0
    6.6432   14.5707   24.1823 C   0  0  0  0  0  0  0  0  0  0  0  0
   13.8005    5.5411   22.8022 C   0  0  0  0  0  0  0  0  0  0  0  0
    4.3782    9.9356   25.4037 C   0  0  0  0  0  0  0  0  0  0  0  0
    5.8313   10.1366   25.8357 C   0  0  0  0  0  0  0  0  0  0  0  0
    4.1727    9.3209   22.8545 N   0  0  0  0  0  0  0  0  0  0  0  0
    8.3403    9.9349   24.1468 N   0  0  0  0  0  0  0  0  0  0  0  0
    6.0152   12.4372   25.1429 N   0  0  0  0  0  0  0  0  0  0  0  0
    8.5713   14.4876   21.7097 N   0  0  0  0  0  0  0  0  0  0  0  0
    9.2319   15.6607   21.4094 N   0  0  0  0  0  0  0  0  0  0  0  0
    6.5074   11.1855   25.1096 N   0  0  0  0  0  0  0  0  0  0  0  0
   10.5066   14.4679   22.7207 N   0  0  0  0  0  0  0  0  0  0  0  0
   12.4353    5.5240   22.3878 O   0  0  0  0  0  0  0  0  0  0  0  0
   12.1230    9.9485   24.0808 F   0  0  0  0  0  0  0  0  0  0  0  0
    8.5660    7.8695   22.1797 H   0  0  0  0  0  0  0  0  0  0  0  0
    9.8966    5.8419   21.7571 H   0  0  0  0  0  0  0  0  0  0  0  0
   10.6850   11.4167   22.1574 H   0  0  0  0  0  0  0  0  0  0  0  0
   13.3369    7.7159   23.5415 H   0  0  0  0  0  0  0  0  0  0  0  0
   11.1068   17.5474   21.4093 H   0  0  0  0  0  0  0  0  0  0  0  0
   11.6173   17.0391   23.0132 H   0  0  0  0  0  0  0  0  0  0  0  0
   12.5603   15.5449   20.5580 H   0  0  0  0  0  0  0  0  0  0  0  0
   13.4070   16.9925   21.0910 H   0  0  0  0  0  0  0  0  0  0  0  0
   14.5872   15.1447   22.0535 H   0  0  0  0  0  0  0  0  0  0  0  0
   13.6584   15.8527   23.3649 H   0  0  0  0  0  0  0  0  0  0  0  0
   12.7147   13.4407   21.7916 H   0  0  0  0  0  0  0  0  0  0  0  0
   13.6497   13.3065   23.2777 H   0  0  0  0  0  0  0  0  0  0  0  0
   11.3519   13.0759   23.9767 H   0  0  0  0  0  0  0  0  0  0  0  0
   11.7574   14.7497   24.3514 H   0  0  0  0  0  0  0  0  0  0  0  0
    6.0076   14.7575   23.3005 H   0  0  0  0  0  0  0  0  0  0  0  0
    6.1508   15.0378   25.0533 H   0  0  0  0  0  0  0  0  0  0  0  0
    7.5878   15.1235   24.0358 H   0  0  0  0  0  0  0  0  0  0  0  0
   14.2689    4.5850   22.5560 H   0  0  0  0  0  0  0  0  0  0  0  0
   13.8530    5.7180   23.8795 H   0  0  0  0  0  0  0  0  0  0  0  0
   14.3214    6.3453   22.2772 H   0  0  0  0  0  0  0  0  0  0  0  0
    3.8259   10.8645   25.5878 H   0  0  0  0  0  0  0  0  0  0  0  0
    3.9011    9.1562   26.0089 H   0  0  0  0  0  0  0  0  0  0  0  0
    6.4033    9.2161   25.6652 H   0  0  0  0  0  0  0  0  0  0  0  0
    5.9016   10.3633   26.9066 H   0  0  0  0  0  0  0  0  0  0  0  0
  1 23  1  0  0  0  0
  1 25  3  0  0  0  0
  2  3  2  0  0  0  0
  2  7  1  0  0  0  0
  3  9  1  0  0  0  0
  4  8  2  0  0  0  0
  4 11  1  0  0  0  0
  5  9  2  0  0  0  0
  5 10  1  0  0  0  0
  6  8  1  0  0  0  0
  6 12  1  0  0  0  0
  6 13  2  0  0  0  0
  7 10  2  0  0  0  0
  7 11  1  0  0  0  0
  8 14  1  0  0  0  0
  9 32  1  0  0  0  0
 10 33  1  0  0  0  0
 11 26  2  0  0  0  0
 12 21  1  0  0  0  0
 12 27  2  0  0  0  0
 13 26  1  0  0  0  0
 13 30  1  0  0  0  0
 14 28  2  0  0  0  0
 14 31  1  0  0  0  0
 15 16  1  0  0  0  0
 15 29  2  0  0  0  0
 15 31  1  0  0  0  0
 16 17  1  0  0  0  0
 17 18  1  0  0  0  0
 18 19  1  0  0  0  0
 19 20  1  0  0  0  0
 20 31  1  0  0  0  0
 22 32  1  0  0  0  0
 23 24  1  0  0  0  0
 24 30  1  0  0  0  0
 27 30  1  0  0  0  0
 28 29  1  0  0  0  0
  2 34  1  0  0  0  0
  3 35  1  0  0  0  0
  4 36  1  0  0  0  0
  5 37  1  0  0  0  0
 16 38  1  0  0  0  0
 16 39  1  0  0  0  0
 17 40  1  0  0  0  0
 17 41  1  0  0  0  0
 18 42  1  0  0  0  0
 18 43  1  0  0  0  0
 19 44  1  0  0  0  0
 19 45  1  0  0  0  0
 20 46  1  0  0  0  0
 20 47  1  0  0  0  0
 21 48  1  0  0  0  0
 21 49  1  0  0  0  0
 21 50  1  0  0  0  0
 22 51  1  0  0  0  0
 22 52  1  0  0  0  0
 22 53  1  0  0  0  0
 23 54  1  0  0  0  0
 23 55  1  0  0  0  0
 24 56  1  0  0  0  0
 24 57  1  0  0  0  0
M  END
> <idnumber>
Z55872408

> <heavy_atoms>
33

> <LogS>
-5.4

> <LogP>
3.016

> <rotating_bonds>
5

> <PSA>
94.44

> <hb_acceptors>
6

> <hb_donors>
0

> <Collection>
Legacy

> <link>
https://www.enaminestore.com/catalog/Z55872408

> <ROCS_ShapeQuery>
x0446_0A_x1080_0A_x0929_0A_x0812_0A_x0719_0A_x1140_0A_x0528_0A_x0310_0A

> <ROCS_TanimotoCombo>
0.460 

> <ROCS_ShapeTanimoto>
0.277 

> <ROCS_ColorTanimoto>
0.183 

> <ROCS_RefTversky>
0.255 

> <ROCS_RefColorTversky>
0.209 

> <ROCS_RefTverskyCombo>
0.464 

> <ROCS_FitTversky>
1.449 

> <ROCS_FitColorTversky>
0.594 

> <ROCS_FitTverskyCombo>
2.043 

> <ROCS_ColorScore>
-7.503

> <ROCS_Overlap>
3022.614

> <ROCS_Rank>
278                 

$$$$
untitled-dbase-199102_163
  -OEChem-02092406493D

 44 46  0     0  0  0  0  0  0999 V2000
   12.8756   14.4575   22.1812 C   0  0  0  0  0  0  0  0  0  0  0  0
   13.7045   15.3453   21.4954 C   0  0  0  0  0  0  0  0  0  0  0  0
   11.7664   16.5837   20.7558 C   0  0  0  0  0  0  0  0  0  0  0  0
   11.4920   14.6328   22.1542 C   0  0  0  0  0  0  0  0  0  0  0  0
   13.1500   16.4084   20.7828 C   0  0  0  0  0  0  0  0  0  0  0  0
   10.9374   15.6959   21.4415 C   0  0  0  0  0  0  0  0  0  0  0  0
    8.1524   11.9564   23.6340 C   0  0  0  0  0  0  0  0  0  0  0  0
    7.7434   10.8359   24.3042 C   0  0  0  0  0  0  0  0  0  0  0  0
    9.5394   10.2784   23.3241 C   0  0  0  0  0  0  0  0  0  0  0  0
    7.4582   13.2033   23.6422 C   0  0  0  0  0  0  0  0  0  0  0  0
    5.7963   11.9938   25.1659 C   0  0  0  0  0  0  0  0  0  0  0  0
   10.6240   13.6705   22.8938 C   0  0  0  0  0  0  0  0  0  0  0  0
    6.1924    9.6010   25.7655 C   0  0  0  0  0  0  0  0  0  0  0  0
    5.5001   14.3686   24.5064 C   0  0  0  0  0  0  0  0  0  0  0  0
   15.3641   17.0346   20.1816 C   0  0  0  0  0  0  0  0  0  0  0  0
    9.1112   16.9971   20.6493 C   0  0  0  0  0  0  0  0  0  0  0  0
   10.1270   12.4364   22.1650 C   0  0  0  0  0  0  0  0  0  0  0  0
    8.6048    9.7893   24.1129 N   0  0  0  0  0  0  0  0  0  0  0  0
    9.3083   11.5917   23.0055 N   0  0  0  0  0  0  0  0  0  0  0  0
    6.5855   10.8204   25.0697 N   0  0  0  0  0  0  0  0  0  0  0  0
    6.2819   13.1381   24.4358 N   0  0  0  0  0  0  0  0  0  0  0  0
    7.8352   14.2038   23.0373 O   0  0  0  0  0  0  0  0  0  0  0  0
    4.7575   12.0312   25.8346 O   0  0  0  0  0  0  0  0  0  0  0  0
   10.3351   13.9022   24.0657 O   0  0  0  0  0  0  0  0  0  0  0  0
   13.9593   17.2738   20.1127 O   0  0  0  0  0  0  0  0  0  0  0  0
    9.5881   15.8843   21.4026 O   0  0  0  0  0  0  0  0  0  0  0  0
   10.8976    9.4493   22.7290 Cl  0  0  0  0  0  0  0  0  0  0  0  0
   13.3199   13.6332   22.7332 H   0  0  0  0  0  0  0  0  0  0  0  0
   14.7814   15.2026   21.5205 H   0  0  0  0  0  0  0  0  0  0  0  0
   11.3344   17.4108   20.1978 H   0  0  0  0  0  0  0  0  0  0  0  0
    6.6383    9.5920   26.7711 H   0  0  0  0  0  0  0  0  0  0  0  0
    5.0963    9.5645   25.8503 H   0  0  0  0  0  0  0  0  0  0  0  0
    6.5458    8.7261   25.2000 H   0  0  0  0  0  0  0  0  0  0  0  0
    4.7594   14.3802   23.6932 H   0  0  0  0  0  0  0  0  0  0  0  0
    4.9816   14.4184   25.4752 H   0  0  0  0  0  0  0  0  0  0  0  0
    6.1701   15.2350   24.4042 H   0  0  0  0  0  0  0  0  0  0  0  0
   15.8930   17.7970   19.6045 H   0  0  0  0  0  0  0  0  0  0  0  0
   15.5855   16.0415   19.7828 H   0  0  0  0  0  0  0  0  0  0  0  0
   15.6824   17.0851   21.2256 H   0  0  0  0  0  0  0  0  0  0  0  0
    8.0202   17.0322   20.7007 H   0  0  0  0  0  0  0  0  0  0  0  0
    9.4348   16.9002   19.6099 H   0  0  0  0  0  0  0  0  0  0  0  0
    9.5234   17.9160   21.0730 H   0  0  0  0  0  0  0  0  0  0  0  0
   10.9745   11.8318   21.8251 H   0  0  0  0  0  0  0  0  0  0  0  0
    9.5162   12.7278   21.3039 H   0  0  0  0  0  0  0  0  0  0  0  0
  1  2  2  0  0  0  0
  1  4  1  0  0  0  0
  2  5  1  0  0  0  0
  3  5  2  0  0  0  0
  3  6  1  0  0  0  0
  4  6  2  0  0  0  0
  4 12  1  0  0  0  0
  5 25  1  0  0  0  0
  6 26  1  0  0  0  0
  7  8  2  0  0  0  0
  7 10  1  0  0  0  0
  7 19  1  0  0  0  0
  8 18  1  0  0  0  0
  8 20  1  0  0  0  0
  9 18  2  0  0  0  0
  9 19  1  0  0  0  0
  9 27  1  0  0  0  0
 10 21  1  0  0  0  0
 10 22  2  0  0  0  0
 11 20  1  0  0  0  0
 11 21  1  0  0  0  0
 11 23  2  0  0  0  0
 12 17  1  0  0  0  0
 12 24  2  0  0  0  0
 13 20  1  0  0  0  0
 14 21  1  0  0  0  0
 15 25  1  0  0  0  0
 16 26  1  0  0  0  0
 17 19  1  0  0  0  0
  1 28  1  0  0  0  0
  2 29  1  0  0  0  0
  3 30  1  0  0  0  0
 13 31  1  0  0  0  0
 13 32  1  0  0  0  0
 13 33  1  0  0  0  0
 14 34  1  0  0  0  0
 14 35  1  0  0  0  0
 14 36  1  0  0  0  0
 15 37  1  0  0  0  0
 15 38  1  0  0  0  0
 15 39  1  0  0  0  0
 16 40  1  0  0  0  0
 16 41  1  0  0  0  0
 16 42  1  0  0  0  0
 17 43  1  0  0  0  0
 17 44  1  0  0  0  0
M  END
> <idnumber>
Z18371422

> <heavy_atoms>
27

> <LogS>
-4.257

> <LogP>
2.01

> <rotating_bonds>
5

> <PSA>
93.97

> <hb_acceptors>
6

> <hb_donors>
0

> <Collection>
Legacy

> <link>
https://www.enaminestore.com/catalog/Z18371422

> <ROCS_ShapeQuery>
x0446_0A_x1080_0A_x0929_0A_x0812_0A_x0719_0A_x1140_0A_x0528_0A_x0310_0A

> <ROCS_TanimotoCombo>
0.460 

> <ROCS_ShapeTanimoto>
0.278 

> <ROCS_ColorTanimoto>
0.182 

> <ROCS_RefTversky>
0.251 

> <ROCS_RefColorTversky>
0.203 

> <ROCS_RefTverskyCombo>
0.454 

> <ROCS_FitTversky>
1.643 

> <ROCS_FitColorTversky>
0.640 

> <ROCS_FitTverskyCombo>
2.282 

> <ROCS_ColorScore>
-7.279

> <ROCS_Overlap>
2963.581

> <ROCS_Rank>
279                 

$$$$
untitled-dbase-1070429_32
  -OEChem-02092406493D

 41 43  0     1  0  0  0  0  0999 V2000
    8.0238   12.3066   24.1488 C   0  0  0  0  0  0  0  0  0  0  0  0
    9.2914   12.2301   23.6321 C   0  0  0  0  0  0  0  0  0  0  0  0
    7.6250   10.9647   24.3290 C   0  0  0  0  0  0  0  0  0  0  0  0
   10.1809   13.2861   23.2646 C   0  0  0  0  0  0  0  0  0  0  0  0
    7.1394   13.4402   24.5025 C   0  0  0  0  0  0  0  0  0  0  0  0
   12.7819   14.5499   22.2474 C   0  0  0  0  0  0  0  0  0  0  0  0
   11.1900   15.7798   21.7963 C   0  0  0  0  0  0  0  0  0  0  0  0
    6.2753   10.6037   24.8487 C   0  0  1  0  0  0  0  0  0  0  0  0
   11.5258   14.3420   21.4024 C   0  0  0  0  0  0  0  0  0  0  0  0
    5.6807   12.9336   24.5891 C   0  0  2  0  0  0  0  0  0  0  0  0
    6.3185    9.5369   25.9354 C   0  0  0  0  0  0  0  0  0  0  0  0
    4.7736   13.9924   25.1997 C   0  0  0  0  0  0  0  0  0  0  0  0
   11.6652    9.7783   24.1470 C   0  0  0  0  0  0  0  0  0  0  0  0
   10.7781   10.2953   23.0276 C   0  0  0  0  0  0  0  0  0  0  0  0
    8.5560   10.0935   23.9345 N   0  0  0  0  0  0  0  0  0  0  0  0
    9.5612   10.8937   23.5262 N   0  0  0  0  0  0  0  0  0  0  0  0
   10.6119   13.3502   21.9220 N   0  0  0  0  0  0  0  0  0  0  0  0
   10.5891   14.1245   24.1076 O   0  0  0  0  0  0  0  0  0  0  0  0
   12.2794   15.8130   22.7535 O   0  0  0  0  0  0  0  0  0  0  0  0
    5.6085   11.7576   25.4232 O   0  0  0  0  0  0  0  0  0  0  0  0
    7.4591   13.8322   25.4760 H   0  0  0  0  0  0  0  0  0  0  0  0
    7.2162   14.2487   23.7676 H   0  0  0  0  0  0  0  0  0  0  0  0
   12.9515   13.8314   23.0546 H   0  0  0  0  0  0  0  0  0  0  0  0
   13.7079   14.6914   21.6813 H   0  0  0  0  0  0  0  0  0  0  0  0
   11.3328   16.5265   21.0090 H   0  0  0  0  0  0  0  0  0  0  0  0
   10.2225   15.9386   22.2816 H   0  0  0  0  0  0  0  0  0  0  0  0
    5.6528   10.2461   24.0194 H   0  0  0  0  0  0  0  0  0  0  0  0
   11.7190   14.1995   20.3350 H   0  0  0  0  0  0  0  0  0  0  0  0
    5.3022   12.6751   23.5911 H   0  0  0  0  0  0  0  0  0  0  0  0
    6.9342    9.8773   26.7680 H   0  0  0  0  0  0  0  0  0  0  0  0
    6.7419    8.6151   25.5363 H   0  0  0  0  0  0  0  0  0  0  0  0
    5.3112    9.3348   26.2998 H   0  0  0  0  0  0  0  0  0  0  0  0
    5.1316   14.2645   26.1932 H   0  0  0  0  0  0  0  0  0  0  0  0
    3.7558   13.6098   25.2844 H   0  0  0  0  0  0  0  0  0  0  0  0
    4.7639   14.8842   24.5719 H   0  0  0  0  0  0  0  0  0  0  0  0
   11.9483   10.5845   24.8320 H   0  0  0  0  0  0  0  0  0  0  0  0
   12.5810    9.3431   23.7352 H   0  0  0  0  0  0  0  0  0  0  0  0
   11.1539    9.0071   24.7327 H   0  0  0  0  0  0  0  0  0  0  0  0
   10.5002    9.4818   22.3478 H   0  0  0  0  0  0  0  0  0  0  0  0
   11.3061   11.0496   22.4333 H   0  0  0  0  0  0  0  0  0  0  0  0
   10.3121   12.6199   21.2844 H   0  0  0  0  0  0  0  0  0  0  0  0
  1  2  2  0  0  0  0
  1  3  1  0  0  0  0
  1  5  1  0  0  0  0
  2  4  1  0  0  0  0
  2 16  1  0  0  0  0
  3  8  1  0  0  0  0
  3 15  2  0  0  0  0
  4 17  1  0  0  0  0
  4 18  2  0  0  0  0
  5 10  1  0  0  0  0
  6  9  1  0  0  0  0
  6 19  1  0  0  0  0
  7  9  1  0  0  0  0
  7 19  1  0  0  0  0
  8 11  1  1  0  0  0
  8 20  1  0  0  0  0
  9 17  1  0  0  0  0
 10 12  1  1  0  0  0
 10 20  1  0  0  0  0
 13 14  1  0  0  0  0
 14 16  1  0  0  0  0
 15 16  1  0  0  0  0
  5 21  1  0  0  0  0
  5 22  1  0  0  0  0
  6 23  1  0  0  0  0
  6 24  1  0  0  0  0
  7 25  1  0  0  0  0
  7 26  1  0  0  0  0
  8 27  1  0  0  0  0
  9 28  1  0  0  0  0
 10 29  1  0  0  0  0
 11 30  1  0  0  0  0
 11 31  1  0  0  0  0
 11 32  1  0  0  0  0
 12 33  1  0  0  0  0
 12 34  1  0  0  0  0
 12 35  1  0  0  0  0
 13 36  1  0  0  0  0
 13 37  1  0  0  0  0
 13 38  1  0  0  0  0
 14 39  1  0  0  0  0
 14 40  1  0  0  0  0
 17 41  1  0  0  0  0
M  END
> <idnumber>
Z4105194742

> <heavy_atoms>
20

> <LogS>
-1.799

> <LogP>
0.362

> <rotating_bonds>
3

> <PSA>
65.38

> <hb_acceptors>
4

> <hb_donors>
1

> <Collection>
HTS

> <link>
https://www.enaminestore.com/catalog/Z4105194742

> <ROCS_ShapeQuery>
x0446_0A_x1080_0A_x0929_0A_x0812_0A_x0719_0A_x1140_0A_x0528_0A_x0310_0A

> <ROCS_TanimotoCombo>
0.460 

> <ROCS_ShapeTanimoto>
0.252 

> <ROCS_ColorTanimoto>
0.208 

> <ROCS_RefTversky>
0.227 

> <ROCS_RefColorTversky>
0.218 

> <ROCS_RefTverskyCombo>
0.444 

> <ROCS_FitTversky>
1.817 

> <ROCS_FitColorTversky>
0.820 

> <ROCS_FitTverskyCombo>
2.637 

> <ROCS_ColorScore>
-7.776

> <ROCS_Overlap>
2676.525

> <ROCS_Rank>
280                 

$$$$
untitled-dbase-157000_105
  -OEChem-02092406493D

 52 55  0     1  0  0  0  0  0999 V2000
   12.2426   13.7939   23.8241 C   0  0  0  0  0  0  0  0  0  0  0  0
   13.1346   14.8471   23.6226 C   0  0  0  0  0  0  0  0  0  0  0  0
   10.8249   14.6589   22.0693 C   0  0  0  0  0  0  0  0  0  0  0  0
   11.0877   13.6997   23.0474 C   0  0  0  0  0  0  0  0  0  0  0  0
   12.8718   15.8062   22.6445 C   0  0  0  0  0  0  0  0  0  0  0  0
   11.7169   15.7122   21.8679 C   0  0  0  0  0  0  0  0  0  0  0  0
    6.3760   12.5123   24.3465 C   0  0  0  0  0  0  0  0  0  0  0  0
    4.2123   14.6980   22.3594 C   0  0  0  0  0  0  0  0  0  0  0  0
    9.4483    9.6252   23.4328 C   0  0  0  0  0  0  0  0  0  0  0  0
    9.8967   11.6396   22.0125 C   0  0  0  0  0  0  0  0  0  0  0  0
   10.6173   11.6163   24.4147 C   0  0  0  0  0  0  0  0  0  0  0  0
    7.5497   11.0879   22.6954 C   0  0  0  0  0  0  0  0  0  0  0  0
    8.2662   11.0740   25.1009 C   0  0  0  0  0  0  0  0  0  0  0  0
    8.7056   13.0936   23.6720 C   0  0  0  0  0  0  0  0  0  0  0  0
    8.9068   10.4955   22.2902 C   0  0  2  0  0  0  0  0  0  0  0  0
    9.6238   10.4760   24.6981 C   0  0  1  0  0  0  0  0  0  0  0  0
   10.1047   12.5394   23.2700 C   0  0  0  0  0  0  0  0  0  0  0  0
    7.7136   11.9482   23.9592 C   0  0  0  0  0  0  0  0  0  0  0  0
   13.8410   16.9254   22.4478 C   0  0  0  0  0  0  0  0  0  0  0  0
   11.4145   16.7276   20.8151 C   0  0  0  0  0  0  0  0  0  0  0  0
    4.6167   13.8827   23.5649 C   0  0  0  0  0  0  0  0  0  0  0  0
    5.1089   15.7071   22.0838 N   0  0  0  0  0  0  0  0  0  0  0  0
    5.8265   12.2984   25.4186 O   0  0  0  0  0  0  0  0  0  0  0  0
    3.1977   14.4832   21.7025 O   0  0  0  0  0  0  0  0  0  0  0  0
    5.8931   13.2802   23.3285 O   0  0  0  0  0  0  0  0  0  0  0  0
   12.4552   13.0514   24.5887 H   0  0  0  0  0  0  0  0  0  0  0  0
   14.0313   14.9119   24.2334 H   0  0  0  0  0  0  0  0  0  0  0  0
    9.9246   14.5844   21.4638 H   0  0  0  0  0  0  0  0  0  0  0  0
    8.7594    8.7951   23.6311 H   0  0  0  0  0  0  0  0  0  0  0  0
   10.4082    9.1802   23.1434 H   0  0  0  0  0  0  0  0  0  0  0  0
   10.8595   11.2220   21.6878 H   0  0  0  0  0  0  0  0  0  0  0  0
    9.5304   12.2473   21.1738 H   0  0  0  0  0  0  0  0  0  0  0  0
   10.7715   12.2052   25.3289 H   0  0  0  0  0  0  0  0  0  0  0  0
   11.5973   11.1962   24.1512 H   0  0  0  0  0  0  0  0  0  0  0  0
    7.1423   11.6895   21.8721 H   0  0  0  0  0  0  0  0  0  0  0  0
    6.8263   10.2808   22.8717 H   0  0  0  0  0  0  0  0  0  0  0  0
    7.5618   10.2666   25.3409 H   0  0  0  0  0  0  0  0  0  0  0  0
    8.3749   11.6676   26.0182 H   0  0  0  0  0  0  0  0  0  0  0  0
    8.7993   13.7391   24.5571 H   0  0  0  0  0  0  0  0  0  0  0  0
    8.3157   13.7422   22.8744 H   0  0  0  0  0  0  0  0  0  0  0  0
    8.7873    9.8855   21.3877 H   0  0  0  0  0  0  0  0  0  0  0  0
   10.0064    9.8503   25.5123 H   0  0  0  0  0  0  0  0  0  0  0  0
   14.5989   16.6458   21.7070 H   0  0  0  0  0  0  0  0  0  0  0  0
   13.3325   17.8339   22.1021 H   0  0  0  0  0  0  0  0  0  0  0  0
   14.3474   17.1808   23.3870 H   0  0  0  0  0  0  0  0  0  0  0  0
   10.8271   17.5504   21.2387 H   0  0  0  0  0  0  0  0  0  0  0  0
   12.3360   17.1403   20.3863 H   0  0  0  0  0  0  0  0  0  0  0  0
   10.8481   16.2833   19.9873 H   0  0  0  0  0  0  0  0  0  0  0  0
    3.8748   13.0977   23.7408 H   0  0  0  0  0  0  0  0  0  0  0  0
    4.6829   14.5350   24.4410 H   0  0  0  0  0  0  0  0  0  0  0  0
    5.9340   15.8437   22.6582 H   0  0  0  0  0  0  0  0  0  0  0  0
    4.9841   16.3462   21.3050 H   0  0  0  0  0  0  0  0  0  0  0  0
  1  2  2  0  0  0  0
  1  4  1  0  0  0  0
  2  5  1  0  0  0  0
  3  4  2  0  0  0  0
  3  6  1  0  0  0  0
  4 17  1  0  0  0  0
  5  6  2  0  0  0  0
  5 19  1  0  0  0  0
  6 20  1  0  0  0  0
  7 18  1  0  0  0  0
  7 23  2  0  0  0  0
  7 25  1  0  0  0  0
  8 21  1  0  0  0  0
  8 22  1  0  0  0  0
  8 24  2  0  0  0  0
  9 15  1  0  0  0  0
  9 16  1  0  0  0  0
 10 15  1  0  0  0  0
 10 17  1  0  0  0  0
 11 16  1  0  0  0  0
 11 17  1  0  0  0  0
 12 15  1  0  0  0  0
 12 18  1  0  0  0  0
 13 16  1  0  0  0  0
 13 18  1  0  0  0  0
 14 17  1  0  0  0  0
 14 18  1  0  0  0  0
 21 25  1  0  0  0  0
  1 26  1  0  0  0  0
  2 27  1  0  0  0  0
  3 28  1  0  0  0  0
  9 29  1  0  0  0  0
  9 30  1  0  0  0  0
 10 31  1  0  0  0  0
 10 32  1  0  0  0  0
 11 33  1  0  0  0  0
 11 34  1  0  0  0  0
 12 35  1  0  0  0  0
 12 36  1  0  0  0  0
 13 37  1  0  0  0  0
 13 38  1  0  0  0  0
 14 39  1  0  0  0  0
 14 40  1  0  0  0  0
 15 41  1  0  0  0  0
 16 42  1  0  0  0  0
 19 43  1  0  0  0  0
 19 44  1  0  0  0  0
 19 45  1  0  0  0  0
 20 46  1  0  0  0  0
 20 47  1  0  0  0  0
 20 48  1  0  0  0  0
 21 49  1  0  0  0  0
 21 50  1  0  0  0  0
 22 51  1  0  0  0  0
 22 52  1  0  0  0  0
M  END
> <idnumber>
Z15746780

> <heavy_atoms>
25

> <LogS>
-5.358

> <LogP>
3.961

> <rotating_bonds>
5

> <PSA>
69.39

> <hb_acceptors>
2

> <hb_donors>
1

> <Collection>
Legacy

> <link>
https://www.enaminestore.com/catalog/Z15746780

> <ROCS_ShapeQuery>
x0446_0A_x1080_0A_x0929_0A_x0812_0A_x0719_0A_x1140_0A_x0528_0A_x0310_0A

> <ROCS_TanimotoCombo>
0.460 

> <ROCS_ShapeTanimoto>
0.268 

> <ROCS_ColorTanimoto>
0.192 

> <ROCS_RefTversky>
0.242 

> <ROCS_RefColorTversky>
0.214 

> <ROCS_RefTverskyCombo>
0.456 

> <ROCS_FitTversky>
1.686 

> <ROCS_FitColorTversky>
0.650 

> <ROCS_FitTverskyCombo>
2.336 

> <ROCS_ColorScore>
-7.665

> <ROCS_Overlap>
2858.040

> <ROCS_Rank>
281                 

$$$$
untitled-dbase-755161_71
  -OEChem-02092406493D

 55 58  0     0  0  0  0  0  0999 V2000
    6.0695   10.9715   25.2991 C   0  0  0  0  0  0  0  0  0  0  0  0
    7.2672   10.8702   24.5791 C   0  0  0  0  0  0  0  0  0  0  0  0
    7.5319   12.1451   24.1419 C   0  0  0  0  0  0  0  0  0  0  0  0
   12.4950   16.0159   22.5288 C   0  0  0  0  0  0  0  0  0  0  0  0
    8.1806    9.8130   24.2402 C   0  0  0  0  0  0  0  0  0  0  0  0
   11.2886   15.4518   22.3799 C   0  0  0  0  0  0  0  0  0  0  0  0
   12.8013   17.3477   22.0189 C   0  0  0  0  0  0  0  0  0  0  0  0
   11.8237   18.0458   21.4008 C   0  0  0  0  0  0  0  0  0  0  0  0
   10.2180   16.2082   21.6764 C   0  0  0  0  0  0  0  0  0  0  0  0
    9.4233   11.6431   23.0783 C   0  0  0  0  0  0  0  0  0  0  0  0
   11.0888   14.1079   22.9277 C   0  0  0  0  0  0  0  0  0  0  0  0
   14.2385   17.7823   22.2102 C   0  0  0  0  0  0  0  0  0  0  0  0
   11.9252   19.4602   20.8740 C   0  0  0  0  0  0  0  0  0  0  0  0
   14.7919   18.7222   21.1396 C   0  0  0  0  0  0  0  0  0  0  0  0
   12.8796   20.3761   21.6387 C   0  0  0  0  0  0  0  0  0  0  0  0
   14.3498   20.1729   21.2919 C   0  0  0  0  0  0  0  0  0  0  0  0
    6.2315   14.6476   22.9041 C   0  0  0  0  0  0  0  0  0  0  0  0
    7.5304   15.1017   25.0222 C   0  0  0  0  0  0  0  0  0  0  0  0
    5.0549   14.9065   25.0769 C   0  0  0  0  0  0  0  0  0  0  0  0
    6.3336   14.3370   24.4140 C   0  0  0  0  0  0  0  0  0  0  0  0
    5.5995   12.2251   25.3209 N   0  0  0  0  0  0  0  0  0  0  0  0
    8.5724   12.5915   23.4018 N   0  0  0  0  0  0  0  0  0  0  0  0
    6.5121   12.9175   24.6084 N   0  0  0  0  0  0  0  0  0  0  0  0
    9.2495   10.2977   23.4744 N   0  0  0  0  0  0  0  0  0  0  0  0
   10.5731   17.4715   21.2419 N   0  0  0  0  0  0  0  0  0  0  0  0
   10.5217   11.8901   22.3457 N   0  0  0  0  0  0  0  0  0  0  0  0
   10.7376   13.1878   21.9624 N   0  0  0  0  0  0  0  0  0  0  0  0
    8.0304    8.6468   24.5836 O   0  0  0  0  0  0  0  0  0  0  0  0
    9.1013   15.7232   21.5114 O   0  0  0  0  0  0  0  0  0  0  0  0
   11.2334   13.8837   24.1292 O   0  0  0  0  0  0  0  0  0  0  0  0
    5.5143   10.1971   25.8087 H   0  0  0  0  0  0  0  0  0  0  0  0
   13.2945   15.4846   23.0434 H   0  0  0  0  0  0  0  0  0  0  0  0
   14.3498   18.2353   23.2138 H   0  0  0  0  0  0  0  0  0  0  0  0
   14.8943   16.8920   22.2405 H   0  0  0  0  0  0  0  0  0  0  0  0
   12.2600   19.4347   19.8209 H   0  0  0  0  0  0  0  0  0  0  0  0
   10.9146   19.9059   20.8306 H   0  0  0  0  0  0  0  0  0  0  0  0
   15.8884   18.7008   21.2050 H   0  0  0  0  0  0  0  0  0  0  0  0
   14.5370   18.3543   20.1365 H   0  0  0  0  0  0  0  0  0  0  0  0
   12.6005   21.4282   21.4929 H   0  0  0  0  0  0  0  0  0  0  0  0
   12.7588   20.1712   22.7109 H   0  0  0  0  0  0  0  0  0  0  0  0
   14.9773   20.6718   22.0446 H   0  0  0  0  0  0  0  0  0  0  0  0
   14.5497   20.6903   20.3424 H   0  0  0  0  0  0  0  0  0  0  0  0
    5.3885   14.1163   22.4473 H   0  0  0  0  0  0  0  0  0  0  0  0
    6.0797   15.7146   22.7091 H   0  0  0  0  0  0  0  0  0  0  0  0
    7.1441   14.3436   22.3783 H   0  0  0  0  0  0  0  0  0  0  0  0
    7.6427   14.9117   26.0948 H   0  0  0  0  0  0  0  0  0  0  0  0
    8.4721   14.8059   24.5454 H   0  0  0  0  0  0  0  0  0  0  0  0
    7.4131   16.1836   24.8900 H   0  0  0  0  0  0  0  0  0  0  0  0
    5.0565   14.7223   26.1581 H   0  0  0  0  0  0  0  0  0  0  0  0
    4.9763   15.9910   24.9377 H   0  0  0  0  0  0  0  0  0  0  0  0
    4.1488   14.4396   24.6738 H   0  0  0  0  0  0  0  0  0  0  0  0
    9.9553    9.6283   23.1813 H   0  0  0  0  0  0  0  0  0  0  0  0
    9.8608   18.0250   20.7674 H   0  0  0  0  0  0  0  0  0  0  0  0
   11.1727   11.1611   22.0989 H   0  0  0  0  0  0  0  0  0  0  0  0
   10.6016   13.3941   20.9784 H   0  0  0  0  0  0  0  0  0  0  0  0
  1  2  1  0  0  0  0
  1 21  2  0  0  0  0
  2  3  2  0  0  0  0
  2  5  1  0  0  0  0
  3 22  1  0  0  0  0
  3 23  1  0  0  0  0
  4  6  2  0  0  0  0
  4  7  1  0  0  0  0
  5 24  1  0  0  0  0
  5 28  2  0  0  0  0
  6  9  1  0  0  0  0
  6 11  1  0  0  0  0
  7  8  2  0  0  0  0
  7 12  1  0  0  0  0
  8 13  1  0  0  0  0
  8 25  1  0  0  0  0
  9 25  1  0  0  0  0
  9 29  2  0  0  0  0
 10 22  2  0  0  0  0
 10 24  1  0  0  0  0
 10 26  1  0  0  0  0
 11 27  1  0  0  0  0
 11 30  2  0  0  0  0
 12 14  1  0  0  0  0
 13 15  1  0  0  0  0
 14 16  1  0  0  0  0
 15 16  1  0  0  0  0
 17 20  1  0  0  0  0
 18 20  1  0  0  0  0
 19 20  1  0  0  0  0
 20 23  1  0  0  0  0
 21 23  1  0  0  0  0
 26 27  1  0  0  0  0
  1 31  1  0  0  0  0
  4 32  1  0  0  0  0
 12 33  1  0  0  0  0
 12 34  1  0  0  0  0
 13 35  1  0  0  0  0
 13 36  1  0  0  0  0
 14 37  1  0  0  0  0
 14 38  1  0  0  0  0
 15 39  1  0  0  0  0
 15 40  1  0  0  0  0
 16 41  1  0  0  0  0
 16 42  1  0  0  0  0
 17 43  1  0  0  0  0
 17 44  1  0  0  0  0
 17 45  1  0  0  0  0
 18 46  1  0  0  0  0
 18 47  1  0  0  0  0
 18 48  1  0  0  0  0
 19 49  1  0  0  0  0
 19 50  1  0  0  0  0
 19 51  1  0  0  0  0
 24 52  1  0  0  0  0
 25 53  1  0  0  0  0
 26 54  1  0  0  0  0
 27 55  1  0  0  0  0
M  END
> <idnumber>
Z1463842654

> <heavy_atoms>
30

> <LogS>
-5.313

> <LogP>
0.086

> <rotating_bonds>
4

> <PSA>
129.51

> <hb_acceptors>
6

> <hb_donors>
4

> <Collection>
HTS

> <link>
https://www.enaminestore.com/catalog/Z1463842654

> <ROCS_ShapeQuery>
x0446_0A_x1080_0A_x0929_0A_x0812_0A_x0719_0A_x1140_0A_x0528_0A_x0310_0A

> <ROCS_TanimotoCombo>
0.460 

> <ROCS_ShapeTanimoto>
0.264 

> <ROCS_ColorTanimoto>
0.196 

> <ROCS_RefTversky>
0.243 

> <ROCS_RefColorTversky>
0.234 

> <ROCS_RefTverskyCombo>
0.477 

> <ROCS_FitTversky>
1.481 

> <ROCS_FitColorTversky>
0.545 

> <ROCS_FitTverskyCombo>
2.026 

> <ROCS_ColorScore>
-8.441

> <ROCS_Overlap>
2876.732

> <ROCS_Rank>
282                 

$$$$
untitled-dbase-540356_169
  -OEChem-02092406493D

 39 42  0     0  0  0  0  0  0999 V2000
    5.9000   12.9415   25.5758 C   0  0  0  0  0  0  0  0  0  0  0  0
    5.4164   11.6423   25.4008 C   0  0  0  0  0  0  0  0  0  0  0  0
    7.1864   13.2992   25.1500 C   0  0  0  0  0  0  0  0  0  0  0  0
    6.1962   10.6520   24.7958 C   0  0  0  0  0  0  0  0  0  0  0  0
    7.9893   12.3212   24.5392 C   0  0  0  0  0  0  0  0  0  0  0  0
    9.2823   12.2559   23.9891 C   0  0  0  0  0  0  0  0  0  0  0  0
    7.4719   11.0311   24.3811 C   0  0  0  0  0  0  0  0  0  0  0  0
    9.4765   10.9777   23.5418 C   0  0  0  0  0  0  0  0  0  0  0  0
    9.4414   16.3683   20.4701 C   0  0  0  0  0  0  0  0  0  0  0  0
   11.0037   15.0434   21.1865 C   0  0  0  0  0  0  0  0  0  0  0  0
   10.6680   10.5067   22.9170 C   0  0  0  0  0  0  0  0  0  0  0  0
   11.3460   12.8465   23.3082 C   0  0  0  0  0  0  0  0  0  0  0  0
    8.7649   17.4307   19.7038 C   0  0  0  0  0  0  0  0  0  0  0  0
   11.7918   18.1983   19.6604 C   0  0  0  0  0  0  0  0  0  0  0  0
   12.5010   13.7862   23.1075 C   0  0  0  0  0  0  0  0  0  0  0  0
   11.6879   16.7030   19.4136 C   0  0  0  0  0  0  0  0  0  0  0  0
    8.9076   15.5836   21.3787 N   0  0  0  0  0  0  0  0  0  0  0  0
    9.9015   14.7407   21.8345 N   0  0  0  0  0  0  0  0  0  0  0  0
   10.2493   13.2635   23.8815 N   0  0  0  0  0  0  0  0  0  0  0  0
   10.7598   16.0629   20.3170 N   0  0  0  0  0  0  0  0  0  0  0  0
   11.5955   11.5482   22.8342 N   0  0  0  0  0  0  0  0  0  0  0  0
   10.8587    9.3661   22.5118 O   0  0  0  0  0  0  0  0  0  0  0  0
    8.3850   10.2102   23.7700 O   0  0  0  0  0  0  0  0  0  0  0  0
   12.5863   14.2768   21.3748 S   0  0  0  0  0  0  0  0  0  0  0  0
    5.2685   13.6886   26.0500 H   0  0  0  0  0  0  0  0  0  0  0  0
    4.4137   11.3958   25.7416 H   0  0  0  0  0  0  0  0  0  0  0  0
    7.5472   14.3132   25.2932 H   0  0  0  0  0  0  0  0  0  0  0  0
    5.8259    9.6431   24.6578 H   0  0  0  0  0  0  0  0  0  0  0  0
    8.8241   18.3997   20.2273 H   0  0  0  0  0  0  0  0  0  0  0  0
    9.2067   17.5656   18.7011 H   0  0  0  0  0  0  0  0  0  0  0  0
    7.6967   17.2064   19.5366 H   0  0  0  0  0  0  0  0  0  0  0  0
   10.8196   18.6878   19.5393 H   0  0  0  0  0  0  0  0  0  0  0  0
   12.4927   18.6517   18.9527 H   0  0  0  0  0  0  0  0  0  0  0  0
   12.1469   18.4079   20.6748 H   0  0  0  0  0  0  0  0  0  0  0  0
   13.4228   13.2851   23.3958 H   0  0  0  0  0  0  0  0  0  0  0  0
   12.3646   14.6631   23.7369 H   0  0  0  0  0  0  0  0  0  0  0  0
   12.6649   16.2223   19.5370 H   0  0  0  0  0  0  0  0  0  0  0  0
   11.3540   16.5028   18.3892 H   0  0  0  0  0  0  0  0  0  0  0  0
   12.4981   11.3563   22.4085 H   0  0  0  0  0  0  0  0  0  0  0  0
  1  2  1  0  0  0  0
  1  3  2  0  0  0  0
  2  4  2  0  0  0  0
  3  5  1  0  0  0  0
  4  7  1  0  0  0  0
  5  6  1  0  0  0  0
  5  7  2  0  0  0  0
  6  8  2  0  0  0  0
  6 19  1  0  0  0  0
  7 23  1  0  0  0  0
  8 11  1  0  0  0  0
  8 23  1  0  0  0  0
  9 13  1  0  0  0  0
  9 17  2  0  0  0  0
  9 20  1  0  0  0  0
 10 18  2  0  0  0  0
 10 20  1  0  0  0  0
 10 24  1  0  0  0  0
 11 21  1  0  0  0  0
 11 22  2  0  0  0  0
 12 15  1  0  0  0  0
 12 19  2  0  0  0  0
 12 21  1  0  0  0  0
 14 16  1  0  0  0  0
 15 24  1  0  0  0  0
 16 20  1  0  0  0  0
 17 18  1  0  0  0  0
  1 25  1  0  0  0  0
  2 26  1  0  0  0  0
  3 27  1  0  0  0  0
  4 28  1  0  0  0  0
 13 29  1  0  0  0  0
 13 30  1  0  0  0  0
 13 31  1  0  0  0  0
 14 32  1  0  0  0  0
 14 33  1  0  0  0  0
 14 34  1  0  0  0  0
 15 35  1  0  0  0  0
 15 36  1  0  0  0  0
 16 37  1  0  0  0  0
 16 38  1  0  0  0  0
 21 39  1  0  0  0  0
M  END
> <idnumber>
Z1116588628

> <heavy_atoms>
24

> <LogS>
-4.594

> <LogP>
0.838

> <rotating_bonds>
4

> <PSA>
85.31

> <hb_acceptors>
4

> <hb_donors>
1

> <Collection>
Legacy

> <link>
https://www.enaminestore.com/catalog/Z1116588628

> <ROCS_ShapeQuery>
x0446_0A_x1080_0A_x0929_0A_x0812_0A_x0719_0A_x1140_0A_x0528_0A_x0310_0A

> <ROCS_TanimotoCombo>
0.460 

> <ROCS_ShapeTanimoto>
0.258 

> <ROCS_ColorTanimoto>
0.202 

> <ROCS_RefTversky>
0.234 

> <ROCS_RefColorTversky>
0.222 

> <ROCS_RefTverskyCombo>
0.457 

> <ROCS_FitTversky>
1.650 

> <ROCS_FitColorTversky>
0.682 

> <ROCS_FitTverskyCombo>
2.333 

> <ROCS_ColorScore>
-7.975

> <ROCS_Overlap>
2769.804

> <ROCS_Rank>
283                 

$$$$
untitled-dbase-323683_60
  -OEChem-02092406493D

 42 45  0     0  0  0  0  0  0999 V2000
    5.8001   13.1478   25.1315 C   0  0  0  0  0  0  0  0  0  0  0  0
    5.4731   11.8006   25.2386 C   0  0  0  0  0  0  0  0  0  0  0  0
   12.4547    8.8076   21.7479 C   0  0  0  0  0  0  0  0  0  0  0  0
    7.0479   13.5140   24.6368 C   0  0  0  0  0  0  0  0  0  0  0  0
   11.5705    9.8190   22.1066 C   0  0  0  0  0  0  0  0  0  0  0  0
    6.3939   10.8228   24.8508 C   0  0  0  0  0  0  0  0  0  0  0  0
   13.2881   14.0505   23.3008 C   0  0  0  0  0  0  0  0  0  0  0  0
   11.9995   13.8385   23.7908 C   0  0  0  0  0  0  0  0  0  0  0  0
   12.3756   15.2838   21.4344 C   0  0  0  0  0  0  0  0  0  0  0  0
   12.3707    7.6021   22.4259 C   0  0  0  0  0  0  0  0  0  0  0  0
   10.6395    8.3562   23.7345 C   0  0  0  0  0  0  0  0  0  0  0  0
    7.9683   12.5248   24.2489 C   0  0  0  0  0  0  0  0  0  0  0  0
   10.6425    9.5971   23.1180 C   0  0  0  0  0  0  0  0  0  0  0  0
    7.6496   11.1609   24.3522 C   0  0  0  0  0  0  0  0  0  0  0  0
   11.0869   15.0718   21.9244 C   0  0  0  0  0  0  0  0  0  0  0  0
   13.4762   14.7731   22.1226 C   0  0  0  0  0  0  0  0  0  0  0  0
   10.8989   14.3492   23.1027 C   0  0  0  0  0  0  0  0  0  0  0  0
    9.2316   12.8234   23.7463 C   0  0  0  0  0  0  0  0  0  0  0  0
    9.7143   10.6246   23.5123 C   0  0  0  0  0  0  0  0  0  0  0  0
   15.8134   14.4315   22.3989 C   0  0  0  0  0  0  0  0  0  0  0  0
   11.4827    7.3495   23.4134 N   0  0  0  0  0  0  0  0  0  0  0  0
    8.5221   10.2065   23.9839 N   0  0  0  0  0  0  0  0  0  0  0  0
   10.1291   11.8935   23.3687 N   0  0  0  0  0  0  0  0  0  0  0  0
    9.9765   15.6011   21.2108 N   0  3  0  0  0  0  0  0  0  0  0  0
   10.1855   16.2455   20.1559 O   0  5  0  0  0  0  0  0  0  0  0  0
    8.8212   15.4079   21.6580 O   0  0  0  0  0  0  0  0  0  0  0  0
    9.6338   14.1266   23.6077 O   0  0  0  0  0  0  0  0  0  0  0  0
   14.7338   14.9807   21.6450 O   0  0  0  0  0  0  0  0  0  0  0  0
    5.0862   13.9084   25.4322 H   0  0  0  0  0  0  0  0  0  0  0  0
    4.5011   11.5064   25.6242 H   0  0  0  0  0  0  0  0  0  0  0  0
   13.1861    8.9570   20.9621 H   0  0  0  0  0  0  0  0  0  0  0  0
    7.2887   14.5711   24.5584 H   0  0  0  0  0  0  0  0  0  0  0  0
   11.6163   10.7743   21.5898 H   0  0  0  0  0  0  0  0  0  0  0  0
    6.1128    9.7754   24.9458 H   0  0  0  0  0  0  0  0  0  0  0  0
   14.1418   13.6515   23.8416 H   0  0  0  0  0  0  0  0  0  0  0  0
   11.8608   13.2759   24.7101 H   0  0  0  0  0  0  0  0  0  0  0  0
   12.5308   15.8466   20.5166 H   0  0  0  0  0  0  0  0  0  0  0  0
   13.0383    6.7814   22.1838 H   0  0  0  0  0  0  0  0  0  0  0  0
    9.9393    8.1192   24.5305 H   0  0  0  0  0  0  0  0  0  0  0  0
   16.7601   14.6699   21.9079 H   0  0  0  0  0  0  0  0  0  0  0  0
   15.6924   13.3479   22.4741 H   0  0  0  0  0  0  0  0  0  0  0  0
   15.8053   14.8674   23.4008 H   0  0  0  0  0  0  0  0  0  0  0  0
  1  2  1  0  0  0  0
  1  4  2  0  0  0  0
  2  6  2  0  0  0  0
  3  5  2  0  0  0  0
  3 10  1  0  0  0  0
  4 12  1  0  0  0  0
  5 13  1  0  0  0  0
  6 14  1  0  0  0  0
  7  8  2  0  0  0  0
  7 16  1  0  0  0  0
  8 17  1  0  0  0  0
  9 15  1  0  0  0  0
  9 16  2  0  0  0  0
 10 21  2  0  0  0  0
 11 13  2  0  0  0  0
 11 21  1  0  0  0  0
 12 14  1  0  0  0  0
 12 18  2  0  0  0  0
 13 19  1  0  0  0  0
 14 22  2  0  0  0  0
 15 17  2  0  0  0  0
 15 24  1  0  0  0  0
 16 28  1  0  0  0  0
 17 27  1  0  0  0  0
 18 23  1  0  0  0  0
 18 27  1  0  0  0  0
 19 22  1  0  0  0  0
 19 23  2  0  0  0  0
 20 28  1  0  0  0  0
 24 25  1  0  0  0  0
 24 26  2  0  0  0  0
  1 29  1  0  0  0  0
  2 30  1  0  0  0  0
  3 31  1  0  0  0  0
  4 32  1  0  0  0  0
  5 33  1  0  0  0  0
  6 34  1  0  0  0  0
  7 35  1  0  0  0  0
  8 36  1  0  0  0  0
  9 37  1  0  0  0  0
 10 38  1  0  0  0  0
 11 39  1  0  0  0  0
 20 40  1  0  0  0  0
 20 41  1  0  0  0  0
 20 42  1  0  0  0  0
M  CHG  2  24   1  25  -1
M  END
> <idnumber>
Z31118205

> <heavy_atoms>
28

> <LogS>
-6.17

> <LogP>
3.564

> <rotating_bonds>
5

> <PSA>
100.27

> <hb_acceptors>
6

> <hb_donors>
0

> <Collection>
Legacy

> <link>
https://www.enaminestore.com/catalog/Z31118205

> <ROCS_ShapeQuery>
x0446_0A_x1080_0A_x0929_0A_x0812_0A_x0719_0A_x1140_0A_x0528_0A_x0310_0A

> <ROCS_TanimotoCombo>
0.460 

> <ROCS_ShapeTanimoto>
0.271 

> <ROCS_ColorTanimoto>
0.189 

> <ROCS_RefTversky>
0.247 

> <ROCS_RefColorTversky>
0.214 

> <ROCS_RefTverskyCombo>
0.461 

> <ROCS_FitTversky>
1.555 

> <ROCS_FitColorTversky>
0.621 

> <ROCS_FitTverskyCombo>
2.175 

> <ROCS_ColorScore>
-7.662

> <ROCS_Overlap>
2922.211

> <ROCS_Rank>
284                 

$$$$
untitled-dbase-1071125_162
  -OEChem-02092406493D

 51 53  0     1  0  0  0  0  0999 V2000
    8.1188   12.2880   24.2806 C   0  0  0  0  0  0  0  0  0  0  0  0
    9.4150   12.2206   23.8390 C   0  0  0  0  0  0  0  0  0  0  0  0
    7.6889   10.9453   24.3473 C   0  0  0  0  0  0  0  0  0  0  0  0
   10.3665   13.3089   23.5909 C   0  0  0  0  0  0  0  0  0  0  0  0
    7.2314   13.4133   24.6531 C   0  0  0  0  0  0  0  0  0  0  0  0
    9.2558   13.9609   21.3956 C   0  0  0  0  0  0  0  0  0  0  0  0
   11.6227   14.5282   21.8595 C   0  0  0  0  0  0  0  0  0  0  0  0
    8.6350   15.3517   21.3748 C   0  0  0  0  0  0  0  0  0  0  0  0
   10.3886   16.8053   22.0766 C   0  0  0  0  0  0  0  0  0  0  0  0
    6.3039   10.5777   24.7580 C   0  0  1  0  0  0  0  0  0  0  0  0
    5.7625   12.9305   24.6162 C   0  0  2  0  0  0  0  0  0  0  0  0
   11.6708   16.0006   22.2342 C   0  0  0  0  0  0  0  0  0  0  0  0
    6.2625    9.4421   25.7727 C   0  0  0  0  0  0  0  0  0  0  0  0
    4.8352   13.9650   25.2381 C   0  0  0  0  0  0  0  0  0  0  0  0
   13.9027   10.2031   23.6009 C   0  0  0  0  0  0  0  0  0  0  0  0
   10.9067   10.3005   23.2012 C   0  0  0  0  0  0  0  0  0  0  0  0
   11.7274    9.7032   24.3364 C   0  0  0  0  0  0  0  0  0  0  0  0
    8.6293   10.0836   23.9543 N   0  0  0  0  0  0  0  0  0  0  0  0
    9.6703   10.8888   23.6623 N   0  0  0  0  0  0  0  0  0  0  0  0
   10.3987   13.8740   22.3123 N   0  0  0  0  0  0  0  0  0  0  0  0
   11.0678   13.6478   24.5428 O   0  0  0  0  0  0  0  0  0  0  0  0
    9.5756   16.3560   20.9958 O   0  0  0  0  0  0  0  0  0  0  0  0
    5.6201   11.7046   25.3650 O   0  0  0  0  0  0  0  0  0  0  0  0
   12.9444    9.1776   23.8225 O   0  0  0  0  0  0  0  0  0  0  0  0
   12.0874   16.1126   23.5257 F   0  0  0  0  0  0  0  0  0  0  0  0
   12.6424   16.5884   21.4797 F   0  0  0  0  0  0  0  0  0  0  0  0
    7.4954   13.7352   25.6681 H   0  0  0  0  0  0  0  0  0  0  0  0
    7.3665   14.2660   23.9791 H   0  0  0  0  0  0  0  0  0  0  0  0
    8.4907   13.2243   21.6566 H   0  0  0  0  0  0  0  0  0  0  0  0
    9.6218   13.6983   20.3959 H   0  0  0  0  0  0  0  0  0  0  0  0
   11.7148   14.4011   20.7748 H   0  0  0  0  0  0  0  0  0  0  0  0
   12.4846   14.0203   22.3075 H   0  0  0  0  0  0  0  0  0  0  0  0
    7.8430   15.3636   20.6180 H   0  0  0  0  0  0  0  0  0  0  0  0
    8.1584   15.5978   22.3311 H   0  0  0  0  0  0  0  0  0  0  0  0
    9.8179   16.8188   23.0129 H   0  0  0  0  0  0  0  0  0  0  0  0
   10.6527   17.8468   21.8629 H   0  0  0  0  0  0  0  0  0  0  0  0
    5.7292   10.2866   23.8702 H   0  0  0  0  0  0  0  0  0  0  0  0
    5.4434   12.7446   23.5819 H   0  0  0  0  0  0  0  0  0  0  0  0
    6.8299    9.7159   26.6623 H   0  0  0  0  0  0  0  0  0  0  0  0
    6.6959    8.5400   25.3407 H   0  0  0  0  0  0  0  0  0  0  0  0
    5.2313    9.2364   26.0603 H   0  0  0  0  0  0  0  0  0  0  0  0
    5.1344   14.1652   26.2675 H   0  0  0  0  0  0  0  0  0  0  0  0
    3.8085   13.5975   25.2346 H   0  0  0  0  0  0  0  0  0  0  0  0
    4.8786   14.8956   24.6710 H   0  0  0  0  0  0  0  0  0  0  0  0
   14.8227    9.7642   23.2072 H   0  0  0  0  0  0  0  0  0  0  0  0
   14.1070   10.7214   24.5411 H   0  0  0  0  0  0  0  0  0  0  0  0
   13.5012   10.9140   22.8750 H   0  0  0  0  0  0  0  0  0  0  0  0
   10.6522    9.5396   22.4542 H   0  0  0  0  0  0  0  0  0  0  0  0
   11.4709   11.0925   22.6955 H   0  0  0  0  0  0  0  0  0  0  0  0
   11.9790   10.4833   25.0617 H   0  0  0  0  0  0  0  0  0  0  0  0
   11.1879    8.9018   24.8516 H   0  0  0  0  0  0  0  0  0  0  0  0
  1  2  2  0  0  0  0
  1  3  1  0  0  0  0
  1  5  1  0  0  0  0
  2  4  1  0  0  0  0
  2 19  1  0  0  0  0
  3 10  1  0  0  0  0
  3 18  2  0  0  0  0
  4 20  1  0  0  0  0
  4 21  2  0  0  0  0
  5 11  1  0  0  0  0
  6  8  1  0  0  0  0
  6 20  1  0  0  0  0
  7 12  1  0  0  0  0
  7 20  1  0  0  0  0
  8 22  1  0  0  0  0
  9 12  1  0  0  0  0
  9 22  1  0  0  0  0
 10 13  1  1  0  0  0
 10 23  1  0  0  0  0
 11 14  1  1  0  0  0
 11 23  1  0  0  0  0
 12 25  1  0  0  0  0
 12 26  1  0  0  0  0
 15 24  1  0  0  0  0
 16 17  1  0  0  0  0
 16 19  1  0  0  0  0
 17 24  1  0  0  0  0
 18 19  1  0  0  0  0
  5 27  1  0  0  0  0
  5 28  1  0  0  0  0
  6 29  1  0  0  0  0
  6 30  1  0  0  0  0
  7 31  1  0  0  0  0
  7 32  1  0  0  0  0
  8 33  1  0  0  0  0
  8 34  1  0  0  0  0
  9 35  1  0  0  0  0
  9 36  1  0  0  0  0
 10 37  1  0  0  0  0
 11 38  1  0  0  0  0
 13 39  1  0  0  0  0
 13 40  1  0  0  0  0
 13 41  1  0  0  0  0
 14 42  1  0  0  0  0
 14 43  1  0  0  0  0
 14 44  1  0  0  0  0
 15 45  1  0  0  0  0
 15 46  1  0  0  0  0
 15 47  1  0  0  0  0
 16 48  1  0  0  0  0
 16 49  1  0  0  0  0
 17 50  1  0  0  0  0
 17 51  1  0  0  0  0
M  END
> <idnumber>
Z4107138438

> <heavy_atoms>
26

> <LogS>
-2.375

> <LogP>
0.581

> <rotating_bonds>
4

> <PSA>
65.82

> <hb_acceptors>
5

> <hb_donors>
0

> <Collection>
HTS

> <link>
https://www.enaminestore.com/catalog/Z4107138438

> <ROCS_ShapeQuery>
x0446_0A_x1080_0A_x0929_0A_x0812_0A_x0719_0A_x1140_0A_x0528_0A_x0310_0A

> <ROCS_TanimotoCombo>
0.460 

> <ROCS_ShapeTanimoto>
0.275 

> <ROCS_ColorTanimoto>
0.185 

> <ROCS_RefTversky>
0.247 

> <ROCS_RefColorTversky>
0.197 

> <ROCS_RefTverskyCombo>
0.445 

> <ROCS_FitTversky>
1.686 

> <ROCS_FitColorTversky>
0.744 

> <ROCS_FitTverskyCombo>
2.431 

> <ROCS_ColorScore>
-7.057

> <ROCS_Overlap>
2922.039

> <ROCS_Rank>
285                 

$$$$
untitled-dbase-684045_134
  -OEChem-02092406493D

 48 51  0     0  0  0  0  0  0999 V2000
    5.7742   13.4660   24.3489 C   0  0  0  0  0  0  0  0  0  0  0  0
    5.4398   12.2150   24.8622 C   0  0  0  0  0  0  0  0  0  0  0  0
    7.0252   13.6734   23.7653 C   0  0  0  0  0  0  0  0  0  0  0  0
    6.3590   11.1685   24.8009 C   0  0  0  0  0  0  0  0  0  0  0  0
    7.9438   12.6204   23.6886 C   0  0  0  0  0  0  0  0  0  0  0  0
    7.6144   11.3766   24.2172 C   0  0  0  0  0  0  0  0  0  0  0  0
    9.6916   14.0261   22.4522 C   0  0  0  0  0  0  0  0  0  0  0  0
   10.8235   15.7337   21.6994 C   0  0  0  0  0  0  0  0  0  0  0  0
    9.2842   12.7565   23.0873 C   0  0  0  0  0  0  0  0  0  0  0  0
    8.6055   10.2866   24.1756 C   0  0  0  0  0  0  0  0  0  0  0  0
   11.9911   16.6151   21.4424 C   0  0  0  0  0  0  0  0  0  0  0  0
   13.3143   15.8571   21.5947 C   0  0  0  0  0  0  0  0  0  0  0  0
   13.3154   14.9982   22.8634 C   0  0  0  0  0  0  0  0  0  0  0  0
   12.1829   13.9698   22.8288 C   0  0  0  0  0  0  0  0  0  0  0  0
   15.1134   10.8224   23.9009 C   0  0  0  0  0  0  0  0  0  0  0  0
   14.7065    9.8372   22.8167 C   0  0  0  0  0  0  0  0  0  0  0  0
   13.3558    9.1917   23.1248 C   0  0  0  0  0  0  0  0  0  0  0  0
   12.2430   10.2373   23.1969 C   0  0  0  0  0  0  0  0  0  0  0  0
   10.9030    9.5985   23.5416 C   0  0  0  0  0  0  0  0  0  0  0  0
    8.8410   14.8439   21.8715 N   0  0  0  0  0  0  0  0  0  0  0  0
    9.5573   15.9275   21.3949 N   0  0  0  0  0  0  0  0  0  0  0  0
   10.1588   11.7998   23.0777 N   0  0  0  0  0  0  0  0  0  0  0  0
   10.9401   14.5480   22.3697 N   0  0  0  0  0  0  0  0  0  0  0  0
    9.8426   10.5895   23.6183 N   0  0  0  0  0  0  0  0  0  0  0  0
    8.2990    9.1879   24.6336 O   0  0  0  0  0  0  0  0  0  0  0  0
    5.0596   14.2824   24.4032 H   0  0  0  0  0  0  0  0  0  0  0  0
    4.4614   12.0532   25.3049 H   0  0  0  0  0  0  0  0  0  0  0  0
    7.2598   14.6634   23.3847 H   0  0  0  0  0  0  0  0  0  0  0  0
    6.0772   10.2010   25.2072 H   0  0  0  0  0  0  0  0  0  0  0  0
   11.9116   17.0111   20.4230 H   0  0  0  0  0  0  0  0  0  0  0  0
   11.9750   17.4711   22.1256 H   0  0  0  0  0  0  0  0  0  0  0  0
   13.4823   15.2282   20.7134 H   0  0  0  0  0  0  0  0  0  0  0  0
   14.1459   16.5719   21.6432 H   0  0  0  0  0  0  0  0  0  0  0  0
   14.2795   14.4808   22.9467 H   0  0  0  0  0  0  0  0  0  0  0  0
   13.2124   15.6313   23.7513 H   0  0  0  0  0  0  0  0  0  0  0  0
   12.4435   13.1377   22.1668 H   0  0  0  0  0  0  0  0  0  0  0  0
   11.9925   13.5767   23.8340 H   0  0  0  0  0  0  0  0  0  0  0  0
   14.3552   11.6046   24.0064 H   0  0  0  0  0  0  0  0  0  0  0  0
   15.2199   10.3200   24.8677 H   0  0  0  0  0  0  0  0  0  0  0  0
   16.0659   11.3034   23.6566 H   0  0  0  0  0  0  0  0  0  0  0  0
   15.4775    9.0631   22.7267 H   0  0  0  0  0  0  0  0  0  0  0  0
   14.6584   10.3608   21.8547 H   0  0  0  0  0  0  0  0  0  0  0  0
   13.4153    8.6523   24.0780 H   0  0  0  0  0  0  0  0  0  0  0  0
   13.1164    8.4531   22.3501 H   0  0  0  0  0  0  0  0  0  0  0  0
   12.1637   10.7628   22.2369 H   0  0  0  0  0  0  0  0  0  0  0  0
   12.4943   10.9955   23.9492 H   0  0  0  0  0  0  0  0  0  0  0  0
   10.9466    9.0920   24.5109 H   0  0  0  0  0  0  0  0  0  0  0  0
   10.6127    8.8671   22.7807 H   0  0  0  0  0  0  0  0  0  0  0  0
  1  2  1  0  0  0  0
  1  3  2  0  0  0  0
  2  4  2  0  0  0  0
  3  5  1  0  0  0  0
  4  6  1  0  0  0  0
  5  6  2  0  0  0  0
  5  9  1  0  0  0  0
  6 10  1  0  0  0  0
  7  9  1  0  0  0  0
  7 20  2  0  0  0  0
  7 23  1  0  0  0  0
  8 11  1  0  0  0  0
  8 21  2  0  0  0  0
  8 23  1  0  0  0  0
  9 22  2  0  0  0  0
 10 24  1  0  0  0  0
 10 25  2  0  0  0  0
 11 12  1  0  0  0  0
 12 13  1  0  0  0  0
 13 14  1  0  0  0  0
 14 23  1  0  0  0  0
 15 16  1  0  0  0  0
 16 17  1  0  0  0  0
 17 18  1  0  0  0  0
 18 19  1  0  0  0  0
 19 24  1  0  0  0  0
 20 21  1  0  0  0  0
 22 24  1  0  0  0  0
  1 26  1  0  0  0  0
  2 27  1  0  0  0  0
  3 28  1  0  0  0  0
  4 29  1  0  0  0  0
 11 30  1  0  0  0  0
 11 31  1  0  0  0  0
 12 32  1  0  0  0  0
 12 33  1  0  0  0  0
 13 34  1  0  0  0  0
 13 35  1  0  0  0  0
 14 36  1  0  0  0  0
 14 37  1  0  0  0  0
 15 38  1  0  0  0  0
 15 39  1  0  0  0  0
 15 40  1  0  0  0  0
 16 41  1  0  0  0  0
 16 42  1  0  0  0  0
 17 43  1  0  0  0  0
 17 44  1  0  0  0  0
 18 45  1  0  0  0  0
 18 46  1  0  0  0  0
 19 47  1  0  0  0  0
 19 48  1  0  0  0  0
M  END
> <idnumber>
Z273993528

> <heavy_atoms>
25

> <LogS>
-4.373

> <LogP>
2.667

> <rotating_bonds>
5

> <PSA>
63.38

> <hb_acceptors>
4

> <hb_donors>
0

> <Collection>
HTS

> <link>
https://www.enaminestore.com/catalog/Z273993528

> <ROCS_ShapeQuery>
x0446_0A_x1080_0A_x0929_0A_x0812_0A_x0719_0A_x1140_0A_x0528_0A_x0310_0A

> <ROCS_TanimotoCombo>
0.460 

> <ROCS_ShapeTanimoto>
0.278 

> <ROCS_ColorTanimoto>
0.181 

> <ROCS_RefTversky>
0.249 

> <ROCS_RefColorTversky>
0.200 

> <ROCS_RefTverskyCombo>
0.449 

> <ROCS_FitTversky>
1.724 

> <ROCS_FitColorTversky>
0.667 

> <ROCS_FitTverskyCombo>
2.390 

> <ROCS_ColorScore>
-7.142

> <ROCS_Overlap>
2945.610

> <ROCS_Rank>
286                 

$$$$
untitled-dbase-669173_66
  -OEChem-02092406493D

 46 48  0     0  0  0  0  0  0999 V2000
    7.8268   12.1809   24.1833 C   0  0  0  0  0  0  0  0  0  0  0  0
    9.1133   12.0822   23.6141 C   0  0  0  0  0  0  0  0  0  0  0  0
    9.4051   10.7382   23.5958 C   0  0  0  0  0  0  0  0  0  0  0  0
    7.4030   10.8968   24.4812 C   0  0  0  0  0  0  0  0  0  0  0  0
    5.4514   11.5460   25.3026 C   0  0  0  0  0  0  0  0  0  0  0  0
    6.9648   13.3043   24.4760 C   0  0  0  0  0  0  0  0  0  0  0  0
   10.0087   13.1609   23.1223 C   0  0  0  0  0  0  0  0  0  0  0  0
   10.5890   15.3995   21.3115 C   0  0  0  0  0  0  0  0  0  0  0  0
   13.5971   12.5385   20.1626 C   0  0  0  0  0  0  0  0  0  0  0  0
   12.2539   12.4625   19.4445 C   0  0  0  0  0  0  0  0  0  0  0  0
   13.4234   12.8227   21.6509 C   0  0  0  0  0  0  0  0  0  0  0  0
   11.4206   13.7241   19.6725 C   0  0  0  0  0  0  0  0  0  0  0  0
   12.5940   14.0842   21.8931 C   0  0  0  0  0  0  0  0  0  0  0  0
   11.2453   14.0559   21.1611 C   0  0  0  0  0  0  0  0  0  0  0  0
   10.5694    9.9645   23.1377 C   0  0  0  0  0  0  0  0  0  0  0  0
    4.7629   13.9047   25.4134 C   0  0  0  0  0  0  0  0  0  0  0  0
   11.0557   17.7074   21.5101 C   0  0  0  0  0  0  0  0  0  0  0  0
    6.2220   10.5314   25.0419 N   0  0  0  0  0  0  0  0  0  0  0  0
    5.7462   12.8944   25.0571 N   0  0  0  0  0  0  0  0  0  0  0  0
   10.3591   13.0912   21.7836 N   0  0  0  0  0  0  0  0  0  0  0  0
    7.2911   14.4612   24.2326 O   0  0  0  0  0  0  0  0  0  0  0  0
   10.3981   14.0218   23.9070 O   0  0  0  0  0  0  0  0  0  0  0  0
    9.3785   15.5679   21.3717 O   0  0  0  0  0  0  0  0  0  0  0  0
    8.3803   10.0122   24.1168 O   0  0  0  0  0  0  0  0  0  0  0  0
   11.5449   16.3702   21.3671 O   0  0  0  0  0  0  0  0  0  0  0  0
    4.4617   11.3862   25.7600 H   0  0  0  0  0  0  0  0  0  0  0  0
   14.1354   11.5916   20.0319 H   0  0  0  0  0  0  0  0  0  0  0  0
   14.2143   13.3216   19.7077 H   0  0  0  0  0  0  0  0  0  0  0  0
   12.4208   12.3186   18.3703 H   0  0  0  0  0  0  0  0  0  0  0  0
   11.6974   11.5875   19.7984 H   0  0  0  0  0  0  0  0  0  0  0  0
   12.9376   11.9672   22.1337 H   0  0  0  0  0  0  0  0  0  0  0  0
   14.4086   12.9328   22.1193 H   0  0  0  0  0  0  0  0  0  0  0  0
   11.8950   14.5580   19.1395 H   0  0  0  0  0  0  0  0  0  0  0  0
   10.4340   13.5741   19.2136 H   0  0  0  0  0  0  0  0  0  0  0  0
   12.4204   14.1810   22.9732 H   0  0  0  0  0  0  0  0  0  0  0  0
   13.1859   14.9564   21.5880 H   0  0  0  0  0  0  0  0  0  0  0  0
   11.3079    9.8314   23.9476 H   0  0  0  0  0  0  0  0  0  0  0  0
   10.2881    8.9580   22.7777 H   0  0  0  0  0  0  0  0  0  0  0  0
   11.0894   10.4513   22.2924 H   0  0  0  0  0  0  0  0  0  0  0  0
    4.9378   14.2390   26.4467 H   0  0  0  0  0  0  0  0  0  0  0  0
    4.8543   14.7621   24.7304 H   0  0  0  0  0  0  0  0  0  0  0  0
    3.7525   13.4774   25.3325 H   0  0  0  0  0  0  0  0  0  0  0  0
   11.8981   18.4027   21.5442 H   0  0  0  0  0  0  0  0  0  0  0  0
   10.4680   17.7851   22.4283 H   0  0  0  0  0  0  0  0  0  0  0  0
   10.4222   17.9478   20.6530 H   0  0  0  0  0  0  0  0  0  0  0  0
   10.0483   12.3137   21.2106 H   0  0  0  0  0  0  0  0  0  0  0  0
  1  2  1  0  0  0  0
  1  4  2  0  0  0  0
  1  6  1  0  0  0  0
  2  3  2  0  0  0  0
  2  7  1  0  0  0  0
  3 15  1  0  0  0  0
  3 24  1  0  0  0  0
  4 18  1  0  0  0  0
  4 24  1  0  0  0  0
  5 18  2  0  0  0  0
  5 19  1  0  0  0  0
  6 19  1  0  0  0  0
  6 21  2  0  0  0  0
  7 20  1  0  0  0  0
  7 22  2  0  0  0  0
  8 14  1  0  0  0  0
  8 23  2  0  0  0  0
  8 25  1  0  0  0  0
  9 10  1  0  0  0  0
  9 11  1  0  0  0  0
 10 12  1  0  0  0  0
 11 13  1  0  0  0  0
 12 14  1  0  0  0  0
 13 14  1  0  0  0  0
 14 20  1  0  0  0  0
 16 19  1  0  0  0  0
 17 25  1  0  0  0  0
  5 26  1  0  0  0  0
  9 27  1  0  0  0  0
  9 28  1  0  0  0  0
 10 29  1  0  0  0  0
 10 30  1  0  0  0  0
 11 31  1  0  0  0  0
 11 32  1  0  0  0  0
 12 33  1  0  0  0  0
 12 34  1  0  0  0  0
 13 35  1  0  0  0  0
 13 36  1  0  0  0  0
 15 37  1  0  0  0  0
 15 38  1  0  0  0  0
 15 39  1  0  0  0  0
 16 40  1  0  0  0  0
 16 41  1  0  0  0  0
 16 42  1  0  0  0  0
 17 43  1  0  0  0  0
 17 44  1  0  0  0  0
 17 45  1  0  0  0  0
 20 46  1  0  0  0  0
M  END
> <idnumber>
Z240616422

> <heavy_atoms>
25

> <LogS>
-3.788

> <LogP>
1.125

> <rotating_bonds>
4

> <PSA>
101.21

> <hb_acceptors>
4

> <hb_donors>
1

> <Collection>
HTS

> <link>
https://www.enaminestore.com/catalog/Z240616422

> <ROCS_ShapeQuery>
x0446_0A_x1080_0A_x0929_0A_x0812_0A_x0719_0A_x1140_0A_x0528_0A_x0310_0A

> <ROCS_TanimotoCombo>
0.460 

> <ROCS_ShapeTanimoto>
0.261 

> <ROCS_ColorTanimoto>
0.198 

> <ROCS_RefTversky>
0.237 

> <ROCS_RefColorTversky>
0.214 

> <ROCS_RefTverskyCombo>
0.451 

> <ROCS_FitTversky>
1.636 

> <ROCS_FitColorTversky>
0.732 

> <ROCS_FitTverskyCombo>
2.369 

> <ROCS_ColorScore>
-7.645

> <ROCS_Overlap>
2805.349

> <ROCS_Rank>
287                 

$$$$
untitled-dbase-176758_24
  -OEChem-02092406493D

 46 49  0     0  0  0  0  0  0999 V2000
    7.5025   15.9593   20.2594 C   0  0  0  0  0  0  0  0  0  0  0  0
    7.7139   14.6271   19.9221 C   0  0  0  0  0  0  0  0  0  0  0  0
    8.5104   16.6241   20.9391 C   0  0  0  0  0  0  0  0  0  0  0  0
    9.6033   11.8787   23.8795 C   0  0  0  0  0  0  0  0  0  0  0  0
    8.2268   12.1498   24.1655 C   0  0  0  0  0  0  0  0  0  0  0  0
    8.9100   14.0091   20.2698 C   0  0  0  0  0  0  0  0  0  0  0  0
    7.4709   10.9931   24.1037 C   0  0  0  0  0  0  0  0  0  0  0  0
    9.8550   14.7612   20.9488 C   0  0  0  0  0  0  0  0  0  0  0  0
    9.8256   10.5418   23.5936 C   0  0  0  0  0  0  0  0  0  0  0  0
   12.0115   10.7852   23.2550 C   0  0  0  0  0  0  0  0  0  0  0  0
   10.7399   12.7940   23.8580 C   0  0  0  0  0  0  0  0  0  0  0  0
   12.1150   14.7511   21.9842 C   0  0  0  0  0  0  0  0  0  0  0  0
    7.6146   13.4712   24.5277 C   0  0  0  0  0  0  0  0  0  0  0  0
    5.9948   10.9119   24.3396 C   0  0  0  0  0  0  0  0  0  0  0  0
    6.0812   13.4462   24.4296 C   0  0  0  0  0  0  0  0  0  0  0  0
    5.4929   12.1748   25.0545 C   0  0  0  0  0  0  0  0  0  0  0  0
    9.1325   12.5802   19.9070 C   0  0  0  0  0  0  0  0  0  0  0  0
   13.2568   13.7569   22.1705 C   0  0  0  0  0  0  0  0  0  0  0  0
   13.1619   12.9525   23.4601 C   0  0  0  0  0  0  0  0  0  0  0  0
    9.6854   16.0574   21.2937 N   0  0  0  0  0  0  0  0  0  0  0  0
   11.0124    9.9574   23.2761 N   0  0  0  0  0  0  0  0  0  0  0  0
   11.9482   12.1532   23.5222 N   0  0  0  0  0  0  0  0  0  0  0  0
   11.0601   14.1497   21.3037 N   0  0  0  0  0  0  0  0  0  0  0  0
   10.6289   13.9895   24.1134 O   0  0  0  0  0  0  0  0  0  0  0  0
   12.1871   15.9050   22.3927 O   0  0  0  0  0  0  0  0  0  0  0  0
    8.3877    9.6240   23.6835 S   0  0  0  0  0  0  0  0  0  0  0  0
    6.5781   16.4621   19.9993 H   0  0  0  0  0  0  0  0  0  0  0  0
    6.9415   14.0799   19.3886 H   0  0  0  0  0  0  0  0  0  0  0  0
    8.3954   17.6640   21.2254 H   0  0  0  0  0  0  0  0  0  0  0  0
   13.0207   10.4203   23.0083 H   0  0  0  0  0  0  0  0  0  0  0  0
    7.8992   13.7591   25.5457 H   0  0  0  0  0  0  0  0  0  0  0  0
    8.0089   14.2350   23.8461 H   0  0  0  0  0  0  0  0  0  0  0  0
    5.4504   10.7881   23.3965 H   0  0  0  0  0  0  0  0  0  0  0  0
    5.7829   10.0340   24.9625 H   0  0  0  0  0  0  0  0  0  0  0  0
    5.6667   14.3228   24.9440 H   0  0  0  0  0  0  0  0  0  0  0  0
    5.7814   13.5212   23.3783 H   0  0  0  0  0  0  0  0  0  0  0  0
    4.3977   12.2202   24.9971 H   0  0  0  0  0  0  0  0  0  0  0  0
    5.7560   12.1223   26.1169 H   0  0  0  0  0  0  0  0  0  0  0  0
    9.6008   12.5053   18.9178 H   0  0  0  0  0  0  0  0  0  0  0  0
    9.7815   12.0796   20.6375 H   0  0  0  0  0  0  0  0  0  0  0  0
    8.1873   12.0218   19.8874 H   0  0  0  0  0  0  0  0  0  0  0  0
   14.1918   14.3302   22.1773 H   0  0  0  0  0  0  0  0  0  0  0  0
   13.2799   13.0837   21.3048 H   0  0  0  0  0  0  0  0  0  0  0  0
   13.1762   13.6025   24.3407 H   0  0  0  0  0  0  0  0  0  0  0  0
   14.0037   12.2568   23.5324 H   0  0  0  0  0  0  0  0  0  0  0  0
   11.1775   13.1739   21.0402 H   0  0  0  0  0  0  0  0  0  0  0  0
  1  2  2  0  0  0  0
  1  3  1  0  0  0  0
  2  6  1  0  0  0  0
  3 20  2  0  0  0  0
  4  5  1  0  0  0  0
  4  9  2  0  0  0  0
  4 11  1  0  0  0  0
  5  7  2  0  0  0  0
  5 13  1  0  0  0  0
  6  8  2  0  0  0  0
  6 17  1  0  0  0  0
  7 14  1  0  0  0  0
  7 26  1  0  0  0  0
  8 20  1  0  0  0  0
  8 23  1  0  0  0  0
  9 21  1  0  0  0  0
  9 26  1  0  0  0  0
 10 21  2  0  0  0  0
 10 22  1  0  0  0  0
 11 22  1  0  0  0  0
 11 24  2  0  0  0  0
 12 18  1  0  0  0  0
 12 23  1  0  0  0  0
 12 25  2  0  0  0  0
 13 15  1  0  0  0  0
 14 16  1  0  0  0  0
 15 16  1  0  0  0  0
 18 19  1  0  0  0  0
 19 22  1  0  0  0  0
  1 27  1  0  0  0  0
  2 28  1  0  0  0  0
  3 29  1  0  0  0  0
 10 30  1  0  0  0  0
 13 31  1  0  0  0  0
 13 32  1  0  0  0  0
 14 33  1  0  0  0  0
 14 34  1  0  0  0  0
 15 35  1  0  0  0  0
 15 36  1  0  0  0  0
 16 37  1  0  0  0  0
 16 38  1  0  0  0  0
 17 39  1  0  0  0  0
 17 40  1  0  0  0  0
 17 41  1  0  0  0  0
 18 42  1  0  0  0  0
 18 43  1  0  0  0  0
 19 44  1  0  0  0  0
 19 45  1  0  0  0  0
 23 46  1  0  0  0  0
M  END
> <idnumber>
Z183979312

> <heavy_atoms>
26

> <LogS>
-5.08

> <LogP>
2.542

> <rotating_bonds>
4

> <PSA>
74.66

> <hb_acceptors>
4

> <hb_donors>
1

> <Collection>
Legacy

> <link>
https://www.enaminestore.com/catalog/Z183979312

> <ROCS_ShapeQuery>
x0446_0A_x1080_0A_x0929_0A_x0812_0A_x0719_0A_x1140_0A_x0528_0A_x0310_0A

> <ROCS_TanimotoCombo>
0.460 

> <ROCS_ShapeTanimoto>
0.260 

> <ROCS_ColorTanimoto>
0.200 

> <ROCS_RefTversky>
0.236 

> <ROCS_RefColorTversky>
0.215 

> <ROCS_RefTverskyCombo>
0.452 

> <ROCS_FitTversky>
1.605 

> <ROCS_FitColorTversky>
0.738 

> <ROCS_FitTverskyCombo>
2.343 

> <ROCS_ColorScore>
-7.705

> <ROCS_Overlap>
2794.674

> <ROCS_Rank>
288                 

$$$$
untitled-dbase-645886_31
  -OEChem-02092406493D

 54 58  0     1  0  0  0  0  0999 V2000
    1.6534   12.8412   17.8886 C   0  0  0  0  0  0  0  0  0  0  0  0
   12.2557   16.1035   22.1152 C   0  0  0  0  0  0  0  0  0  0  0  0
   11.1654   15.7417   21.3240 C   0  0  0  0  0  0  0  0  0  0  0  0
   12.5834   15.3457   23.2396 C   0  0  0  0  0  0  0  0  0  0  0  0
    2.4049   14.2110   19.7698 C   0  0  0  0  0  0  0  0  0  0  0  0
    2.7658   11.8225   19.8131 C   0  0  0  0  0  0  0  0  0  0  0  0
   10.4028   14.6223   21.6571 C   0  0  0  0  0  0  0  0  0  0  0  0
   11.8208   14.2263   23.5727 C   0  0  0  0  0  0  0  0  0  0  0  0
    3.0157   14.3260   21.0185 C   0  0  0  0  0  0  0  0  0  0  0  0
    3.3765   11.9375   21.0619 C   0  0  0  0  0  0  0  0  0  0  0  0
    2.2799   12.9593   19.1671 C   0  0  0  0  0  0  0  0  0  0  0  0
   10.7305   13.8646   22.7815 C   0  0  0  0  0  0  0  0  0  0  0  0
    3.5015   13.1892   21.6646 C   0  0  0  0  0  0  0  0  0  0  0  0
    6.1423   12.2731   24.0908 C   0  0  0  0  0  0  0  0  0  0  0  0
    9.5975    9.7137   23.7430 C   0  0  0  0  0  0  0  0  0  0  0  0
    9.8649   11.5329   22.0415 C   0  0  0  0  0  0  0  0  0  0  0  0
   10.4528   11.9669   24.4408 C   0  0  0  0  0  0  0  0  0  0  0  0
    7.5726   10.7845   22.7228 C   0  0  0  0  0  0  0  0  0  0  0  0
    8.1551   11.2277   25.1237 C   0  0  0  0  0  0  0  0  0  0  0  0
    8.4133   13.0495   23.4126 C   0  0  0  0  0  0  0  0  0  0  0  0
    9.0131   10.3228   22.4611 C   0  0  2  0  0  0  0  0  0  0  0  0
    9.5966   10.7609   24.8652 C   0  0  1  0  0  0  0  0  0  0  0  0
    9.8905   12.6312   23.1493 C   0  0  0  0  0  0  0  0  0  0  0  0
    7.5591   11.8392   23.8416 C   0  0  0  0  0  0  0  0  0  0  0  0
    4.1603   13.3131   23.0080 C   0  0  0  0  0  0  0  0  0  0  0  0
    1.1445   12.7453   16.8500 N   0  0  0  0  0  0  0  0  0  0  0  0
    5.5227   12.8309   22.9888 N   0  0  0  0  0  0  0  0  0  0  0  0
    5.6475   12.1123   25.2003 O   0  0  0  0  0  0  0  0  0  0  0  0
   12.8502   16.9743   21.8549 H   0  0  0  0  0  0  0  0  0  0  0  0
   10.9108   16.3310   20.4479 H   0  0  0  0  0  0  0  0  0  0  0  0
   13.4329   15.6265   23.8552 H   0  0  0  0  0  0  0  0  0  0  0  0
    2.0294   15.1061   19.2796 H   0  0  0  0  0  0  0  0  0  0  0  0
    2.6774   10.8398   19.3558 H   0  0  0  0  0  0  0  0  0  0  0  0
    9.5549   14.3481   21.0349 H   0  0  0  0  0  0  0  0  0  0  0  0
   12.0835   13.6420   24.4506 H   0  0  0  0  0  0  0  0  0  0  0  0
    3.1079   15.3051   21.4809 H   0  0  0  0  0  0  0  0  0  0  0  0
    3.7538   11.0466   21.5571 H   0  0  0  0  0  0  0  0  0  0  0  0
    9.0086    8.8391   24.0453 H   0  0  0  0  0  0  0  0  0  0  0  0
   10.6198    9.3612   23.5592 H   0  0  0  0  0  0  0  0  0  0  0  0
   10.8885   11.2023   21.8186 H   0  0  0  0  0  0  0  0  0  0  0  0
    9.4706   11.9536   21.1064 H   0  0  0  0  0  0  0  0  0  0  0  0
   10.4826   12.7018   25.2565 H   0  0  0  0  0  0  0  0  0  0  0  0
   11.4906   11.6453   24.2792 H   0  0  0  0  0  0  0  0  0  0  0  0
    7.1376   11.1961   21.8025 H   0  0  0  0  0  0  0  0  0  0  0  0
    6.9478    9.9246   22.9986 H   0  0  0  0  0  0  0  0  0  0  0  0
    7.5458   10.3795   25.4631 H   0  0  0  0  0  0  0  0  0  0  0  0
    8.1390   11.9616   25.9402 H   0  0  0  0  0  0  0  0  0  0  0  0
    8.3776   13.8274   24.1887 H   0  0  0  0  0  0  0  0  0  0  0  0
    7.9883   13.5133   22.5109 H   0  0  0  0  0  0  0  0  0  0  0  0
    9.0196    9.5736   21.6614 H   0  0  0  0  0  0  0  0  0  0  0  0
   10.0105   10.3210   25.7795 H   0  0  0  0  0  0  0  0  0  0  0  0
    4.1772   14.3586   23.3348 H   0  0  0  0  0  0  0  0  0  0  0  0
    3.6143   12.7437   23.7675 H   0  0  0  0  0  0  0  0  0  0  0  0
    6.0498   12.9055   22.1240 H   0  0  0  0  0  0  0  0  0  0  0  0
  1 11  1  0  0  0  0
  1 26  3  0  0  0  0
  2  3  1  0  0  0  0
  2  4  2  0  0  0  0
  3  7  2  0  0  0  0
  4  8  1  0  0  0  0
  5  9  2  0  0  0  0
  5 11  1  0  0  0  0
  6 10  1  0  0  0  0
  6 11  2  0  0  0  0
  7 12  1  0  0  0  0
  8 12  2  0  0  0  0
  9 13  1  0  0  0  0
 10 13  2  0  0  0  0
 12 23  1  0  0  0  0
 13 25  1  0  0  0  0
 14 24  1  0  0  0  0
 14 27  1  0  0  0  0
 14 28  2  0  0  0  0
 15 21  1  0  0  0  0
 15 22  1  0  0  0  0
 16 21  1  0  0  0  0
 16 23  1  0  0  0  0
 17 22  1  0  0  0  0
 17 23  1  0  0  0  0
 18 21  1  0  0  0  0
 18 24  1  0  0  0  0
 19 22  1  0  0  0  0
 19 24  1  0  0  0  0
 20 23  1  0  0  0  0
 20 24  1  0  0  0  0
 25 27  1  0  0  0  0
  2 29  1  0  0  0  0
  3 30  1  0  0  0  0
  4 31  1  0  0  0  0
  5 32  1  0  0  0  0
  6 33  1  0  0  0  0
  7 34  1  0  0  0  0
  8 35  1  0  0  0  0
  9 36  1  0  0  0  0
 10 37  1  0  0  0  0
 15 38  1  0  0  0  0
 15 39  1  0  0  0  0
 16 40  1  0  0  0  0
 16 41  1  0  0  0  0
 17 42  1  0  0  0  0
 17 43  1  0  0  0  0
 18 44  1  0  0  0  0
 18 45  1  0  0  0  0
 19 46  1  0  0  0  0
 19 47  1  0  0  0  0
 20 48  1  0  0  0  0
 20 49  1  0  0  0  0
 21 50  1  0  0  0  0
 22 51  1  0  0  0  0
 25 52  1  0  0  0  0
 25 53  1  0  0  0  0
 27 54  1  0  0  0  0
M  END
> <idnumber>
Z363816730

> <heavy_atoms>
28

> <LogS>
-6.174

> <LogP>
4.45

> <rotating_bonds>
4

> <PSA>
52.89

> <hb_acceptors>
2

> <hb_donors>
1

> <Collection>
Advanced

> <link>
https://www.enaminestore.com/catalog/Z363816730

> <ROCS_ShapeQuery>
x0446_0A_x1080_0A_x0929_0A_x0812_0A_x0719_0A_x1140_0A_x0528_0A_x0310_0A

> <ROCS_TanimotoCombo>
0.460 

> <ROCS_ShapeTanimoto>
0.275 

> <ROCS_ColorTanimoto>
0.184 

> <ROCS_RefTversky>
0.249 

> <ROCS_RefColorTversky>
0.211 

> <ROCS_RefTverskyCombo>
0.460 

> <ROCS_FitTversky>
1.606 

> <ROCS_FitColorTversky>
0.594 

> <ROCS_FitTverskyCombo>
2.200 

> <ROCS_ColorScore>
-7.565

> <ROCS_Overlap>
2950.572

> <ROCS_Rank>
289                 

$$$$
untitled-dbase-1019286_16
  -OEChem-02092406493D

 36 39  0     1  0  0  0  0  0999 V2000
    6.6025   13.2541   23.9096 C   0  0  0  0  0  0  0  0  0  0  0  0
   10.8812   14.8423   22.8065 C   0  0  0  0  0  0  0  0  0  0  0  0
    5.4994   12.9770   24.7049 C   0  0  0  0  0  0  0  0  0  0  0  0
    6.4636   11.0843   25.5845 C   0  0  0  0  0  0  0  0  0  0  0  0
   11.3207   16.1358   22.6645 C   0  0  0  0  0  0  0  0  0  0  0  0
    7.6742   12.3667   23.9539 C   0  0  0  0  0  0  0  0  0  0  0  0
    7.6232   11.2720   24.8439 C   0  0  0  0  0  0  0  0  0  0  0  0
    9.7889   14.7428   21.9241 C   0  0  0  0  0  0  0  0  0  0  0  0
    9.5473   10.1948   22.6922 C   0  0  0  0  0  0  0  0  0  0  0  0
    8.7004    9.4590   23.7523 C   0  0  0  0  0  0  0  0  0  0  0  0
    9.9786   11.1070   24.8517 C   0  0  0  0  0  0  0  0  0  0  0  0
    9.9675   11.5082   23.3765 C   0  0  2  0  0  0  0  0  0  0  0  0
   10.5648   18.0693   21.2607 C   0  0  0  0  0  0  0  0  0  0  0  0
    5.3977   11.9125   25.5336 N   0  0  0  0  0  0  0  0  0  0  0  0
    9.5490   15.8824   21.2700 N   0  0  0  0  0  0  0  0  0  0  0  0
   10.4967   16.7102   21.7418 N   0  0  0  0  0  0  0  0  0  0  0  0
    8.7113   10.3603   24.9246 N   0  0  1  0  0  0  0  0  0  0  0  0
    8.9129   12.5768   23.2071 N   0  0  1  0  0  0  0  0  0  0  0  0
    7.4346   13.7420   21.4458 O   0  0  0  0  0  0  0  0  0  0  0  0
    9.4744   12.4679   20.6952 O   0  0  0  0  0  0  0  0  0  0  0  0
    8.7979   13.3032   21.6674 S   0  0  0  0  0  0  0  0  0  0  0  0
    6.6020   14.1408   23.2876 H   0  0  0  0  0  0  0  0  0  0  0  0
   11.2933   14.0862   23.4587 H   0  0  0  0  0  0  0  0  0  0  0  0
    4.6362   13.6354   24.6976 H   0  0  0  0  0  0  0  0  0  0  0  0
    6.3573   10.2437   26.2630 H   0  0  0  0  0  0  0  0  0  0  0  0
   12.1290   16.6809   23.1321 H   0  0  0  0  0  0  0  0  0  0  0  0
   10.4343    9.5948   22.4579 H   0  0  0  0  0  0  0  0  0  0  0  0
    8.9864   10.3522   21.7663 H   0  0  0  0  0  0  0  0  0  0  0  0
    7.6921    9.2263   23.3887 H   0  0  0  0  0  0  0  0  0  0  0  0
    9.1807    8.5116   24.0227 H   0  0  0  0  0  0  0  0  0  0  0  0
   10.8175   10.4376   25.0777 H   0  0  0  0  0  0  0  0  0  0  0  0
   10.0183   11.9546   25.5470 H   0  0  0  0  0  0  0  0  0  0  0  0
   10.9382   11.8812   23.0377 H   0  0  0  0  0  0  0  0  0  0  0  0
   11.2224   18.0855   20.3876 H   0  0  0  0  0  0  0  0  0  0  0  0
    9.5617   18.4105   20.9901 H   0  0  0  0  0  0  0  0  0  0  0  0
   10.9610   18.7130   22.0511 H   0  0  0  0  0  0  0  0  0  0  0  0
  1  3  2  0  0  0  0
  1  6  1  0  0  0  0
  2  5  2  0  0  0  0
  2  8  1  0  0  0  0
  3 14  1  0  0  0  0
  4  7  1  0  0  0  0
  4 14  2  0  0  0  0
  5 16  1  0  0  0  0
  6  7  2  0  0  0  0
  6 18  1  0  0  0  0
  7 17  1  0  0  0  0
  8 15  2  0  0  0  0
  8 21  1  0  0  0  0
  9 10  1  0  0  0  0
  9 12  1  0  0  0  0
 10 17  1  0  0  0  0
 11 12  1  0  0  0  0
 11 17  1  0  0  0  0
 12 18  1  0  0  0  0
 13 16  1  0  0  0  0
 15 16  1  0  0  0  0
 18 21  1  0  0  0  0
 19 21  2  0  0  0  0
 20 21  2  0  0  0  0
  1 22  1  0  0  0  0
  2 23  1  0  0  0  0
  3 24  1  0  0  0  0
  4 25  1  0  0  0  0
  5 26  1  0  0  0  0
  9 27  1  0  0  0  0
  9 28  1  0  0  0  0
 10 29  1  0  0  0  0
 10 30  1  0  0  0  0
 11 31  1  0  0  0  0
 11 32  1  0  0  0  0
 12 33  1  0  0  0  0
 13 34  1  0  0  0  0
 13 35  1  0  0  0  0
 13 36  1  0  0  0  0
M  END
> <idnumber>
Z3294676473

> <heavy_atoms>
21

> <LogS>
-1.886

> <LogP>
0.37

> <rotating_bonds>
1

> <PSA>
71.33

> <hb_acceptors>
5

> <hb_donors>
0

> <Collection>
Advanced

> <link>
https://www.enaminestore.com/catalog/Z3294676473

> <ROCS_ShapeQuery>
x0446_0A_x1080_0A_x0929_0A_x0812_0A_x0719_0A_x1140_0A_x0528_0A_x0310_0A

> <ROCS_TanimotoCombo>
0.459 

> <ROCS_ShapeTanimoto>
0.243 

> <ROCS_ColorTanimoto>
0.216 

> <ROCS_RefTversky>
0.221 

> <ROCS_RefColorTversky>
0.247 

> <ROCS_RefTverskyCombo>
0.469 

> <ROCS_FitTversky>
1.696 

> <ROCS_FitColorTversky>
0.631 

> <ROCS_FitTverskyCombo>
2.327 

> <ROCS_ColorScore>
-8.894

> <ROCS_Overlap>
2614.345

> <ROCS_Rank>
290                 

$$$$
untitled-dbase-323416_19
  -OEChem-02092406493D

 47 51  0     0  0  0  0  0  0999 V2000
   12.0064    7.6398   23.1244 C   0  0  0  0  0  0  0  0  0  0  0  0
   10.9123    8.4841   23.2774 C   0  0  0  0  0  0  0  0  0  0  0  0
   11.8321   14.2414   23.9977 C   0  0  0  0  0  0  0  0  0  0  0  0
   13.1316   14.5734   23.6312 C   0  0  0  0  0  0  0  0  0  0  0  0
   13.2663    8.1591   23.3745 C   0  0  0  0  0  0  0  0  0  0  0  0
   12.4090   10.2258   23.8961 C   0  0  0  0  0  0  0  0  0  0  0  0
    7.9631   12.4131   24.1316 C   0  0  0  0  0  0  0  0  0  0  0  0
   11.1088    9.8033   23.6702 C   0  0  0  0  0  0  0  0  0  0  0  0
    6.7107   13.0739   24.3666 C   0  0  0  0  0  0  0  0  0  0  0  0
   10.7780   14.5299   23.1380 C   0  0  0  0  0  0  0  0  0  0  0  0
    5.7269   12.1822   24.7531 C   0  0  0  0  0  0  0  0  0  0  0  0
   13.3225   15.1878   22.4041 C   0  0  0  0  0  0  0  0  0  0  0  0
   11.0742   15.1464   21.9330 C   0  0  0  0  0  0  0  0  0  0  0  0
    9.2281   12.8709   23.7445 C   0  0  0  0  0  0  0  0  0  0  0  0
    7.8502   11.0445   24.3463 C   0  0  0  0  0  0  0  0  0  0  0  0
    9.9952   10.7029   23.8370 C   0  0  0  0  0  0  0  0  0  0  0  0
    6.4434   14.5462   24.2554 C   0  0  0  0  0  0  0  0  0  0  0  0
    4.3056   12.5430   25.0538 C   0  0  0  0  0  0  0  0  0  0  0  0
    4.9390   14.8551   24.2116 C   0  0  0  0  0  0  0  0  0  0  0  0
    4.1667   14.0573   25.2712 C   0  0  0  0  0  0  0  0  0  0  0  0
   14.7038   15.5581   21.9783 C   0  0  0  0  0  0  0  0  0  0  0  0
   13.4967    9.4349   23.7577 N   0  0  0  0  0  0  0  0  0  0  0  0
   12.3237   15.4839   21.5424 N   0  0  0  0  0  0  0  0  0  0  0  0
   10.2516   12.0030   23.5966 N   0  0  0  0  0  0  0  0  0  0  0  0
    8.8358   10.1357   24.2133 N   0  0  0  0  0  0  0  0  0  0  0  0
    9.9665   15.4300   21.0703 N   0  3  0  0  0  0  0  0  0  0  0  0
    9.6236   14.5651   20.2372 O   0  5  0  0  0  0  0  0  0  0  0  0
    9.3883   16.5309   21.1857 O   0  0  0  0  0  0  0  0  0  0  0  0
    9.4914   14.1976   23.5070 O   0  0  0  0  0  0  0  0  0  0  0  0
    6.2821   10.5762   24.8198 S   0  0  0  0  0  0  0  0  0  0  0  0
   11.8777    6.6075   22.8199 H   0  0  0  0  0  0  0  0  0  0  0  0
    9.9130    8.1006   23.0870 H   0  0  0  0  0  0  0  0  0  0  0  0
   11.6483   13.7585   24.9534 H   0  0  0  0  0  0  0  0  0  0  0  0
   13.9627   14.3537   24.2928 H   0  0  0  0  0  0  0  0  0  0  0  0
   14.1524    7.5414   23.2690 H   0  0  0  0  0  0  0  0  0  0  0  0
   12.6299   11.2433   24.2058 H   0  0  0  0  0  0  0  0  0  0  0  0
    6.8921   15.0485   25.1213 H   0  0  0  0  0  0  0  0  0  0  0  0
    6.9144   14.9559   23.3551 H   0  0  0  0  0  0  0  0  0  0  0  0
    3.6764   12.2393   24.2079 H   0  0  0  0  0  0  0  0  0  0  0  0
    3.9432   12.0136   25.9423 H   0  0  0  0  0  0  0  0  0  0  0  0
    4.7816   15.9291   24.3621 H   0  0  0  0  0  0  0  0  0  0  0  0
    4.5423   14.6091   23.2182 H   0  0  0  0  0  0  0  0  0  0  0  0
    3.1066   14.3341   25.2498 H   0  0  0  0  0  0  0  0  0  0  0  0
    4.5472   14.3223   26.2661 H   0  0  0  0  0  0  0  0  0  0  0  0
   15.1668   14.7318   21.4256 H   0  0  0  0  0  0  0  0  0  0  0  0
   14.6968   16.4471   21.3349 H   0  0  0  0  0  0  0  0  0  0  0  0
   15.3361   15.7964   22.8433 H   0  0  0  0  0  0  0  0  0  0  0  0
  1  2  2  0  0  0  0
  1  5  1  0  0  0  0
  2  8  1  0  0  0  0
  3  4  2  0  0  0  0
  3 10  1  0  0  0  0
  4 12  1  0  0  0  0
  5 22  2  0  0  0  0
  6  8  2  0  0  0  0
  6 22  1  0  0  0  0
  7  9  1  0  0  0  0
  7 14  2  0  0  0  0
  7 15  1  0  0  0  0
  8 16  1  0  0  0  0
  9 11  2  0  0  0  0
  9 17  1  0  0  0  0
 10 13  2  0  0  0  0
 10 29  1  0  0  0  0
 11 18  1  0  0  0  0
 11 30  1  0  0  0  0
 12 21  1  0  0  0  0
 12 23  2  0  0  0  0
 13 23  1  0  0  0  0
 13 26  1  0  0  0  0
 14 24  1  0  0  0  0
 14 29  1  0  0  0  0
 15 25  2  0  0  0  0
 15 30  1  0  0  0  0
 16 24  2  0  0  0  0
 16 25  1  0  0  0  0
 17 19  1  0  0  0  0
 18 20  1  0  0  0  0
 19 20  1  0  0  0  0
 26 27  1  0  0  0  0
 26 28  2  0  0  0  0
  1 31  1  0  0  0  0
  2 32  1  0  0  0  0
  3 33  1  0  0  0  0
  4 34  1  0  0  0  0
  5 35  1  0  0  0  0
  6 36  1  0  0  0  0
 17 37  1  0  0  0  0
 17 38  1  0  0  0  0
 18 39  1  0  0  0  0
 18 40  1  0  0  0  0
 19 41  1  0  0  0  0
 19 42  1  0  0  0  0
 20 43  1  0  0  0  0
 20 44  1  0  0  0  0
 21 45  1  0  0  0  0
 21 46  1  0  0  0  0
 21 47  1  0  0  0  0
M  CHG  2  26   1  27  -1
M  END
> <idnumber>
Z31110963

> <heavy_atoms>
30

> <LogS>
-7.27

> <LogP>
3.892

> <rotating_bonds>
4

> <PSA>
103.93

> <hb_acceptors>
6

> <hb_donors>
0

> <Collection>
Legacy

> <link>
https://www.enaminestore.com/catalog/Z31110963

> <ROCS_ShapeQuery>
x0446_0A_x1080_0A_x0929_0A_x0812_0A_x0719_0A_x1140_0A_x0528_0A_x0310_0A

> <ROCS_TanimotoCombo>
0.459 

> <ROCS_ShapeTanimoto>
0.270 

> <ROCS_ColorTanimoto>
0.190 

> <ROCS_RefTversky>
0.248 

> <ROCS_RefColorTversky>
0.218 

> <ROCS_RefTverskyCombo>
0.466 

> <ROCS_FitTversky>
1.499 

> <ROCS_FitColorTversky>
0.590 

> <ROCS_FitTverskyCombo>
2.088 

> <ROCS_ColorScore>
-7.849

> <ROCS_Overlap>
2930.017

> <ROCS_Rank>
291                 

$$$$
untitled-dbase-1061682_0
  -OEChem-02092406493D

 44 47  0     1  0  0  0  0  0999 V2000
    5.0899   13.8591   20.2526 C   0  0  0  0  0  0  0  0  0  0  0  0
    5.9407   14.6155   19.4466 C   0  0  0  0  0  0  0  0  0  0  0  0
    5.4676   13.5370   21.5561 C   0  0  0  0  0  0  0  0  0  0  0  0
    7.1693   15.0497   19.9441 C   0  0  0  0  0  0  0  0  0  0  0  0
   12.2351   14.5320   20.8095 C   0  0  0  0  0  0  0  0  0  0  0  0
    6.6962   13.9712   22.0537 C   0  0  0  0  0  0  0  0  0  0  0  0
    7.5471   14.7276   21.2477 C   0  0  0  0  0  0  0  0  0  0  0  0
   11.1137   15.0458   21.4265 C   0  0  0  0  0  0  0  0  0  0  0  0
   12.4565   15.0094   23.1602 C   0  0  0  0  0  0  0  0  0  0  0  0
    9.6675   11.7804   22.3481 C   0  0  0  0  0  0  0  0  0  0  0  0
    7.0742   13.6210   23.4280 C   0  0  0  0  0  0  0  0  0  0  0  0
    8.1031   10.1357   23.3682 C   0  0  0  0  0  0  0  0  0  0  0  0
    8.1692   10.5195   24.8584 C   0  0  0  0  0  0  0  0  0  0  0  0
    9.8385   12.4243   24.7821 C   0  0  0  0  0  0  0  0  0  0  0  0
    8.1959   11.4662   22.6193 C   0  0  1  0  0  0  0  0  0  0  0  0
    8.3581   12.0402   24.8692 C   0  0  1  0  0  0  0  0  0  0  0  0
   12.9623   15.1658   24.5413 C   0  0  0  0  0  0  0  0  0  0  0  0
    9.7975   15.3236   20.7617 C   0  0  0  0  0  0  0  0  0  0  0  0
   11.2387   15.3198   22.7745 N   0  0  0  0  0  0  0  0  0  0  0  0
   10.4098   12.1555   23.4615 N   0  0  0  0  0  0  0  0  0  0  0  0
    7.7664   12.4387   23.6077 N   0  0  0  0  0  0  0  0  0  0  0  0
   10.1780   11.5582   21.2502 O   0  0  0  0  0  0  0  0  0  0  0  0
    6.7431   14.3989   24.3194 O   0  0  0  0  0  0  0  0  0  0  0  0
    8.7508   15.1627   21.7165 O   0  0  0  0  0  0  0  0  0  0  0  0
   13.5040   14.3834   21.9536 S   0  0  0  0  0  0  0  0  0  0  0  0
    4.1331   13.5211   19.8648 H   0  0  0  0  0  0  0  0  0  0  0  0
    5.6462   14.8654   18.4316 H   0  0  0  0  0  0  0  0  0  0  0  0
    4.7963   12.9474   22.1753 H   0  0  0  0  0  0  0  0  0  0  0  0
    7.8274   15.6387   19.3111 H   0  0  0  0  0  0  0  0  0  0  0  0
   12.3690   14.2459   19.7758 H   0  0  0  0  0  0  0  0  0  0  0  0
    8.9080    9.4406   23.1061 H   0  0  0  0  0  0  0  0  0  0  0  0
    7.1465    9.6428   23.1609 H   0  0  0  0  0  0  0  0  0  0  0  0
    7.2203   10.2547   25.3399 H   0  0  0  0  0  0  0  0  0  0  0  0
    8.9690    9.9847   25.3806 H   0  0  0  0  0  0  0  0  0  0  0  0
    9.9629   13.4991   24.9550 H   0  0  0  0  0  0  0  0  0  0  0  0
   10.4436   11.8917   25.5226 H   0  0  0  0  0  0  0  0  0  0  0  0
    7.6192   11.5021   21.6925 H   0  0  0  0  0  0  0  0  0  0  0  0
    7.8764   12.5206   25.7262 H   0  0  0  0  0  0  0  0  0  0  0  0
   12.7835   14.2540   25.1323 H   0  0  0  0  0  0  0  0  0  0  0  0
   14.0445   15.3744   24.5612 H   0  0  0  0  0  0  0  0  0  0  0  0
   12.4777   16.0071   25.0633 H   0  0  0  0  0  0  0  0  0  0  0  0
    9.7662   16.3445   20.3660 H   0  0  0  0  0  0  0  0  0  0  0  0
    9.6316   14.6340   19.9270 H   0  0  0  0  0  0  0  0  0  0  0  0
   11.4147   12.2494   23.3516 H   0  0  0  0  0  0  0  0  0  0  0  0
  1  2  1  0  0  0  0
  1  3  2  0  0  0  0
  2  4  2  0  0  0  0
  3  6  1  0  0  0  0
  4  7  1  0  0  0  0
  5  8  2  0  0  0  0
  5 25  1  0  0  0  0
  6  7  2  0  0  0  0
  6 11  1  0  0  0  0
  7 24  1  0  0  0  0
  8 18  1  0  0  0  0
  8 19  1  0  0  0  0
  9 17  1  0  0  0  0
  9 19  2  0  0  0  0
  9 25  1  0  0  0  0
 10 15  1  0  0  0  0
 10 20  1  0  0  0  0
 10 22  2  0  0  0  0
 11 21  1  0  0  0  0
 11 23  2  0  0  0  0
 12 13  1  0  0  0  0
 12 15  1  0  0  0  0
 13 16  1  0  0  0  0
 14 16  1  0  0  0  0
 14 20  1  0  0  0  0
 15 21  1  0  0  0  0
 16 21  1  0  0  0  0
 18 24  1  0  0  0  0
  1 26  1  0  0  0  0
  2 27  1  0  0  0  0
  3 28  1  0  0  0  0
  4 29  1  0  0  0  0
  5 30  1  0  0  0  0
 12 31  1  0  0  0  0
 12 32  1  0  0  0  0
 13 33  1  0  0  0  0
 13 34  1  0  0  0  0
 14 35  1  0  0  0  0
 14 36  1  0  0  0  0
 15 37  1  0  0  0  0
 16 38  1  0  0  0  0
 17 39  1  0  0  0  0
 17 40  1  0  0  0  0
 17 41  1  0  0  0  0
 18 42  1  0  0  0  0
 18 43  1  0  0  0  0
 20 44  1  0  0  0  0
M  END
> <idnumber>
Z3857244882

> <heavy_atoms>
25

> <LogS>
-3.262

> <LogP>
1.705

> <rotating_bonds>
4

> <PSA>
71.53

> <hb_acceptors>
4

> <hb_donors>
1

> <Collection>
Advanced

> <link>
https://www.enaminestore.com/catalog/Z3857244882

> <ROCS_ShapeQuery>
x0446_0A_x1080_0A_x0929_0A_x0812_0A_x0719_0A_x1140_0A_x0528_0A_x0310_0A

> <ROCS_TanimotoCombo>
0.459 

> <ROCS_ShapeTanimoto>
0.243 

> <ROCS_ColorTanimoto>
0.216 

> <ROCS_RefTversky>
0.224 

> <ROCS_RefColorTversky>
0.247 

> <ROCS_RefTverskyCombo>
0.471 

> <ROCS_FitTversky>
1.552 

> <ROCS_FitColorTversky>
0.632 

> <ROCS_FitTverskyCombo>
2.184 

> <ROCS_ColorScore>
-8.894

> <ROCS_Overlap>
2646.599

> <ROCS_Rank>
292                 

$$$$
untitled-dbase-1070883_134
  -OEChem-02092406493D

 45 47  0     1  0  0  0  0  0999 V2000
    6.3467   14.5909   21.3941 C   0  0  0  0  0  0  0  0  0  0  0  0
    7.9540   16.3438   21.4153 C   0  0  0  0  0  0  0  0  0  0  0  0
    8.1734   12.2453   24.4174 C   0  0  0  0  0  0  0  0  0  0  0  0
    6.6265   15.9507   21.4709 C   0  0  0  0  0  0  0  0  0  0  0  0
    7.3881   13.6786   21.2659 C   0  0  0  0  0  0  0  0  0  0  0  0
    9.3803   12.0971   23.7838 C   0  0  0  0  0  0  0  0  0  0  0  0
    7.5773   10.9670   24.3637 C   0  0  0  0  0  0  0  0  0  0  0  0
    8.6815   14.1734   21.2193 C   0  0  0  0  0  0  0  0  0  0  0  0
   10.3961   13.0712   23.5387 C   0  0  0  0  0  0  0  0  0  0  0  0
    7.4972   13.3980   25.0550 C   0  0  0  0  0  0  0  0  0  0  0  0
    6.2490   10.6872   24.9795 C   0  0  2  0  0  0  0  0  0  0  0  0
    6.3941   12.8735   26.0038 C   0  0  1  0  0  0  0  0  0  0  0  0
    5.3195    9.9000   24.0644 C   0  0  0  0  0  0  0  0  0  0  0  0
    5.5031   14.0110   26.4819 C   0  0  0  0  0  0  0  0  0  0  0  0
   10.5193   10.1288   22.7127 C   0  0  0  0  0  0  0  0  0  0  0  0
   12.1266   13.8165   21.8695 C   0  0  0  0  0  0  0  0  0  0  0  0
    9.8560   13.2483   21.0818 C   0  0  0  0  0  0  0  0  0  0  0  0
    8.9924   15.4871   21.2911 N   0  0  0  0  0  0  0  0  0  0  0  0
    8.3532   10.0619   23.7633 N   0  0  0  0  0  0  0  0  0  0  0  0
    9.4373   10.7823   23.4124 N   0  0  0  0  0  0  0  0  0  0  0  0
   10.7821   13.3696   22.2056 N   0  0  0  0  0  0  0  0  0  0  0  0
   10.9088   13.6457   24.5235 O   0  0  0  0  0  0  0  0  0  0  0  0
    5.5578   11.9176   25.3177 O   0  0  0  0  0  0  0  0  0  0  0  0
    5.3684   17.1053   21.6300 Cl  0  0  0  0  0  0  0  0  0  0  0  0
    7.0396   11.9967   21.1707 Cl  0  0  0  0  0  0  0  0  0  0  0  0
    5.3163   14.2443   21.4347 H   0  0  0  0  0  0  0  0  0  0  0  0
    8.2372   17.3905   21.4707 H   0  0  0  0  0  0  0  0  0  0  0  0
    8.2089   14.0200   25.6084 H   0  0  0  0  0  0  0  0  0  0  0  0
    7.0504   14.0122   24.2633 H   0  0  0  0  0  0  0  0  0  0  0  0
    6.3938   10.1271   25.9115 H   0  0  0  0  0  0  0  0  0  0  0  0
    6.8396   12.3806   26.8778 H   0  0  0  0  0  0  0  0  0  0  0  0
    5.1651   10.4438   23.1324 H   0  0  0  0  0  0  0  0  0  0  0  0
    4.3553    9.7513   24.5509 H   0  0  0  0  0  0  0  0  0  0  0  0
    5.7553    8.9268   23.8380 H   0  0  0  0  0  0  0  0  0  0  0  0
    5.0493   14.5155   25.6282 H   0  0  0  0  0  0  0  0  0  0  0  0
    6.0910   14.7349   27.0473 H   0  0  0  0  0  0  0  0  0  0  0  0
    4.7112   13.6222   27.1233 H   0  0  0  0  0  0  0  0  0  0  0  0
   11.2165    9.7386   23.4588 H   0  0  0  0  0  0  0  0  0  0  0  0
   10.1189    9.3154   22.1013 H   0  0  0  0  0  0  0  0  0  0  0  0
   11.0188   10.8528   22.0628 H   0  0  0  0  0  0  0  0  0  0  0  0
   12.7592   12.9439   21.6492 H   0  0  0  0  0  0  0  0  0  0  0  0
   12.0852   14.4714   20.9867 H   0  0  0  0  0  0  0  0  0  0  0  0
   12.5512   14.3720   22.7186 H   0  0  0  0  0  0  0  0  0  0  0  0
    9.5226   12.2061   21.0305 H   0  0  0  0  0  0  0  0  0  0  0  0
   10.4149   13.4566   20.1635 H   0  0  0  0  0  0  0  0  0  0  0  0
  1  4  2  0  0  0  0
  1  5  1  0  0  0  0
  2  4  1  0  0  0  0
  2 18  2  0  0  0  0
  3  6  2  0  0  0  0
  3  7  1  0  0  0  0
  3 10  1  0  0  0  0
  4 24  1  0  0  0  0
  5  8  2  0  0  0  0
  5 25  1  0  0  0  0
  6  9  1  0  0  0  0
  6 20  1  0  0  0  0
  7 11  1  0  0  0  0
  7 19  2  0  0  0  0
  8 17  1  0  0  0  0
  8 18  1  0  0  0  0
  9 21  1  0  0  0  0
  9 22  2  0  0  0  0
 10 12  1  0  0  0  0
 11 13  1  6  0  0  0
 11 23  1  0  0  0  0
 12 14  1  6  0  0  0
 12 23  1  0  0  0  0
 15 20  1  0  0  0  0
 16 21  1  0  0  0  0
 17 21  1  0  0  0  0
 19 20  1  0  0  0  0
  1 26  1  0  0  0  0
  2 27  1  0  0  0  0
 10 28  1  0  0  0  0
 10 29  1  0  0  0  0
 11 30  1  0  0  0  0
 12 31  1  0  0  0  0
 13 32  1  0  0  0  0
 13 33  1  0  0  0  0
 13 34  1  0  0  0  0
 14 35  1  0  0  0  0
 14 36  1  0  0  0  0
 14 37  1  0  0  0  0
 15 38  1  0  0  0  0
 15 39  1  0  0  0  0
 15 40  1  0  0  0  0
 16 41  1  0  0  0  0
 16 42  1  0  0  0  0
 16 43  1  0  0  0  0
 17 44  1  0  0  0  0
 17 45  1  0  0  0  0
M  END
> <idnumber>
Z4107122868

> <heavy_atoms>
25

> <LogS>
-2.977

> <LogP>
1.522

> <rotating_bonds>
3

> <PSA>
60.25

> <hb_acceptors>
4

> <hb_donors>
0

> <Collection>
HTS

> <link>
https://www.enaminestore.com/catalog/Z4107122868

> <ROCS_ShapeQuery>
x0446_0A_x1080_0A_x0929_0A_x0812_0A_x0719_0A_x1140_0A_x0528_0A_x0310_0A

> <ROCS_TanimotoCombo>
0.459 

> <ROCS_ShapeTanimoto>
0.267 

> <ROCS_ColorTanimoto>
0.192 

> <ROCS_RefTversky>
0.241 

> <ROCS_RefColorTversky>
0.199 

> <ROCS_RefTverskyCombo>
0.441 

> <ROCS_FitTversky>
1.693 

> <ROCS_FitColorTversky>
0.835 

> <ROCS_FitTverskyCombo>
2.528 

> <ROCS_ColorScore>
-7.119

> <ROCS_Overlap>
2848.884

> <ROCS_Rank>
293                 

$$$$
untitled-dbase-1153906_73
  -OEChem-02092406493D

 52 56  0     1  0  0  0  0  0999 V2000
   13.1579   14.8470   22.4788 C   0  0  0  0  0  0  0  0  0  0  0  0
   12.5221   13.6069   22.3650 C   0  0  0  0  0  0  0  0  0  0  0  0
   12.4571   16.0438   22.2923 C   0  0  0  0  0  0  0  0  0  0  0  0
   11.1576   13.5187   22.0596 C   0  0  0  0  0  0  0  0  0  0  0  0
   10.4438   14.7110   21.8703 C   0  0  0  0  0  0  0  0  0  0  0  0
   11.1021   15.9272   21.9896 C   0  0  0  0  0  0  0  0  0  0  0  0
   10.4966   12.2125   21.9419 C   0  0  0  0  0  0  0  0  0  0  0  0
    5.8951   11.7288   24.2179 C   0  0  0  0  0  0  0  0  0  0  0  0
    2.7329   12.0736   23.5812 C   0  0  0  0  0  0  0  0  0  0  0  0
    2.6575   10.5594   23.5012 C   0  0  0  0  0  0  0  0  0  0  0  0
    3.9927   12.3967   22.7900 C   0  0  0  0  0  0  0  0  0  0  0  0
    4.1069   10.1053   23.6425 C   0  0  0  0  0  0  0  0  0  0  0  0
    9.5708    9.8921   24.5345 C   0  0  0  0  0  0  0  0  0  0  0  0
    9.8426   11.1646   25.3585 C   0  0  0  0  0  0  0  0  0  0  0  0
    7.7541   10.6950   22.9673 C   0  0  0  0  0  0  0  0  0  0  0  0
    8.1979   12.7860   24.3262 C   0  0  0  0  0  0  0  0  0  0  0  0
    4.9578   11.2620   23.1192 C   0  0  0  0  0  0  0  0  0  0  0  0
    9.2544   10.4020   23.1240 C   0  0  1  0  0  0  0  0  0  0  0  0
    9.6643   12.3195   24.3644 C   0  0  2  0  0  0  0  0  0  0  0  0
   10.2236   18.2782   21.7367 C   0  0  0  0  0  0  0  0  0  0  0  0
    9.1265   14.9347   21.5679 N   0  0  0  0  0  0  0  0  0  0  0  0
    8.9384   16.2479   21.4942 N   0  0  0  0  0  0  0  0  0  0  0  0
   10.1173   16.8404   21.7460 N   0  0  0  0  0  0  0  0  0  0  0  0
    9.9415   11.6775   23.0886 N   0  0  0  0  0  0  0  0  0  0  0  0
    7.2610   11.7124   23.9189 N   0  0  0  0  0  0  0  0  0  0  0  0
   10.4796   11.6878   20.8307 O   0  0  0  0  0  0  0  0  0  0  0  0
    5.4290   12.0993   25.2982 O   0  0  0  0  0  0  0  0  0  0  0  0
   14.2182   14.8834   22.7171 H   0  0  0  0  0  0  0  0  0  0  0  0
   13.1048   12.7010   22.5181 H   0  0  0  0  0  0  0  0  0  0  0  0
   12.9484   17.0059   22.3802 H   0  0  0  0  0  0  0  0  0  0  0  0
    1.8449   12.5580   23.1653 H   0  0  0  0  0  0  0  0  0  0  0  0
    2.8447   12.3947   24.6234 H   0  0  0  0  0  0  0  0  0  0  0  0
    2.0116   10.1315   24.2734 H   0  0  0  0  0  0  0  0  0  0  0  0
    2.2647   10.2539   22.5239 H   0  0  0  0  0  0  0  0  0  0  0  0
    3.7638   12.3741   21.7174 H   0  0  0  0  0  0  0  0  0  0  0  0
    4.3766   13.3935   23.0289 H   0  0  0  0  0  0  0  0  0  0  0  0
    4.3275    9.8715   24.6915 H   0  0  0  0  0  0  0  0  0  0  0  0
    4.2819    9.1906   23.0650 H   0  0  0  0  0  0  0  0  0  0  0  0
   10.4735    9.2700   24.5213 H   0  0  0  0  0  0  0  0  0  0  0  0
    8.7592    9.2961   24.9648 H   0  0  0  0  0  0  0  0  0  0  0  0
    9.1747   11.2387   26.2227 H   0  0  0  0  0  0  0  0  0  0  0  0
   10.8730   11.1400   25.7316 H   0  0  0  0  0  0  0  0  0  0  0  0
    7.5474   11.0806   21.9613 H   0  0  0  0  0  0  0  0  0  0  0  0
    7.1721    9.7739   23.0864 H   0  0  0  0  0  0  0  0  0  0  0  0
    7.9130   13.1778   25.3068 H   0  0  0  0  0  0  0  0  0  0  0  0
    8.0773   13.5991   23.6000 H   0  0  0  0  0  0  0  0  0  0  0  0
    5.5637   10.9880   22.2752 H   0  0  0  0  0  0  0  0  0  0  0  0
    9.6034    9.7252   22.3383 H   0  0  0  0  0  0  0  0  0  0  0  0
   10.3349   13.1573   24.5735 H   0  0  0  0  0  0  0  0  0  0  0  0
   10.4774   18.5911   20.7204 H   0  0  0  0  0  0  0  0  0  0  0  0
    9.2698   18.7159   22.0444 H   0  0  0  0  0  0  0  0  0  0  0  0
   11.0027   18.5876   22.4389 H   0  0  0  0  0  0  0  0  0  0  0  0
  1  2  1  0  0  0  0
  1  3  2  0  0  0  0
  2  4  2  0  0  0  0
  3  6  1  0  0  0  0
  4  5  1  0  0  0  0
  4  7  1  0  0  0  0
  5  6  2  0  0  0  0
  5 21  1  0  0  0  0
  6 23  1  0  0  0  0
  7 24  1  0  0  0  0
  7 26  2  0  0  0  0
  8 17  1  0  0  0  0
  8 25  1  0  0  0  0
  8 27  2  0  0  0  0
  9 10  1  0  0  0  0
  9 11  1  0  0  0  0
 10 12  1  0  0  0  0
 11 17  1  0  0  0  0
 12 17  1  0  0  0  0
 13 14  1  0  0  0  0
 13 18  1  0  0  0  0
 14 19  1  0  0  0  0
 15 18  1  0  0  0  0
 15 25  1  0  0  0  0
 16 19  1  0  0  0  0
 16 25  1  0  0  0  0
 18 24  1  6  0  0  0
 19 24  1  6  0  0  0
 20 23  1  0  0  0  0
 21 22  2  0  0  0  0
 22 23  1  0  0  0  0
  1 28  1  0  0  0  0
  2 29  1  0  0  0  0
  3 30  1  0  0  0  0
  9 31  1  0  0  0  0
  9 32  1  0  0  0  0
 10 33  1  0  0  0  0
 10 34  1  0  0  0  0
 11 35  1  0  0  0  0
 11 36  1  0  0  0  0
 12 37  1  0  0  0  0
 12 38  1  0  0  0  0
 13 39  1  0  0  0  0
 13 40  1  0  0  0  0
 14 41  1  0  0  0  0
 14 42  1  0  0  0  0
 15 43  1  0  0  0  0
 15 44  1  0  0  0  0
 16 45  1  0  0  0  0
 16 46  1  0  0  0  0
 17 47  1  0  0  0  0
 18 48  1  0  0  0  0
 19 49  1  0  0  0  0
 20 50  1  0  0  0  0
 20 51  1  0  0  0  0
 20 52  1  0  0  0  0
M  END
> <idnumber>
Z7371386190

> <heavy_atoms>
27

> <LogS>
-3.977

> <LogP>
1.404

> <rotating_bonds>
2

> <PSA>
71.33

> <hb_acceptors>
4

> <hb_donors>
0

> <Collection>
Advanced

> <link>
https://www.enaminestore.com/catalog/Z7371386190

> <ROCS_ShapeQuery>
x0446_0A_x1080_0A_x0929_0A_x0812_0A_x0719_0A_x1140_0A_x0528_0A_x0310_0A

> <ROCS_TanimotoCombo>
0.459 

> <ROCS_ShapeTanimoto>
0.239 

> <ROCS_ColorTanimoto>
0.220 

> <ROCS_RefTversky>
0.223 

> <ROCS_RefColorTversky>
0.252 

> <ROCS_RefTverskyCombo>
0.475 

> <ROCS_FitTversky>
1.449 

> <ROCS_FitColorTversky>
0.630 

> <ROCS_FitTverskyCombo>
2.080 

> <ROCS_ColorScore>
-9.086

> <ROCS_Overlap>
2636.156

> <ROCS_Rank>
294                 

$$$$
untitled-dbase-1136376_30
  -OEChem-02092406493D

 34 37  0     0  0  0  0  0  0999 V2000
   12.0123   10.4956   22.9612 C   0  0  0  0  0  0  0  0  0  0  0  0
   12.1561   11.8748   22.9487 C   0  0  0  0  0  0  0  0  0  0  0  0
    5.1954   11.2256   25.0815 C   0  0  0  0  0  0  0  0  0  0  0  0
   10.7886    9.9368   23.3255 C   0  0  0  0  0  0  0  0  0  0  0  0
   11.0747   12.6803   23.3008 C   0  0  0  0  0  0  0  0  0  0  0  0
    6.2765   10.4201   24.7285 C   0  0  0  0  0  0  0  0  0  0  0  0
    5.3395   12.6048   25.0698 C   0  0  0  0  0  0  0  0  0  0  0  0
    9.7037   10.7368   23.6785 C   0  0  0  0  0  0  0  0  0  0  0  0
    9.8488   12.1278   23.6661 C   0  0  0  0  0  0  0  0  0  0  0  0
    7.5023   10.9725   24.3632 C   0  0  0  0  0  0  0  0  0  0  0  0
    7.6475   12.3636   24.3510 C   0  0  0  0  0  0  0  0  0  0  0  0
    6.5630   13.1635   24.7050 C   0  0  0  0  0  0  0  0  0  0  0  0
    7.9797   14.5789   21.5038 C   0  0  0  0  0  0  0  0  0  0  0  0
    7.5965   15.2763   22.6319 C   0  0  0  0  0  0  0  0  0  0  0  0
    7.2063   13.5176   20.8290 C   0  0  0  0  0  0  0  0  0  0  0  0
    6.3635   15.1939   23.4829 C   0  0  0  0  0  0  0  0  0  0  0  0
    8.5326   10.1806   24.0267 N   0  0  0  0  0  0  0  0  0  0  0  0
    8.8185   12.9198   24.0026 N   0  0  0  0  0  0  0  0  0  0  0  0
    9.2100   14.9324   20.9725 N   0  0  0  0  0  0  0  0  0  0  0  0
    9.7839   15.8954   21.6760 N   0  0  0  0  0  0  0  0  0  0  0  0
    6.6819   14.5245   24.6993 O   0  0  0  0  0  0  0  0  0  0  0  0
    8.8564   16.3877   22.9813 S   0  0  0  0  0  0  0  0  0  0  0  0
   12.8454    9.8549   22.6893 H   0  0  0  0  0  0  0  0  0  0  0  0
   13.1031   12.3245   22.6674 H   0  0  0  0  0  0  0  0  0  0  0  0
    4.2482   10.7767   25.3638 H   0  0  0  0  0  0  0  0  0  0  0  0
   10.6876    8.8534   23.3312 H   0  0  0  0  0  0  0  0  0  0  0  0
   11.1996   13.7612   23.2872 H   0  0  0  0  0  0  0  0  0  0  0  0
    6.1513    9.3392   24.7414 H   0  0  0  0  0  0  0  0  0  0  0  0
    4.5023   13.2404   25.3432 H   0  0  0  0  0  0  0  0  0  0  0  0
    6.5438   13.9398   20.0558 H   0  0  0  0  0  0  0  0  0  0  0  0
    7.8609   12.7756   20.3411 H   0  0  0  0  0  0  0  0  0  0  0  0
    6.5774   12.9508   21.5366 H   0  0  0  0  0  0  0  0  0  0  0  0
    5.9802   16.1934   23.7151 H   0  0  0  0  0  0  0  0  0  0  0  0
    5.5715   14.6416   22.9656 H   0  0  0  0  0  0  0  0  0  0  0  0
  1  2  1  0  0  0  0
  1  4  2  0  0  0  0
  2  5  2  0  0  0  0
  3  6  1  0  0  0  0
  3  7  2  0  0  0  0
  4  8  1  0  0  0  0
  5  9  1  0  0  0  0
  6 10  2  0  0  0  0
  7 12  1  0  0  0  0
  8  9  1  0  0  0  0
  8 17  2  0  0  0  0
  9 18  2  0  0  0  0
 10 11  1  0  0  0  0
 10 17  1  0  0  0  0
 11 12  2  0  0  0  0
 11 18  1  0  0  0  0
 12 21  1  0  0  0  0
 13 14  2  0  0  0  0
 13 15  1  0  0  0  0
 13 19  1  0  0  0  0
 14 16  1  0  0  0  0
 14 22  1  0  0  0  0
 16 21  1  0  0  0  0
 19 20  2  0  0  0  0
 20 22  1  0  0  0  0
  1 23  1  0  0  0  0
  2 24  1  0  0  0  0
  3 25  1  0  0  0  0
  4 26  1  0  0  0  0
  5 27  1  0  0  0  0
  6 28  1  0  0  0  0
  7 29  1  0  0  0  0
 15 30  1  0  0  0  0
 15 31  1  0  0  0  0
 15 32  1  0  0  0  0
 16 33  1  0  0  0  0
 16 34  1  0  0  0  0
M  END
> <idnumber>
Z6249242979

> <heavy_atoms>
22

> <LogS>
-3.352

> <LogP>
3.167

> <rotating_bonds>
3

> <PSA>
60.79

> <hb_acceptors>
5

> <hb_donors>
0

> <Collection>
Advanced

> <link>
https://www.enaminestore.com/catalog/Z6249242979

> <ROCS_ShapeQuery>
x0446_0A_x1080_0A_x0929_0A_x0812_0A_x0719_0A_x1140_0A_x0528_0A_x0310_0A

> <ROCS_TanimotoCombo>
0.459 

> <ROCS_ShapeTanimoto>
0.258 

> <ROCS_ColorTanimoto>
0.201 

> <ROCS_RefTversky>
0.233 

> <ROCS_RefColorTversky>
0.218 

> <ROCS_RefTverskyCombo>
0.451 

> <ROCS_FitTversky>
1.725 

> <ROCS_FitColorTversky>
0.726 

> <ROCS_FitTverskyCombo>
2.451 

> <ROCS_ColorScore>
-7.807

> <ROCS_Overlap>
2748.329

> <ROCS_Rank>
295                 

$$$$
untitled-dbase-326481_193
  -OEChem-02092406493D

 52 56  0     0  0  0  0  0  0999 V2000
   11.6412   16.0231   21.2931 C   0  0  0  0  0  0  0  0  0  0  0  0
   12.8877   15.7536   21.8580 C   0  0  0  0  0  0  0  0  0  0  0  0
   11.8304   14.3647   23.5285 C   0  0  0  0  0  0  0  0  0  0  0  0
    7.7963   12.4408   24.3407 C   0  0  0  0  0  0  0  0  0  0  0  0
    6.7387   13.2299   24.8486 C   0  0  0  0  0  0  0  0  0  0  0  0
   10.5839   14.6343   22.9636 C   0  0  0  0  0  0  0  0  0  0  0  0
   10.4892   15.4636   21.8460 C   0  0  0  0  0  0  0  0  0  0  0  0
   12.9824   14.9244   22.9756 C   0  0  0  0  0  0  0  0  0  0  0  0
    5.7160   12.4753   25.3552 C   0  0  0  0  0  0  0  0  0  0  0  0
    9.0239   12.7298   23.7400 C   0  0  0  0  0  0  0  0  0  0  0  0
    7.4898   11.0871   24.5035 C   0  0  0  0  0  0  0  0  0  0  0  0
    9.4176   10.4656   23.5696 C   0  0  0  0  0  0  0  0  0  0  0  0
    6.4488   14.6796   24.9794 C   0  0  0  0  0  0  0  0  0  0  0  0
    4.5904   13.2698   25.8983 C   0  0  0  0  0  0  0  0  0  0  0  0
    4.9269   14.6826   25.3286 C   0  0  0  0  0  0  0  0  0  0  0  0
   12.4939   10.4873   23.1549 C   0  0  0  0  0  0  0  0  0  0  0  0
   12.3275    8.1643   23.7673 C   0  0  0  0  0  0  0  0  0  0  0  0
   13.8487   10.5454   23.8549 C   0  0  0  0  0  0  0  0  0  0  0  0
   13.6857    8.2775   24.4538 C   0  0  0  0  0  0  0  0  0  0  0  0
    8.5804   16.8800   21.7699 C   0  0  0  0  0  0  0  0  0  0  0  0
   10.3479    9.3853   23.1267 C   0  0  0  0  0  0  0  0  0  0  0  0
    9.8409   11.7271   23.3515 N   0  0  0  0  0  0  0  0  0  0  0  0
    8.2683   10.0514   24.1339 N   0  0  0  0  0  0  0  0  0  0  0  0
   11.6478    9.4669   23.7895 N   0  0  0  0  0  0  0  0  0  0  0  0
    9.4273   14.0624   23.5329 N   0  0  0  0  0  0  0  0  0  0  0  0
   14.4871    9.2687   23.8099 O   0  0  0  0  0  0  0  0  0  0  0  0
    9.2808   15.7391   21.2790 O   0  0  0  0  0  0  0  0  0  0  0  0
    5.9624   10.8254   25.2524 S   0  0  0  0  0  0  0  0  0  0  0  0
   14.5201   14.5922   23.6726 Cl  0  0  0  0  0  0  0  0  0  0  0  0
   11.5744   16.6700   20.4225 H   0  0  0  0  0  0  0  0  0  0  0  0
   13.7767   16.1966   21.4163 H   0  0  0  0  0  0  0  0  0  0  0  0
   11.9013   13.7177   24.4005 H   0  0  0  0  0  0  0  0  0  0  0  0
    7.0306   15.1142   25.7991 H   0  0  0  0  0  0  0  0  0  0  0  0
    6.6409   15.2382   24.0594 H   0  0  0  0  0  0  0  0  0  0  0  0
    3.6110   12.9266   25.5545 H   0  0  0  0  0  0  0  0  0  0  0  0
    4.6146   13.2809   26.9925 H   0  0  0  0  0  0  0  0  0  0  0  0
    4.6621   15.4844   26.0250 H   0  0  0  0  0  0  0  0  0  0  0  0
    4.3502   14.8424   24.4078 H   0  0  0  0  0  0  0  0  0  0  0  0
   12.0168   11.4690   23.2236 H   0  0  0  0  0  0  0  0  0  0  0  0
   12.6425   10.2484   22.0962 H   0  0  0  0  0  0  0  0  0  0  0  0
   12.4695    7.8303   22.7337 H   0  0  0  0  0  0  0  0  0  0  0  0
   11.7272    7.4162   24.2928 H   0  0  0  0  0  0  0  0  0  0  0  0
   14.5003   11.2621   23.3447 H   0  0  0  0  0  0  0  0  0  0  0  0
   13.7509   10.8695   24.8980 H   0  0  0  0  0  0  0  0  0  0  0  0
   13.5831    8.5245   25.5177 H   0  0  0  0  0  0  0  0  0  0  0  0
   14.2186    7.3238   24.3858 H   0  0  0  0  0  0  0  0  0  0  0  0
    7.6340   16.9859   21.2341 H   0  0  0  0  0  0  0  0  0  0  0  0
    9.1934   17.7737   21.6283 H   0  0  0  0  0  0  0  0  0  0  0  0
    8.3801   16.7430   22.8351 H   0  0  0  0  0  0  0  0  0  0  0  0
    9.9294    8.3922   23.3399 H   0  0  0  0  0  0  0  0  0  0  0  0
   10.5277    9.4292   22.0443 H   0  0  0  0  0  0  0  0  0  0  0  0
    8.7517   14.7500   23.8568 H   0  0  0  0  0  0  0  0  0  0  0  0
  1  2  2  0  0  0  0
  1  7  1  0  0  0  0
  2  8  1  0  0  0  0
  3  6  1  0  0  0  0
  3  8  2  0  0  0  0
  4  5  1  0  0  0  0
  4 10  2  0  0  0  0
  4 11  1  0  0  0  0
  5  9  2  0  0  0  0
  5 13  1  0  0  0  0
  6  7  2  0  0  0  0
  6 25  1  0  0  0  0
  7 27  1  0  0  0  0
  8 29  1  0  0  0  0
  9 14  1  0  0  0  0
  9 28  1  0  0  0  0
 10 22  1  0  0  0  0
 10 25  1  0  0  0  0
 11 23  2  0  0  0  0
 11 28  1  0  0  0  0
 12 21  1  0  0  0  0
 12 22  2  0  0  0  0
 12 23  1  0  0  0  0
 13 15  1  0  0  0  0
 14 15  1  0  0  0  0
 16 18  1  0  0  0  0
 16 24  1  0  0  0  0
 17 19  1  0  0  0  0
 17 24  1  0  0  0  0
 18 26  1  0  0  0  0
 19 26  1  0  0  0  0
 20 27  1  0  0  0  0
 21 24  1  0  0  0  0
  1 30  1  0  0  0  0
  2 31  1  0  0  0  0
  3 32  1  0  0  0  0
 13 33  1  0  0  0  0
 13 34  1  0  0  0  0
 14 35  1  0  0  0  0
 14 36  1  0  0  0  0
 15 37  1  0  0  0  0
 15 38  1  0  0  0  0
 16 39  1  0  0  0  0
 16 40  1  0  0  0  0
 17 41  1  0  0  0  0
 17 42  1  0  0  0  0
 18 43  1  0  0  0  0
 18 44  1  0  0  0  0
 19 45  1  0  0  0  0
 19 46  1  0  0  0  0
 20 47  1  0  0  0  0
 20 48  1  0  0  0  0
 20 49  1  0  0  0  0
 21 50  1  0  0  0  0
 21 51  1  0  0  0  0
 25 52  1  0  0  0  0
M  END
> <idnumber>
Z31205135

> <heavy_atoms>
29

> <LogS>
-5.37

> <LogP>
5.158

> <rotating_bonds>
5

> <PSA>
59.51

> <hb_acceptors>
6

> <hb_donors>
1

> <Collection>
Legacy

> <link>
https://www.enaminestore.com/catalog/Z31205135

> <ROCS_ShapeQuery>
x0446_0A_x1080_0A_x0929_0A_x0812_0A_x0719_0A_x1140_0A_x0528_0A_x0310_0A

> <ROCS_TanimotoCombo>
0.459 

> <ROCS_ShapeTanimoto>
0.275 

> <ROCS_ColorTanimoto>
0.185 

> <ROCS_RefTversky>
0.249 

> <ROCS_RefColorTversky>
0.210 

> <ROCS_RefTverskyCombo>
0.459 

> <ROCS_FitTversky>
1.577 

> <ROCS_FitColorTversky>
0.608 

> <ROCS_FitTverskyCombo>
2.186 

> <ROCS_ColorScore>
-7.523

> <ROCS_Overlap>
2951.240

> <ROCS_Rank>
296                 

$$$$
untitled-dbase-1070560_41
  -OEChem-02092406493D

 54 57  0     1  0  0  0  0  0999 V2000
    7.1958   13.5367   24.8932 C   0  0  0  0  0  0  0  0  0  0  0  0
   10.9452   14.2194   22.1871 C   0  0  0  0  0  0  0  0  0  0  0  0
    9.9013   13.3419   22.0458 C   0  0  0  0  0  0  0  0  0  0  0  0
   10.3811   15.4928   21.9583 C   0  0  0  0  0  0  0  0  0  0  0  0
    7.9173   12.3658   24.8014 C   0  0  0  0  0  0  0  0  0  0  0  0
    5.8550   13.1273   24.9988 C   0  0  0  0  0  0  0  0  0  0  0  0
    9.8944   11.8809   22.1809 C   0  0  0  0  0  0  0  0  0  0  0  0
   12.3801   14.0453   22.5085 C   0  0  0  0  0  0  0  0  0  0  0  0
    9.3779   12.1271   24.6596 C   0  0  0  0  0  0  0  0  0  0  0  0
    7.9936    9.4636   23.5970 C   0  0  0  0  0  0  0  0  0  0  0  0
    7.2490    9.9341   24.8460 C   0  0  0  0  0  0  0  0  0  0  0  0
    9.4647    9.8857   23.5653 C   0  0  0  0  0  0  0  0  0  0  0  0
   11.2007   16.7376   21.9865 C   0  0  1  0  0  0  0  0  0  0  0  0
   13.1522   15.3115   22.0698 C   0  0  2  0  0  0  0  0  0  0  0  0
   10.5556   17.8604   22.7889 C   0  0  0  0  0  0  0  0  0  0  0  0
   14.5754   15.2936   22.6092 C   0  0  0  0  0  0  0  0  0  0  0  0
    6.4235   14.6578   21.9405 C   0  0  0  0  0  0  0  0  0  0  0  0
    4.6625   13.9828   25.1163 C   0  0  0  0  0  0  0  0  0  0  0  0
    7.4694   13.6525   21.4900 C   0  0  0  0  0  0  0  0  0  0  0  0
    9.0798   15.4347   21.6676 N   0  0  0  0  0  0  0  0  0  0  0  0
    5.7195   11.7999   24.9835 N   0  0  0  0  0  0  0  0  0  0  0  0
    8.8154   14.1147   21.7395 N   0  0  0  0  0  0  0  0  0  0  0  0
    6.9874   11.3592   24.8661 N   0  0  0  0  0  0  0  0  0  0  0  0
    9.6336   11.3366   23.4459 N   0  0  0  0  0  0  0  0  0  0  0  0
   10.1107   11.2402   21.1534 O   0  0  0  0  0  0  0  0  0  0  0  0
   12.5026   16.4952   22.5801 O   0  0  0  0  0  0  0  0  0  0  0  0
    3.9718   13.6984   26.3343 O   0  0  0  0  0  0  0  0  0  0  0  0
    7.5928   14.5417   24.8901 H   0  0  0  0  0  0  0  0  0  0  0  0
   12.4729   13.9058   23.5927 H   0  0  0  0  0  0  0  0  0  0  0  0
   12.7936   13.1596   22.0142 H   0  0  0  0  0  0  0  0  0  0  0  0
    9.9238   13.0749   24.5888 H   0  0  0  0  0  0  0  0  0  0  0  0
    9.7641   11.6039   25.5402 H   0  0  0  0  0  0  0  0  0  0  0  0
    7.9145    8.3746   23.4902 H   0  0  0  0  0  0  0  0  0  0  0  0
    7.5006    9.9029   22.7210 H   0  0  0  0  0  0  0  0  0  0  0  0
    6.2840    9.4259   24.9538 H   0  0  0  0  0  0  0  0  0  0  0  0
    7.8480    9.6965   25.7333 H   0  0  0  0  0  0  0  0  0  0  0  0
    9.9459    9.5402   24.4870 H   0  0  0  0  0  0  0  0  0  0  0  0
    9.9931    9.4051   22.7339 H   0  0  0  0  0  0  0  0  0  0  0  0
   11.3694   17.0822   20.9589 H   0  0  0  0  0  0  0  0  0  0  0  0
   13.1891   15.3807   20.9743 H   0  0  0  0  0  0  0  0  0  0  0  0
   10.3810   17.5336   23.8141 H   0  0  0  0  0  0  0  0  0  0  0  0
    9.6025   18.1398   22.3398 H   0  0  0  0  0  0  0  0  0  0  0  0
   11.2095   18.7326   22.8023 H   0  0  0  0  0  0  0  0  0  0  0  0
   14.5625   15.2252   23.6975 H   0  0  0  0  0  0  0  0  0  0  0  0
   15.0970   16.2066   22.3196 H   0  0  0  0  0  0  0  0  0  0  0  0
   15.1169   14.4360   22.2084 H   0  0  0  0  0  0  0  0  0  0  0  0
    6.5099   14.8653   23.0124 H   0  0  0  0  0  0  0  0  0  0  0  0
    5.4180   14.2714   21.7477 H   0  0  0  0  0  0  0  0  0  0  0  0
    6.5326   15.6079   21.4070 H   0  0  0  0  0  0  0  0  0  0  0  0
    4.9161   15.0590   25.1156 H   0  0  0  0  0  0  0  0  0  0  0  0
    3.9553   13.8276   24.2807 H   0  0  0  0  0  0  0  0  0  0  0  0
    7.3751   13.4515   20.4169 H   0  0  0  0  0  0  0  0  0  0  0  0
    7.3381   12.6981   22.0124 H   0  0  0  0  0  0  0  0  0  0  0  0
    3.2028   14.2872   26.3555 H   0  0  0  0  0  0  0  0  0  0  0  0
  1  5  2  0  0  0  0
  1  6  1  0  0  0  0
  2  3  2  0  0  0  0
  2  4  1  0  0  0  0
  2  8  1  0  0  0  0
  3  7  1  0  0  0  0
  3 22  1  0  0  0  0
  4 13  1  0  0  0  0
  4 20  2  0  0  0  0
  5  9  1  0  0  0  0
  5 23  1  0  0  0  0
  6 18  1  0  0  0  0
  6 21  2  0  0  0  0
  7 24  1  0  0  0  0
  7 25  2  0  0  0  0
  8 14  1  0  0  0  0
  9 24  1  0  0  0  0
 10 11  1  0  0  0  0
 10 12  1  0  0  0  0
 11 23  1  0  0  0  0
 12 24  1  0  0  0  0
 13 15  1  1  0  0  0
 13 26  1  0  0  0  0
 14 16  1  1  0  0  0
 14 26  1  0  0  0  0
 17 19  1  0  0  0  0
 18 27  1  0  0  0  0
 19 22  1  0  0  0  0
 20 22  1  0  0  0  0
 21 23  1  0  0  0  0
  1 28  1  0  0  0  0
  8 29  1  0  0  0  0
  8 30  1  0  0  0  0
  9 31  1  0  0  0  0
  9 32  1  0  0  0  0
 10 33  1  0  0  0  0
 10 34  1  0  0  0  0
 11 35  1  0  0  0  0
 11 36  1  0  0  0  0
 12 37  1  0  0  0  0
 12 38  1  0  0  0  0
 13 39  1  0  0  0  0
 14 40  1  0  0  0  0
 15 41  1  0  0  0  0
 15 42  1  0  0  0  0
 15 43  1  0  0  0  0
 16 44  1  0  0  0  0
 16 45  1  0  0  0  0
 16 46  1  0  0  0  0
 17 47  1  0  0  0  0
 17 48  1  0  0  0  0
 17 49  1  0  0  0  0
 18 50  1  0  0  0  0
 18 51  1  0  0  0  0
 19 52  1  0  0  0  0
 19 53  1  0  0  0  0
 27 54  1  0  0  0  0
M  END
> <idnumber>
Z4105195399

> <heavy_atoms>
27

> <LogS>
-1.656

> <LogP>
-0.72

> <rotating_bonds>
3

> <PSA>
85.41

> <hb_acceptors>
5

> <hb_donors>
1

> <Collection>
HTS

> <link>
https://www.enaminestore.com/catalog/Z4105195399

> <ROCS_ShapeQuery>
x0446_0A_x1080_0A_x0929_0A_x0812_0A_x0719_0A_x1140_0A_x0528_0A_x0310_0A

> <ROCS_TanimotoCombo>
0.459 

> <ROCS_ShapeTanimoto>
0.277 

> <ROCS_ColorTanimoto>
0.183 

> <ROCS_RefTversky>
0.250 

> <ROCS_RefColorTversky>
0.204 

> <ROCS_RefTverskyCombo>
0.453 

> <ROCS_FitTversky>
1.645 

> <ROCS_FitColorTversky>
0.641 

> <ROCS_FitTverskyCombo>
2.285 

> <ROCS_ColorScore>
-7.294

> <ROCS_Overlap>
2950.608

> <ROCS_Rank>
297                 

$$$$
untitled-dbase-324085_4
  -OEChem-02092406493D

 42 46  0     0  0  0  0  0  0999 V2000
   13.1682   14.6002   22.3636 C   0  0  0  0  0  0  0  0  0  0  0  0
   12.7797   15.1457   21.1434 C   0  0  0  0  0  0  0  0  0  0  0  0
   11.0008   15.9053   19.6400 C   0  0  0  0  0  0  0  0  0  0  0  0
   12.2018   14.2650   23.3038 C   0  0  0  0  0  0  0  0  0  0  0  0
    9.6503   16.1025   19.3907 C   0  0  0  0  0  0  0  0  0  0  0  0
   11.4197   15.3578   20.8602 C   0  0  0  0  0  0  0  0  0  0  0  0
    8.0591   12.5802   24.0823 C   0  0  0  0  0  0  0  0  0  0  0  0
    6.9114   13.3818   24.2812 C   0  0  0  0  0  0  0  0  0  0  0  0
   10.4331   15.0201   21.8101 C   0  0  0  0  0  0  0  0  0  0  0  0
   10.8498   14.4760   23.0219 C   0  0  0  0  0  0  0  0  0  0  0  0
    5.7623   12.6436   24.3624 C   0  0  0  0  0  0  0  0  0  0  0  0
    8.7592   15.7412   20.3807 C   0  0  0  0  0  0  0  0  0  0  0  0
    9.4221   12.8512   23.9406 C   0  0  0  0  0  0  0  0  0  0  0  0
    7.6856   11.2349   24.0235 C   0  0  0  0  0  0  0  0  0  0  0  0
    9.7987   10.5883   23.7210 C   0  0  0  0  0  0  0  0  0  0  0  0
    6.6274   14.8309   24.4298 C   0  0  0  0  0  0  0  0  0  0  0  0
    4.5389   13.4513   24.5727 C   0  0  0  0  0  0  0  0  0  0  0  0
    5.0758   14.8830   24.2629 C   0  0  0  0  0  0  0  0  0  0  0  0
    7.2968   15.9353   20.1559 C   0  0  0  0  0  0  0  0  0  0  0  0
   10.7983    9.4983   23.5172 C   0  0  0  0  0  0  0  0  0  0  0  0
    9.1217   15.2102   21.5709 N   0  0  0  0  0  0  0  0  0  0  0  0
   10.2985   11.8401   23.7581 N   0  0  0  0  0  0  0  0  0  0  0  0
    8.5187   10.1914   23.8435 N   0  0  0  0  0  0  0  0  0  0  0  0
    9.9209   14.1301   23.9809 O   0  0  0  0  0  0  0  0  0  0  0  0
    5.9914   10.9952   24.2093 S   0  0  0  0  0  0  0  0  0  0  0  0
   14.2199   14.4380   22.5788 H   0  0  0  0  0  0  0  0  0  0  0  0
   13.5443   15.4046   20.4142 H   0  0  0  0  0  0  0  0  0  0  0  0
   11.7251   16.1808   18.8769 H   0  0  0  0  0  0  0  0  0  0  0  0
   12.5034   13.8390   24.2569 H   0  0  0  0  0  0  0  0  0  0  0  0
    9.3181   16.5261   18.4493 H   0  0  0  0  0  0  0  0  0  0  0  0
    6.9170   15.1771   25.4274 H   0  0  0  0  0  0  0  0  0  0  0  0
    7.1266   15.4422   23.6730 H   0  0  0  0  0  0  0  0  0  0  0  0
    3.7194   13.1816   23.9012 H   0  0  0  0  0  0  0  0  0  0  0  0
    4.2019   13.3845   25.6121 H   0  0  0  0  0  0  0  0  0  0  0  0
    4.6146   15.6461   24.8974 H   0  0  0  0  0  0  0  0  0  0  0  0
    4.8385   15.1342   23.2205 H   0  0  0  0  0  0  0  0  0  0  0  0
    6.8597   15.0406   19.6967 H   0  0  0  0  0  0  0  0  0  0  0  0
    6.7725   16.1345   21.0992 H   0  0  0  0  0  0  0  0  0  0  0  0
    7.1060   16.7933   19.4985 H   0  0  0  0  0  0  0  0  0  0  0  0
   11.1747    9.1418   24.4832 H   0  0  0  0  0  0  0  0  0  0  0  0
   10.3564    8.6498   22.9800 H   0  0  0  0  0  0  0  0  0  0  0  0
   11.6489    9.8469   22.9180 H   0  0  0  0  0  0  0  0  0  0  0  0
  1  2  2  0  0  0  0
  1  4  1  0  0  0  0
  2  6  1  0  0  0  0
  3  5  2  0  0  0  0
  3  6  1  0  0  0  0
  4 10  2  0  0  0  0
  5 12  1  0  0  0  0
  6  9  2  0  0  0  0
  7  8  1  0  0  0  0
  7 13  2  0  0  0  0
  7 14  1  0  0  0  0
  8 11  2  0  0  0  0
  8 16  1  0  0  0  0
  9 10  1  0  0  0  0
  9 21  1  0  0  0  0
 10 24  1  0  0  0  0
 11 17  1  0  0  0  0
 11 25  1  0  0  0  0
 12 19  1  0  0  0  0
 12 21  2  0  0  0  0
 13 22  1  0  0  0  0
 13 24  1  0  0  0  0
 14 23  2  0  0  0  0
 14 25  1  0  0  0  0
 15 20  1  0  0  0  0
 15 22  2  0  0  0  0
 15 23  1  0  0  0  0
 16 18  1  0  0  0  0
 17 18  1  0  0  0  0
  1 26  1  0  0  0  0
  2 27  1  0  0  0  0
  3 28  1  0  0  0  0
  4 29  1  0  0  0  0
  5 30  1  0  0  0  0
 16 31  1  0  0  0  0
 16 32  1  0  0  0  0
 17 33  1  0  0  0  0
 17 34  1  0  0  0  0
 18 35  1  0  0  0  0
 18 36  1  0  0  0  0
 19 37  1  0  0  0  0
 19 38  1  0  0  0  0
 19 39  1  0  0  0  0
 20 40  1  0  0  0  0
 20 41  1  0  0  0  0
 20 42  1  0  0  0  0
M  END
> <idnumber>
Z31146692

> <heavy_atoms>
25

> <LogS>
-6.01

> <LogP>
4.882

> <rotating_bonds>
2

> <PSA>
47.9

> <hb_acceptors>
3

> <hb_donors>
0

> <Collection>
Legacy

> <link>
https://www.enaminestore.com/catalog/Z31146692

> <ROCS_ShapeQuery>
x0446_0A_x1080_0A_x0929_0A_x0812_0A_x0719_0A_x1140_0A_x0528_0A_x0310_0A

> <ROCS_TanimotoCombo>
0.459 

> <ROCS_ShapeTanimoto>
0.255 

> <ROCS_ColorTanimoto>
0.204 

> <ROCS_RefTversky>
0.233 

> <ROCS_RefColorTversky>
0.219 

> <ROCS_RefTverskyCombo>
0.452 

> <ROCS_FitTversky>
1.586 

> <ROCS_FitColorTversky>
0.749 

> <ROCS_FitTverskyCombo>
2.335 

> <ROCS_ColorScore>
-7.847

> <ROCS_Overlap>
2755.212

> <ROCS_Rank>
298                 

$$$$
untitled-dbase-327451_61
  -OEChem-02092406493D

 51 55  0     0  0  0  0  0  0999 V2000
    8.7305   14.0928   21.4865 C   0  0  0  0  0  0  0  0  0  0  0  0
   12.2445   15.1580   20.9052 C   0  0  0  0  0  0  0  0  0  0  0  0
   12.7641   15.1111   22.1988 C   0  0  0  0  0  0  0  0  0  0  0  0
   10.9106   14.8203   20.6767 C   0  0  0  0  0  0  0  0  0  0  0  0
   11.9497   14.7264   23.2639 C   0  0  0  0  0  0  0  0  0  0  0  0
   10.0962   14.4355   21.7418 C   0  0  0  0  0  0  0  0  0  0  0  0
    7.9469   12.5098   24.4141 C   0  0  0  0  0  0  0  0  0  0  0  0
    6.8735   13.3599   24.8447 C   0  0  0  0  0  0  0  0  0  0  0  0
   10.6158   14.3885   23.0354 C   0  0  0  0  0  0  0  0  0  0  0  0
    5.7158   12.6413   25.0815 C   0  0  0  0  0  0  0  0  0  0  0  0
    9.2819   12.7544   24.0710 C   0  0  0  0  0  0  0  0  0  0  0  0
    7.5319   11.1853   24.3397 C   0  0  0  0  0  0  0  0  0  0  0  0
    9.5465   10.5044   23.6651 C   0  0  0  0  0  0  0  0  0  0  0  0
    6.9410   14.8432   25.0607 C   0  0  0  0  0  0  0  0  0  0  0  0
    4.4109   13.2285   25.5210 C   0  0  0  0  0  0  0  0  0  0  0  0
    5.5432   15.4738   25.1570 C   0  0  0  0  0  0  0  0  0  0  0  0
    4.6132   14.6525   26.0604 C   0  0  0  0  0  0  0  0  0  0  0  0
   12.6787    8.9259   22.4170 C   0  0  0  0  0  0  0  0  0  0  0  0
   12.3891    9.8248   24.6321 C   0  0  0  0  0  0  0  0  0  0  0  0
   14.1396    9.3647   22.4607 C   0  0  0  0  0  0  0  0  0  0  0  0
   13.8565   10.2434   24.6231 C   0  0  0  0  0  0  0  0  0  0  0  0
   10.4627    9.4047   23.2419 C   0  0  0  0  0  0  0  0  0  0  0  0
    7.6230   13.8148   21.2795 N   0  0  0  0  0  0  0  0  0  0  0  0
   10.0861   11.7381   23.6930 N   0  0  0  0  0  0  0  0  0  0  0  0
    8.2901   10.1351   23.9693 N   0  0  0  0  0  0  0  0  0  0  0  0
   11.8655    9.8142   23.2591 N   0  0  0  0  0  0  0  0  0  0  0  0
   14.6214    9.3573   23.8051 O   0  0  0  0  0  0  0  0  0  0  0  0
    9.8334   14.0117   24.1068 O   0  0  0  0  0  0  0  0  0  0  0  0
    5.8992   10.9778   24.7796 S   0  0  0  0  0  0  0  0  0  0  0  0
   12.8788   15.4576   20.0760 H   0  0  0  0  0  0  0  0  0  0  0  0
   13.8027   15.3742   22.3767 H   0  0  0  0  0  0  0  0  0  0  0  0
   10.5211   14.8621   19.6622 H   0  0  0  0  0  0  0  0  0  0  0  0
   12.3613   14.6921   24.2691 H   0  0  0  0  0  0  0  0  0  0  0  0
    7.4913   15.0356   25.9899 H   0  0  0  0  0  0  0  0  0  0  0  0
    7.4905   15.3263   24.2454 H   0  0  0  0  0  0  0  0  0  0  0  0
    3.7292   13.2601   24.6618 H   0  0  0  0  0  0  0  0  0  0  0  0
    3.9402   12.6101   26.2936 H   0  0  0  0  0  0  0  0  0  0  0  0
    5.6299   16.4970   25.5391 H   0  0  0  0  0  0  0  0  0  0  0  0
    5.1010   15.5422   24.1547 H   0  0  0  0  0  0  0  0  0  0  0  0
    3.6414   15.1506   26.1507 H   0  0  0  0  0  0  0  0  0  0  0  0
    5.0440   14.6057   27.0689 H   0  0  0  0  0  0  0  0  0  0  0  0
   12.3282    8.9625   21.3816 H   0  0  0  0  0  0  0  0  0  0  0  0
   12.5995    7.8927   22.7725 H   0  0  0  0  0  0  0  0  0  0  0  0
   12.2982    8.8284   25.0784 H   0  0  0  0  0  0  0  0  0  0  0  0
   11.8238   10.5314   25.2464 H   0  0  0  0  0  0  0  0  0  0  0  0
   14.7547    8.6677   21.8824 H   0  0  0  0  0  0  0  0  0  0  0  0
   14.2745   10.3638   22.0288 H   0  0  0  0  0  0  0  0  0  0  0  0
   13.9825   11.2726   24.2649 H   0  0  0  0  0  0  0  0  0  0  0  0
   14.2645   10.1945   25.6377 H   0  0  0  0  0  0  0  0  0  0  0  0
   10.3645    8.5327   23.9028 H   0  0  0  0  0  0  0  0  0  0  0  0
   10.2337    9.0602   22.2246 H   0  0  0  0  0  0  0  0  0  0  0  0
  1  6  1  0  0  0  0
  1 23  3  0  0  0  0
  2  3  1  0  0  0  0
  2  4  2  0  0  0  0
  3  5  2  0  0  0  0
  4  6  1  0  0  0  0
  5  9  1  0  0  0  0
  6  9  2  0  0  0  0
  7  8  1  0  0  0  0
  7 11  2  0  0  0  0
  7 12  1  0  0  0  0
  8 10  2  0  0  0  0
  8 14  1  0  0  0  0
  9 28  1  0  0  0  0
 10 15  1  0  0  0  0
 10 29  1  0  0  0  0
 11 24  1  0  0  0  0
 11 28  1  0  0  0  0
 12 25  2  0  0  0  0
 12 29  1  0  0  0  0
 13 22  1  0  0  0  0
 13 24  2  0  0  0  0
 13 25  1  0  0  0  0
 14 16  1  0  0  0  0
 15 17  1  0  0  0  0
 16 17  1  0  0  0  0
 18 20  1  0  0  0  0
 18 26  1  0  0  0  0
 19 21  1  0  0  0  0
 19 26  1  0  0  0  0
 20 27  1  0  0  0  0
 21 27  1  0  0  0  0
 22 26  1  0  0  0  0
  2 30  1  0  0  0  0
  3 31  1  0  0  0  0
  4 32  1  0  0  0  0
  5 33  1  0  0  0  0
 14 34  1  0  0  0  0
 14 35  1  0  0  0  0
 15 36  1  0  0  0  0
 15 37  1  0  0  0  0
 16 38  1  0  0  0  0
 16 39  1  0  0  0  0
 17 40  1  0  0  0  0
 17 41  1  0  0  0  0
 18 42  1  0  0  0  0
 18 43  1  0  0  0  0
 19 44  1  0  0  0  0
 19 45  1  0  0  0  0
 20 46  1  0  0  0  0
 20 47  1  0  0  0  0
 21 48  1  0  0  0  0
 21 49  1  0  0  0  0
 22 50  1  0  0  0  0
 22 51  1  0  0  0  0
M  END
> <idnumber>
Z31253783

> <heavy_atoms>
29

> <LogS>
-5.678

> <LogP>
3.736

> <rotating_bonds>
4

> <PSA>
71.27

> <hb_acceptors>
5

> <hb_donors>
0

> <Collection>
Legacy

> <link>
https://www.enaminestore.com/catalog/Z31253783

> <ROCS_ShapeQuery>
x0446_0A_x1080_0A_x0929_0A_x0812_0A_x0719_0A_x1140_0A_x0528_0A_x0310_0A

> <ROCS_TanimotoCombo>
0.459 

> <ROCS_ShapeTanimoto>
0.279 

> <ROCS_ColorTanimoto>
0.180 

> <ROCS_RefTversky>
0.253 

> <ROCS_RefColorTversky>
0.205 

> <ROCS_RefTverskyCombo>
0.458 

> <ROCS_FitTversky>
1.590 

> <ROCS_FitColorTversky>
0.597 

> <ROCS_FitTverskyCombo>
2.187 

> <ROCS_ColorScore>
-7.373

> <ROCS_Overlap>
2988.712

> <ROCS_Rank>
299                 

$$$$
untitled-dbase-1042528_31
  -OEChem-02092406493D

 46 50  0     1  0  0  0  0  0999 V2000
   10.7538   15.7253   22.9946 C   0  0  0  0  0  0  0  0  0  0  0  0
   13.1375   12.4050   22.9390 C   0  0  0  0  0  0  0  0  0  0  0  0
   12.6313   12.9579   21.8069 C   0  0  0  0  0  0  0  0  0  0  0  0
   11.5512   14.6539   23.1362 C   0  0  0  0  0  0  0  0  0  0  0  0
   12.7690   13.1323   24.2391 C   0  0  0  0  0  0  0  0  0  0  0  0
   10.5132   15.8359   21.5286 C   0  0  0  0  0  0  0  0  0  0  0  0
   13.1845   10.0141   23.5768 C   0  0  0  0  0  0  0  0  0  0  0  0
    7.6483   12.7102   25.0159 C   0  0  0  0  0  0  0  0  0  0  0  0
    9.0838   10.3490   22.4219 C   0  0  0  0  0  0  0  0  0  0  0  0
    7.6505   11.8818   23.7588 C   0  0  2  0  0  0  0  0  0  0  0  0
    8.1689   11.2973   25.0286 C   0  0  1  0  0  0  0  0  0  0  0  0
    9.6017    9.7233   23.7434 C   0  0  2  0  0  0  0  0  0  0  0  0
    8.8459   11.8073   22.8363 C   0  0  1  0  0  0  0  0  0  0  0  0
    9.5998   10.9484   24.6801 C   0  0  1  0  0  0  0  0  0  0  0  0
   12.8784   12.4312   20.4180 C   0  0  0  0  0  0  0  0  0  0  0  0
   13.3206   12.5787   25.5365 C   0  0  0  0  0  0  0  0  0  0  0  0
   13.9873   11.1751   23.0428 C   0  0  0  0  0  0  0  0  0  0  0  0
   10.9866    9.1342   23.5799 C   0  0  0  0  0  0  0  0  0  0  0  0
   12.0156   14.1931   24.3385 N   0  0  0  0  0  0  0  0  0  0  0  0
   11.2071   14.7972   20.9277 N   0  0  0  0  0  0  0  0  0  0  0  0
   11.8354   14.0858   21.9101 N   0  0  0  0  0  0  0  0  0  0  0  0
    9.8263   16.6962   21.0051 O   0  0  0  0  0  0  0  0  0  0  0  0
   13.6181    9.0850   24.2443 O   0  0  0  0  0  0  0  0  0  0  0  0
    9.9668   11.9894   23.7378 O   0  0  0  0  0  0  0  0  0  0  0  0
   11.8878   10.1681   23.1708 O   0  0  0  0  0  0  0  0  0  0  0  0
   10.3540   16.3823   23.7466 H   0  0  0  0  0  0  0  0  0  0  0  0
    8.3527   13.5272   25.1069 H   0  0  0  0  0  0  0  0  0  0  0  0
    6.6918   12.8971   25.4895 H   0  0  0  0  0  0  0  0  0  0  0  0
    9.8447   10.2928   21.6355 H   0  0  0  0  0  0  0  0  0  0  0  0
    8.1724    9.8608   22.0626 H   0  0  0  0  0  0  0  0  0  0  0  0
    6.7185   11.5274   23.3464 H   0  0  0  0  0  0  0  0  0  0  0  0
    7.6089   10.5237   25.5310 H   0  0  0  0  0  0  0  0  0  0  0  0
    8.9227    8.9412   24.1024 H   0  0  0  0  0  0  0  0  0  0  0  0
    8.8474   12.5347   22.0221 H   0  0  0  0  0  0  0  0  0  0  0  0
   10.2805   10.9073   25.5335 H   0  0  0  0  0  0  0  0  0  0  0  0
   12.1074   11.7089   20.1677 H   0  0  0  0  0  0  0  0  0  0  0  0
   13.8544   11.9562   20.3840 H   0  0  0  0  0  0  0  0  0  0  0  0
   12.8536   13.2570   19.7132 H   0  0  0  0  0  0  0  0  0  0  0  0
   14.2763   13.0468   25.7365 H   0  0  0  0  0  0  0  0  0  0  0  0
   13.4408   11.5070   25.4352 H   0  0  0  0  0  0  0  0  0  0  0  0
   12.6207   12.7968   26.3338 H   0  0  0  0  0  0  0  0  0  0  0  0
   14.8169   11.3728   23.7233 H   0  0  0  0  0  0  0  0  0  0  0  0
   14.3681   10.9322   22.0499 H   0  0  0  0  0  0  0  0  0  0  0  0
   10.9821    8.3488   22.8182 H   0  0  0  0  0  0  0  0  0  0  0  0
   11.3391    8.7135   24.5264 H   0  0  0  0  0  0  0  0  0  0  0  0
   11.2807   14.5460   19.9509 H   0  0  0  0  0  0  0  0  0  0  0  0
  1  4  2  0  0  0  0
  1  6  1  0  0  0  0
  2  3  2  0  0  0  0
  2  5  1  0  0  0  0
  2 17  1  0  0  0  0
  3 15  1  0  0  0  0
  3 21  1  0  0  0  0
  4 19  1  0  0  0  0
  4 21  1  0  0  0  0
  5 16  1  0  0  0  0
  5 19  2  0  0  0  0
  6 20  1  0  0  0  0
  6 22  2  0  0  0  0
  7 17  1  0  0  0  0
  7 23  2  0  0  0  0
  7 25  1  0  0  0  0
  8 10  1  1  0  0  0
  8 11  1  1  0  0  0
  9 12  1  0  0  0  0
  9 13  1  0  0  0  0
 10 11  1  0  0  0  0
 10 13  1  0  0  0  0
 11 14  1  0  0  0  0
 12 14  1  0  0  0  0
 12 18  1  1  0  0  0
 13 24  1  1  0  0  0
 14 24  1  1  0  0  0
 18 25  1  0  0  0  0
 20 21  1  0  0  0  0
  1 26  1  0  0  0  0
  8 27  1  0  0  0  0
  8 28  1  0  0  0  0
  9 29  1  0  0  0  0
  9 30  1  0  0  0  0
 10 31  1  0  0  0  0
 11 32  1  0  0  0  0
 12 33  1  0  0  0  0
 13 34  1  0  0  0  0
 14 35  1  0  0  0  0
 15 36  1  0  0  0  0
 15 37  1  0  0  0  0
 15 38  1  0  0  0  0
 16 39  1  0  0  0  0
 16 40  1  0  0  0  0
 16 41  1  0  0  0  0
 17 42  1  0  0  0  0
 17 43  1  0  0  0  0
 18 44  1  0  0  0  0
 18 45  1  0  0  0  0
 20 46  1  0  0  0  0
M  END
> <idnumber>
Z3565213182

> <heavy_atoms>
25

> <LogS>
-3.181

> <LogP>
1.177

> <rotating_bonds>
5

> <PSA>
80.23

> <hb_acceptors>
5

> <hb_donors>
1

> <Collection>
Advanced

> <link>
https://www.enaminestore.com/catalog/Z3565213182

> <ROCS_ShapeQuery>
x0446_0A_x1080_0A_x0929_0A_x0812_0A_x0719_0A_x1140_0A_x0528_0A_x0310_0A

> <ROCS_TanimotoCombo>
0.459 

> <ROCS_ShapeTanimoto>
0.236 

> <ROCS_ColorTanimoto>
0.223 

> <ROCS_RefTversky>
0.219 

> <ROCS_RefColorTversky>
0.306 

> <ROCS_RefTverskyCombo>
0.525 

> <ROCS_FitTversky>
1.496 

> <ROCS_FitColorTversky>
0.451 

> <ROCS_FitTverskyCombo>
1.946 

> <ROCS_ColorScore>
-11.196

> <ROCS_Overlap>
2589.174

> <ROCS_Rank>
300                 

$$$$
untitled-dbase-1108110_140
  -OEChem-02092406493D

 44 47  0     1  0  0  0  0  0999 V2000
   11.3480   14.2226   23.5897 C   0  0  0  0  0  0  0  0  0  0  0  0
   12.3838   15.1362   23.5243 C   0  0  0  0  0  0  0  0  0  0  0  0
   11.2819   16.3872   21.9413 C   0  0  0  0  0  0  0  0  0  0  0  0
    8.1155   14.8863   21.1804 C   0  0  0  0  0  0  0  0  0  0  0  0
   10.2339   14.4391   22.7686 C   0  0  0  0  0  0  0  0  0  0  0  0
   10.1809   15.5465   21.9140 C   0  0  0  0  0  0  0  0  0  0  0  0
    9.1280   13.5938   22.7417 C   0  0  0  0  0  0  0  0  0  0  0  0
    6.5820   15.1422   24.4011 C   0  0  0  0  0  0  0  0  0  0  0  0
   10.0438   10.5312   24.3709 C   0  0  0  0  0  0  0  0  0  0  0  0
    8.3668   10.5347   22.5162 C   0  0  0  0  0  0  0  0  0  0  0  0
    8.9591   11.0303   25.3420 C   0  0  0  0  0  0  0  0  0  0  0  0
    7.2748   11.0358   23.4892 C   0  0  0  0  0  0  0  0  0  0  0  0
    9.6494   11.2142   23.0508 C   0  0  0  0  0  0  0  0  0  0  0  0
    8.0753   11.9468   24.4453 C   0  0  0  0  0  0  0  0  0  0  0  0
    4.6727   16.7559   24.0282 C   0  0  0  0  0  0  0  0  0  0  0  0
    7.2736   12.9186   25.2801 C   0  0  0  0  0  0  0  0  0  0  0  0
    5.6516   15.7815   23.3986 C   0  0  0  0  0  0  0  0  0  0  0  0
   12.3791   16.2171   22.7181 N   0  0  0  0  0  0  0  0  0  0  0  0
    9.1237   15.7793   21.1145 N   0  0  0  0  0  0  0  0  0  0  0  0
    8.0513   13.7915   21.9569 N   0  0  0  0  0  0  0  0  0  0  0  0
    9.1099   12.4856   23.5528 N   0  0  2  0  0  0  0  0  0  0  0  0
    6.4732   13.7553   24.4410 N   0  0  0  0  0  0  0  0  0  0  0  0
    7.3659   15.8109   25.0703 O   0  0  0  0  0  0  0  0  0  0  0  0
    4.9220   14.8296   22.7533 F   0  0  0  0  0  0  0  0  0  0  0  0
    6.3356   16.4486   22.4281 F   0  0  0  0  0  0  0  0  0  0  0  0
   11.4243   13.3770   24.2648 H   0  0  0  0  0  0  0  0  0  0  0  0
   13.2706   15.0187   24.1379 H   0  0  0  0  0  0  0  0  0  0  0  0
   11.3188   17.2692   21.3072 H   0  0  0  0  0  0  0  0  0  0  0  0
    7.2644   15.0736   20.5370 H   0  0  0  0  0  0  0  0  0  0  0  0
   11.0336   10.8585   24.7083 H   0  0  0  0  0  0  0  0  0  0  0  0
   10.0504    9.4392   24.2962 H   0  0  0  0  0  0  0  0  0  0  0  0
    8.4390    9.4424   22.5117 H   0  0  0  0  0  0  0  0  0  0  0  0
    8.1440   10.8719   21.4974 H   0  0  0  0  0  0  0  0  0  0  0  0
    8.3868   10.2004   25.7754 H   0  0  0  0  0  0  0  0  0  0  0  0
    9.4149   11.5928   26.1679 H   0  0  0  0  0  0  0  0  0  0  0  0
    6.5152   11.5938   22.9332 H   0  0  0  0  0  0  0  0  0  0  0  0
    6.7869   10.2040   24.0031 H   0  0  0  0  0  0  0  0  0  0  0  0
   10.4503   11.2886   22.3104 H   0  0  0  0  0  0  0  0  0  0  0  0
    4.0100   17.2046   23.2766 H   0  0  0  0  0  0  0  0  0  0  0  0
    5.1758   17.5885   24.5369 H   0  0  0  0  0  0  0  0  0  0  0  0
    4.0220   16.2740   24.7696 H   0  0  0  0  0  0  0  0  0  0  0  0
    6.6314   12.3408   25.9511 H   0  0  0  0  0  0  0  0  0  0  0  0
    7.9742   13.5301   25.8560 H   0  0  0  0  0  0  0  0  0  0  0  0
    5.7807   13.3086   23.8350 H   0  0  0  0  0  0  0  0  0  0  0  0
  1  2  2  0  0  0  0
  1  5  1  0  0  0  0
  2 18  1  0  0  0  0
  3  6  1  0  0  0  0
  3 18  2  0  0  0  0
  4 19  1  0  0  0  0
  4 20  2  0  0  0  0
  5  6  1  0  0  0  0
  5  7  2  0  0  0  0
  6 19  2  0  0  0  0
  7 20  1  0  0  0  0
  7 21  1  0  0  0  0
  8 17  1  0  0  0  0
  8 22  1  0  0  0  0
  8 23  2  0  0  0  0
  9 11  1  0  0  0  0
  9 13  1  0  0  0  0
 10 12  1  0  0  0  0
 10 13  1  0  0  0  0
 11 14  1  0  0  0  0
 12 14  1  0  0  0  0
 13 21  1  0  0  0  0
 14 16  1  0  0  0  0
 14 21  1  0  0  0  0
 15 17  1  0  0  0  0
 16 22  1  0  0  0  0
 17 24  1  0  0  0  0
 17 25  1  0  0  0  0
  1 26  1  0  0  0  0
  2 27  1  0  0  0  0
  3 28  1  0  0  0  0
  4 29  1  0  0  0  0
  9 30  1  0  0  0  0
  9 31  1  0  0  0  0
 10 32  1  0  0  0  0
 10 33  1  0  0  0  0
 11 34  1  0  0  0  0
 11 35  1  0  0  0  0
 12 36  1  0  0  0  0
 12 37  1  0  0  0  0
 13 38  1  0  0  0  0
 15 39  1  0  0  0  0
 15 40  1  0  0  0  0
 15 41  1  0  0  0  0
 16 42  1  0  0  0  0
 16 43  1  0  0  0  0
 22 44  1  0  0  0  0
M  END
> <idnumber>
Z5003680099

> <heavy_atoms>
25

> <LogS>
-4.335

> <LogP>
1.568

> <rotating_bonds>
4

> <PSA>
71.01

> <hb_acceptors>
5

> <hb_donors>
1

> <Collection>
Advanced

> <link>
https://www.enaminestore.com/catalog/Z5003680099

> <ROCS_ShapeQuery>
x0446_0A_x1080_0A_x0929_0A_x0812_0A_x0719_0A_x1140_0A_x0528_0A_x0310_0A

> <ROCS_TanimotoCombo>
0.459 

> <ROCS_ShapeTanimoto>
0.267 

> <ROCS_ColorTanimoto>
0.192 

> <ROCS_RefTversky>
0.241 

> <ROCS_RefColorTversky>
0.227 

> <ROCS_RefTverskyCombo>
0.468 

> <ROCS_FitTversky>
1.645 

> <ROCS_FitColorTversky>
0.560 

> <ROCS_FitTverskyCombo>
2.205 

> <ROCS_ColorScore>
-8.158

> <ROCS_Overlap>
2854.385

> <ROCS_Rank>
301                 

$$$$
untitled-dbase-186611_133
  -OEChem-02092406493D

 42 45  0     1  0  0  0  0  0999 V2000
    5.4779   12.1199   25.3403 C   0  0  0  0  0  0  0  0  0  0  0  0
    6.1732   13.3257   25.4204 C   0  0  0  0  0  0  0  0  0  0  0  0
    6.0944   10.9920   24.8008 C   0  0  0  0  0  0  0  0  0  0  0  0
    7.4892   13.4085   24.9610 C   0  0  0  0  0  0  0  0  0  0  0  0
    9.6072   14.8693   21.2996 C   0  0  0  0  0  0  0  0  0  0  0  0
   13.2424   15.3434   22.9260 C   0  0  0  0  0  0  0  0  0  0  0  0
   10.8946   14.7262   21.8496 C   0  0  0  0  0  0  0  0  0  0  0  0
    7.4121   11.0804   24.3424 C   0  0  0  0  0  0  0  0  0  0  0  0
    8.1241   12.2869   24.4167 C   0  0  0  0  0  0  0  0  0  0  0  0
   11.2906   16.0220   22.1307 C   0  0  0  0  0  0  0  0  0  0  0  0
   11.7928   13.7098   22.1572 C   0  0  0  0  0  0  0  0  0  0  0  0
    8.0861    9.8965   23.7663 C   0  0  0  0  0  0  0  0  0  0  0  0
   10.0111   11.3515   23.4646 C   0  0  0  0  0  0  0  0  0  0  0  0
    9.7902   11.3818   20.4348 C   0  0  0  0  0  0  0  0  0  0  0  0
   10.1947   18.2626   21.8404 C   0  0  0  0  0  0  0  0  0  0  0  0
   11.4222   11.3901   22.9585 C   0  0  0  0  0  0  0  0  0  0  0  0
   11.1693   11.9396   20.5331 C   0  0  0  0  0  0  0  0  0  0  0  0
    9.2127   16.1457   21.2338 N   0  0  0  0  0  0  0  0  0  0  0  0
   12.4557   16.4114   22.6720 N   0  0  0  0  0  0  0  0  0  0  0  0
   12.9889   14.0313   22.7060 N   0  0  0  0  0  0  0  0  0  0  0  0
    9.4513   12.4078   23.9638 N   0  0  0  0  0  0  0  0  0  0  0  0
   10.2568   16.8231   21.7464 N   0  0  0  0  0  0  0  0  0  0  0  0
    9.3883   10.1258   23.3528 N   0  0  0  0  0  0  0  0  0  0  0  0
   11.4731   12.3628   21.9062 N   0  0  3  0  0  0  0  0  0  0  0  0
    7.5150    8.8161   23.6754 O   0  0  0  0  0  0  0  0  0  0  0  0
    4.4544   12.0596   25.6990 H   0  0  0  0  0  0  0  0  0  0  0  0
    5.6897   14.2027   25.8412 H   0  0  0  0  0  0  0  0  0  0  0  0
    5.5379   10.0608   24.7462 H   0  0  0  0  0  0  0  0  0  0  0  0
    8.0169   14.3567   25.0309 H   0  0  0  0  0  0  0  0  0  0  0  0
    8.9361   14.1008   20.9428 H   0  0  0  0  0  0  0  0  0  0  0  0
   14.2087   15.5655   23.3660 H   0  0  0  0  0  0  0  0  0  0  0  0
    9.0617   12.1477   20.7393 H   0  0  0  0  0  0  0  0  0  0  0  0
    9.5906   11.0785   19.3965 H   0  0  0  0  0  0  0  0  0  0  0  0
    9.7005   10.5073   21.0960 H   0  0  0  0  0  0  0  0  0  0  0  0
   10.5954   18.6788   20.9124 H   0  0  0  0  0  0  0  0  0  0  0  0
    9.1559   18.5737   21.9818 H   0  0  0  0  0  0  0  0  0  0  0  0
   10.7878   18.5947   22.6971 H   0  0  0  0  0  0  0  0  0  0  0  0
   11.6849   10.4012   22.5869 H   0  0  0  0  0  0  0  0  0  0  0  0
   12.0784   11.6714   23.7803 H   0  0  0  0  0  0  0  0  0  0  0  0
   11.8912   11.1681   20.2271 H   0  0  0  0  0  0  0  0  0  0  0  0
   11.2541   12.8076   19.8628 H   0  0  0  0  0  0  0  0  0  0  0  0
    9.9100    9.3535   22.9476 H   0  0  0  0  0  0  0  0  0  0  0  0
  1  2  1  0  0  0  0
  1  3  2  0  0  0  0
  2  4  2  0  0  0  0
  3  8  1  0  0  0  0
  4  9  1  0  0  0  0
  5  7  1  0  0  0  0
  5 18  2  0  0  0  0
  6 19  1  0  0  0  0
  6 20  2  0  0  0  0
  7 10  1  0  0  0  0
  7 11  2  0  0  0  0
  8  9  2  0  0  0  0
  8 12  1  0  0  0  0
  9 21  1  0  0  0  0
 10 19  2  0  0  0  0
 10 22  1  0  0  0  0
 11 20  1  0  0  0  0
 11 24  1  0  0  0  0
 12 23  1  0  0  0  0
 12 25  2  0  0  0  0
 13 16  1  0  0  0  0
 13 21  2  0  0  0  0
 13 23  1  0  0  0  0
 14 17  1  0  0  0  0
 15 22  1  0  0  0  0
 16 24  1  0  0  0  0
 17 24  1  0  0  0  0
 18 22  1  0  0  0  0
  1 26  1  0  0  0  0
  2 27  1  0  0  0  0
  3 28  1  0  0  0  0
  4 29  1  0  0  0  0
  5 30  1  0  0  0  0
  6 31  1  0  0  0  0
 14 32  1  0  0  0  0
 14 33  1  0  0  0  0
 14 34  1  0  0  0  0
 15 35  1  0  0  0  0
 15 36  1  0  0  0  0
 15 37  1  0  0  0  0
 16 38  1  0  0  0  0
 16 39  1  0  0  0  0
 17 40  1  0  0  0  0
 17 41  1  0  0  0  0
 23 42  1  0  0  0  0
M  END
> <idnumber>
Z238690372

> <heavy_atoms>
25

> <LogS>
-4.312

> <LogP>
0.889

> <rotating_bonds>
4

> <PSA>
88.3

> <hb_acceptors>
6

> <hb_donors>
1

> <Collection>
HTS

> <link>
https://www.enaminestore.com/catalog/Z238690372

> <ROCS_ShapeQuery>
x0446_0A_x1080_0A_x0929_0A_x0812_0A_x0719_0A_x1140_0A_x0528_0A_x0310_0A

> <ROCS_TanimotoCombo>
0.459 

> <ROCS_ShapeTanimoto>
0.257 

> <ROCS_ColorTanimoto>
0.202 

> <ROCS_RefTversky>
0.235 

> <ROCS_RefColorTversky>
0.221 

> <ROCS_RefTverskyCombo>
0.456 

> <ROCS_FitTversky>
1.594 

> <ROCS_FitColorTversky>
0.696 

> <ROCS_FitTverskyCombo>
2.290 

> <ROCS_ColorScore>
-7.925

> <ROCS_Overlap>
2777.165

> <ROCS_Rank>
302                 

$$$$
untitled-dbase-1154619_119
  -OEChem-02092406493D

 41 44  0     1  0  0  0  0  0999 V2000
    4.6238   13.4730   23.1013 C   0  0  0  0  0  0  0  0  0  0  0  0
    5.1887   15.9535   24.2463 C   0  0  0  0  0  0  0  0  0  0  0  0
   11.7669   16.2352   21.9715 C   0  0  0  0  0  0  0  0  0  0  0  0
   10.6427   15.4490   21.8468 C   0  0  0  0  0  0  0  0  0  0  0  0
   12.5698   14.8308   23.5878 C   0  0  0  0  0  0  0  0  0  0  0  0
    5.5166   13.5611   24.1694 C   0  0  0  0  0  0  0  0  0  0  0  0
    4.0135   14.6253   22.6056 C   0  0  0  0  0  0  0  0  0  0  0  0
    5.7990   14.8013   24.7419 C   0  0  0  0  0  0  0  0  0  0  0  0
    4.2959   15.8655   23.1781 C   0  0  0  0  0  0  0  0  0  0  0  0
   11.4453   14.0450   23.4637 C   0  0  0  0  0  0  0  0  0  0  0  0
    6.1570   12.3457   24.6890 C   0  0  0  0  0  0  0  0  0  0  0  0
   11.2603   12.8382   24.2802 C   0  0  0  0  0  0  0  0  0  0  0  0
    8.7935   10.5105   23.0342 C   0  0  0  0  0  0  0  0  0  0  0  0
    7.9938   12.7310   23.0388 C   0  0  0  0  0  0  0  0  0  0  0  0
    9.4688   11.3249   25.1439 C   0  0  0  0  0  0  0  0  0  0  0  0
    9.3036   11.9467   22.8511 C   0  0  1  0  0  0  0  0  0  0  0  0
    8.2123   10.8063   24.4239 C   0  0  1  0  0  0  0  0  0  0  0  0
   12.7507   15.9402   22.8442 N   0  0  0  0  0  0  0  0  0  0  0  0
   10.4617   14.3398   22.5907 N   0  0  0  0  0  0  0  0  0  0  0  0
    7.3605   11.9761   24.1234 N   0  0  0  0  0  0  0  0  0  0  0  0
   10.1008   12.1154   24.0842 N   0  0  0  0  0  0  0  0  0  0  0  0
    3.1115   14.5339   21.5252 N   0  0  0  0  0  0  0  0  0  0  0  0
    5.5865   11.7475   25.5982 O   0  0  0  0  0  0  0  0  0  0  0  0
   12.1530   12.5462   25.0725 O   0  0  0  0  0  0  0  0  0  0  0  0
    6.6551   14.8978   25.7691 F   0  0  0  0  0  0  0  0  0  0  0  0
    3.7159   16.9794   22.7090 F   0  0  0  0  0  0  0  0  0  0  0  0
    4.4034   12.5058   22.6547 H   0  0  0  0  0  0  0  0  0  0  0  0
    5.4087   16.9190   24.6918 H   0  0  0  0  0  0  0  0  0  0  0  0
   11.9118   17.1267   21.3739 H   0  0  0  0  0  0  0  0  0  0  0  0
    9.8534   15.6858   21.1437 H   0  0  0  0  0  0  0  0  0  0  0  0
   13.3655   14.6001   24.2866 H   0  0  0  0  0  0  0  0  0  0  0  0
    8.0323   10.2204   22.3018 H   0  0  0  0  0  0  0  0  0  0  0  0
    9.5969    9.7659   23.0465 H   0  0  0  0  0  0  0  0  0  0  0  0
    8.1441   13.7790   23.3263 H   0  0  0  0  0  0  0  0  0  0  0  0
    7.3476   12.6819   22.1529 H   0  0  0  0  0  0  0  0  0  0  0  0
    9.2508   11.9482   26.0200 H   0  0  0  0  0  0  0  0  0  0  0  0
   10.1506   10.5139   25.4303 H   0  0  0  0  0  0  0  0  0  0  0  0
    9.8566   12.1670   21.9400 H   0  0  0  0  0  0  0  0  0  0  0  0
    7.6834    9.9982   24.9255 H   0  0  0  0  0  0  0  0  0  0  0  0
    2.9549   13.6453   21.0942 H   0  0  0  0  0  0  0  0  0  0  0  0
    2.7164   15.3714   21.1478 H   0  0  0  0  0  0  0  0  0  0  0  0
  1  6  2  0  0  0  0
  1  7  1  0  0  0  0
  2  8  2  0  0  0  0
  2  9  1  0  0  0  0
  3  4  2  0  0  0  0
  3 18  1  0  0  0  0
  4 19  1  0  0  0  0
  5 10  1  0  0  0  0
  5 18  2  0  0  0  0
  6  8  1  0  0  0  0
  6 11  1  0  0  0  0
  7  9  2  0  0  0  0
  7 22  1  0  0  0  0
  8 25  1  0  0  0  0
  9 26  1  0  0  0  0
 10 12  1  0  0  0  0
 10 19  2  0  0  0  0
 11 20  1  0  0  0  0
 11 23  2  0  0  0  0
 12 21  1  0  0  0  0
 12 24  2  0  0  0  0
 13 16  1  1  0  0  0
 13 17  1  1  0  0  0
 14 16  1  0  0  0  0
 14 20  1  0  0  0  0
 15 17  1  0  0  0  0
 15 21  1  0  0  0  0
 16 21  1  0  0  0  0
 17 20  1  0  0  0  0
  1 27  1  0  0  0  0
  2 28  1  0  0  0  0
  3 29  1  0  0  0  0
  4 30  1  0  0  0  0
  5 31  1  0  0  0  0
 13 32  1  0  0  0  0
 13 33  1  0  0  0  0
 14 34  1  0  0  0  0
 14 35  1  0  0  0  0
 15 36  1  0  0  0  0
 15 37  1  0  0  0  0
 16 38  1  0  0  0  0
 17 39  1  0  0  0  0
 22 40  1  0  0  0  0
 22 41  1  0  0  0  0
M  END
> <idnumber>
Z7396305096

> <heavy_atoms>
26

> <LogS>
-3.141

> <LogP>
-0.711

> <rotating_bonds>
2

> <PSA>
92.42

> <hb_acceptors>
5

> <hb_donors>
1

> <Collection>
Advanced

> <link>
https://www.enaminestore.com/catalog/Z7396305096

> <ROCS_ShapeQuery>
x0446_0A_x1080_0A_x0929_0A_x0812_0A_x0719_0A_x1140_0A_x0528_0A_x0310_0A

> <ROCS_TanimotoCombo>
0.459 

> <ROCS_ShapeTanimoto>
0.241 

> <ROCS_ColorTanimoto>
0.218 

> <ROCS_RefTversky>
0.224 

> <ROCS_RefColorTversky>
0.256 

> <ROCS_RefTverskyCombo>
0.480 

> <ROCS_FitTversky>
1.485 

> <ROCS_FitColorTversky>
0.593 

> <ROCS_FitTverskyCombo>
2.078 

> <ROCS_ColorScore>
-9.227

> <ROCS_Overlap>
2644.745

> <ROCS_Rank>
303                 

$$$$
untitled-dbase-430340_3
  -OEChem-02092406493D

 36 39  0     0  0  0  0  0  0999 V2000
    6.0609   13.5788   25.0864 C   0  0  0  0  0  0  0  0  0  0  0  0
    5.7318   12.3185   25.5821 C   0  0  0  0  0  0  0  0  0  0  0  0
    7.1432   13.7321   24.2173 C   0  0  0  0  0  0  0  0  0  0  0  0
    6.4795   11.2039   25.2056 C   0  0  0  0  0  0  0  0  0  0  0  0
    7.9050   12.6184   23.8486 C   0  0  0  0  0  0  0  0  0  0  0  0
    7.5628   11.3585   24.3346 C   0  0  0  0  0  0  0  0  0  0  0  0
    9.5195   13.9981   22.4137 C   0  0  0  0  0  0  0  0  0  0  0  0
   10.6708   15.7824   21.9144 C   0  0  0  0  0  0  0  0  0  0  0  0
    9.0650   12.6928   22.9332 C   0  0  0  0  0  0  0  0  0  0  0  0
    8.3452   10.1891   23.9033 C   0  0  0  0  0  0  0  0  0  0  0  0
   11.7963   16.7469   21.8350 C   0  0  0  0  0  0  0  0  0  0  0  0
   13.0416   16.1445   21.1864 C   0  0  0  0  0  0  0  0  0  0  0  0
   13.8217   15.1931   22.0981 C   0  0  0  0  0  0  0  0  0  0  0  0
   13.1062   13.8807   22.4280 C   0  0  0  0  0  0  0  0  0  0  0  0
   11.8651   14.0548   23.2993 C   0  0  0  0  0  0  0  0  0  0  0  0
    8.7448   14.7793   21.6962 N   0  0  0  0  0  0  0  0  0  0  0  0
    9.4718   15.9082   21.3802 N   0  0  0  0  0  0  0  0  0  0  0  0
    9.7321   11.6495   22.5455 N   0  0  0  0  0  0  0  0  0  0  0  0
   10.7339   14.5878   22.5762 N   0  0  0  0  0  0  0  0  0  0  0  0
    9.3711   10.4349   23.0174 N   0  0  0  0  0  0  0  0  0  0  0  0
    8.0710    9.0676   24.3201 O   0  0  0  0  0  0  0  0  0  0  0  0
    5.4735   14.4452   25.3767 H   0  0  0  0  0  0  0  0  0  0  0  0
    4.8889   12.2038   26.2575 H   0  0  0  0  0  0  0  0  0  0  0  0
    7.3729   14.7275   23.8482 H   0  0  0  0  0  0  0  0  0  0  0  0
    6.2008   10.2284   25.5944 H   0  0  0  0  0  0  0  0  0  0  0  0
   11.4802   17.6503   21.3005 H   0  0  0  0  0  0  0  0  0  0  0  0
   12.0527   17.0602   22.8546 H   0  0  0  0  0  0  0  0  0  0  0  0
   12.7204   15.5703   20.3082 H   0  0  0  0  0  0  0  0  0  0  0  0
   13.7068   16.9354   20.8177 H   0  0  0  0  0  0  0  0  0  0  0  0
   14.8030   14.9792   21.6570 H   0  0  0  0  0  0  0  0  0  0  0  0
   14.0160   15.7166   23.0427 H   0  0  0  0  0  0  0  0  0  0  0  0
   12.7928   13.4272   21.4795 H   0  0  0  0  0  0  0  0  0  0  0  0
   13.8091   13.1802   22.8954 H   0  0  0  0  0  0  0  0  0  0  0  0
   11.5509   13.1043   23.7453 H   0  0  0  0  0  0  0  0  0  0  0  0
   12.0992   14.7391   24.1217 H   0  0  0  0  0  0  0  0  0  0  0  0
    9.9409    9.6677   22.6750 H   0  0  0  0  0  0  0  0  0  0  0  0
  1  2  1  0  0  0  0
  1  3  2  0  0  0  0
  2  4  2  0  0  0  0
  3  5  1  0  0  0  0
  4  6  1  0  0  0  0
  5  6  2  0  0  0  0
  5  9  1  0  0  0  0
  6 10  1  0  0  0  0
  7  9  1  0  0  0  0
  7 16  2  0  0  0  0
  7 19  1  0  0  0  0
  8 11  1  0  0  0  0
  8 17  2  0  0  0  0
  8 19  1  0  0  0  0
  9 18  2  0  0  0  0
 10 20  1  0  0  0  0
 10 21  2  0  0  0  0
 11 12  1  0  0  0  0
 12 13  1  0  0  0  0
 13 14  1  0  0  0  0
 14 15  1  0  0  0  0
 15 19  1  0  0  0  0
 16 17  1  0  0  0  0
 18 20  1  0  0  0  0
  1 22  1  0  0  0  0
  2 23  1  0  0  0  0
  3 24  1  0  0  0  0
  4 25  1  0  0  0  0
 11 26  1  0  0  0  0
 11 27  1  0  0  0  0
 12 28  1  0  0  0  0
 12 29  1  0  0  0  0
 13 30  1  0  0  0  0
 13 31  1  0  0  0  0
 14 32  1  0  0  0  0
 14 33  1  0  0  0  0
 15 34  1  0  0  0  0
 15 35  1  0  0  0  0
 20 36  1  0  0  0  0
M  END
> <idnumber>
Z55729775

> <heavy_atoms>
21

> <LogS>
-3.39

> <LogP>
0.647

> <rotating_bonds>
1

> <PSA>
72.17

> <hb_acceptors>
4

> <hb_donors>
1

> <Collection>
HTS

> <link>
https://www.enaminestore.com/catalog/Z55729775

> <ROCS_ShapeQuery>
x0446_0A_x1080_0A_x0929_0A_x0812_0A_x0719_0A_x1140_0A_x0528_0A_x0310_0A

> <ROCS_TanimotoCombo>
0.459 

> <ROCS_ShapeTanimoto>
0.253 

> <ROCS_ColorTanimoto>
0.206 

> <ROCS_RefTversky>
0.229 

> <ROCS_RefColorTversky>
0.222 

> <ROCS_RefTverskyCombo>
0.450 

> <ROCS_FitTversky>
1.735 

> <ROCS_FitColorTversky>
0.742 

> <ROCS_FitTverskyCombo>
2.476 

> <ROCS_ColorScore>
-7.939

> <ROCS_Overlap>
2700.364

> <ROCS_Rank>
304                 

$$$$
untitled-dbase-1175022_81
  -OEChem-02092406493D

 47 51  0     1  0  0  0  0  0999 V2000
    1.7062   11.5173   21.2830 C   0  0  0  0  0  0  0  0  0  0  0  0
    0.8806   12.0300   20.2973 C   0  0  0  0  0  0  0  0  0  0  0  0
    3.6065   11.8137   22.7980 C   0  0  0  0  0  0  0  0  0  0  0  0
    4.7445   13.8759   22.7429 C   0  0  0  0  0  0  0  0  0  0  0  0
    9.1738   14.2058   20.3027 C   0  0  0  0  0  0  0  0  0  0  0  0
    2.7498   12.2984   21.7994 C   0  0  0  0  0  0  0  0  0  0  0  0
    4.6262   12.6143   23.2832 C   0  0  0  0  0  0  0  0  0  0  0  0
    2.9420   13.5997   21.3037 C   0  0  0  0  0  0  0  0  0  0  0  0
    1.1382   13.3134   19.8680 C   0  0  0  0  0  0  0  0  0  0  0  0
    5.5427   12.1398   24.3291 C   0  0  0  0  0  0  0  0  0  0  0  0
   10.5920   13.0300   23.3607 C   0  0  0  0  0  0  0  0  0  0  0  0
    9.0309   10.0767   24.6948 C   0  0  0  0  0  0  0  0  0  0  0  0
    8.7792    9.9027   23.1844 C   0  0  0  0  0  0  0  0  0  0  0  0
    7.8712   12.2814   25.1373 C   0  0  0  0  0  0  0  0  0  0  0  0
    7.4561   11.9932   22.6552 C   0  0  0  0  0  0  0  0  0  0  0  0
    9.2191   11.5862   24.8869 C   0  0  2  0  0  0  0  0  0  0  0  0
    8.8417   11.3249   22.6108 C   0  0  1  0  0  0  0  0  0  0  0  0
   10.9366   13.3188   21.8899 C   0  0  0  0  0  0  0  0  0  0  0  0
    3.9311   14.3678   21.7789 N   0  0  0  0  0  0  0  0  0  0  0  0
    8.5472   15.3502   20.1550 N   0  0  0  0  0  0  0  0  0  0  0  0
    2.1384   14.0881   20.3499 N   0  0  0  0  0  0  0  0  0  0  0  0
    9.0430   16.1748   21.1395 N   0  0  0  0  0  0  0  0  0  0  0  0
    9.9531   15.5469   21.8740 N   0  0  0  0  0  0  0  0  0  0  0  0
   10.0332   14.3163   21.3490 N   0  0  0  0  0  0  0  0  0  0  0  0
    6.9103   12.0842   24.0324 N   0  0  0  0  0  0  0  0  0  0  0  0
    9.6768   12.0128   23.5792 N   0  0  0  0  0  0  0  0  0  0  0  0
    5.0310   11.8249   25.4026 O   0  0  0  0  0  0  0  0  0  0  0  0
   11.1042   13.6712   24.2881 O   0  0  0  0  0  0  0  0  0  0  0  0
    0.3460   13.8611   18.8934 O   0  0  0  0  0  0  0  0  0  0  0  0
    1.5345   10.5075   21.6480 H   0  0  0  0  0  0  0  0  0  0  0  0
    0.0690   11.4410   19.8869 H   0  0  0  0  0  0  0  0  0  0  0  0
    3.4727   10.8085   23.1932 H   0  0  0  0  0  0  0  0  0  0  0  0
    5.5200   14.5609   23.0718 H   0  0  0  0  0  0  0  0  0  0  0  0
    9.0486   13.3117   19.7098 H   0  0  0  0  0  0  0  0  0  0  0  0
    8.2091    9.6691   25.2924 H   0  0  0  0  0  0  0  0  0  0  0  0
    9.9460    9.5409   24.9729 H   0  0  0  0  0  0  0  0  0  0  0  0
    9.5756    9.2841   22.7542 H   0  0  0  0  0  0  0  0  0  0  0  0
    7.8244    9.4045   22.9876 H   0  0  0  0  0  0  0  0  0  0  0  0
    7.4246   11.9262   26.0729 H   0  0  0  0  0  0  0  0  0  0  0  0
    8.0167   13.3640   25.2385 H   0  0  0  0  0  0  0  0  0  0  0  0
    7.5156   13.0192   22.2722 H   0  0  0  0  0  0  0  0  0  0  0  0
    6.7592   11.4428   22.0151 H   0  0  0  0  0  0  0  0  0  0  0  0
    9.9366   11.8291   25.6763 H   0  0  0  0  0  0  0  0  0  0  0  0
    9.2515   11.3470   21.5982 H   0  0  0  0  0  0  0  0  0  0  0  0
   10.8425   12.3974   21.3191 H   0  0  0  0  0  0  0  0  0  0  0  0
   11.9587   13.6875   21.8335 H   0  0  0  0  0  0  0  0  0  0  0  0
   -0.3306   13.2238   18.6252 H   0  0  0  0  0  0  0  0  0  0  0  0
  1  2  2  0  0  0  0
  1  6  1  0  0  0  0
  2  9  1  0  0  0  0
  3  6  1  0  0  0  0
  3  7  2  0  0  0  0
  4  7  1  0  0  0  0
  4 19  2  0  0  0  0
  5 20  2  0  0  0  0
  5 24  1  0  0  0  0
  6  8  2  0  0  0  0
  7 10  1  0  0  0  0
  8 19  1  0  0  0  0
  8 21  1  0  0  0  0
  9 21  2  0  0  0  0
  9 29  1  0  0  0  0
 10 25  1  0  0  0  0
 10 27  2  0  0  0  0
 11 18  1  0  0  0  0
 11 26  1  0  0  0  0
 11 28  2  0  0  0  0
 12 13  1  0  0  0  0
 12 16  1  0  0  0  0
 13 17  1  0  0  0  0
 14 16  1  0  0  0  0
 14 25  1  0  0  0  0
 15 17  1  0  0  0  0
 15 25  1  0  0  0  0
 16 26  1  0  0  0  0
 17 26  1  0  0  0  0
 18 24  1  0  0  0  0
 20 22  1  0  0  0  0
 22 23  2  0  0  0  0
 23 24  1  0  0  0  0
  1 30  1  0  0  0  0
  2 31  1  0  0  0  0
  3 32  1  0  0  0  0
  4 33  1  0  0  0  0
  5 34  1  0  0  0  0
 12 35  1  0  0  0  0
 12 36  1  0  0  0  0
 13 37  1  0  0  0  0
 13 38  1  0  0  0  0
 14 39  1  0  0  0  0
 14 40  1  0  0  0  0
 15 41  1  0  0  0  0
 15 42  1  0  0  0  0
 16 43  1  0  0  0  0
 17 44  1  0  0  0  0
 18 45  1  0  0  0  0
 18 46  1  0  0  0  0
 29 47  1  0  0  0  0
M  END
> <idnumber>
Z8653534630

> <heavy_atoms>
29

> <LogS>
-3.432

> <LogP>
0.558

> <rotating_bonds>
3

> <PSA>
130.23

> <hb_acceptors>
8

> <hb_donors>
1

> <Collection>
Advanced

> <link>
https://www.enaminestore.com/catalog/Z8653534630

> <ROCS_ShapeQuery>
x0446_0A_x1080_0A_x0929_0A_x0812_0A_x0719_0A_x1140_0A_x0528_0A_x0310_0A

> <ROCS_TanimotoCombo>
0.459 

> <ROCS_ShapeTanimoto>
0.230 

> <ROCS_ColorTanimoto>
0.229 

> <ROCS_RefTversky>
0.217 

> <ROCS_RefColorTversky>
0.286 

> <ROCS_RefTverskyCombo>
0.504 

> <ROCS_FitTversky>
1.336 

> <ROCS_FitColorTversky>
0.533 

> <ROCS_FitTverskyCombo>
1.869 

> <ROCS_ColorScore>
-10.386

> <ROCS_Overlap>
2571.408

> <ROCS_Rank>
305                 

$$$$
untitled-dbase-441569_8
  -OEChem-02092406493D

 45 49  0     0  0  0  0  0  0999 V2000
   13.1671   14.5915   22.3761 C   0  0  0  0  0  0  0  0  0  0  0  0
    9.6683   16.1027   19.3851 C   0  0  0  0  0  0  0  0  0  0  0  0
   12.7862   15.1375   21.1537 C   0  0  0  0  0  0  0  0  0  0  0  0
   11.0170   15.9016   19.6412 C   0  0  0  0  0  0  0  0  0  0  0  0
   12.1951   14.2597   23.3117 C   0  0  0  0  0  0  0  0  0  0  0  0
    8.7713   15.7446   20.3710 C   0  0  0  0  0  0  0  0  0  0  0  0
   11.4283   15.3535   20.8637 C   0  0  0  0  0  0  0  0  0  0  0  0
    8.0413   12.5829   24.0783 C   0  0  0  0  0  0  0  0  0  0  0  0
    6.8896   13.4165   24.2762 C   0  0  0  0  0  0  0  0  0  0  0  0
   10.4360   15.0192   21.8089 C   0  0  0  0  0  0  0  0  0  0  0  0
   10.8452   14.4746   23.0231 C   0  0  0  0  0  0  0  0  0  0  0  0
    5.7290   12.6705   24.3718 C   0  0  0  0  0  0  0  0  0  0  0  0
    9.4069   12.8564   23.9370 C   0  0  0  0  0  0  0  0  0  0  0  0
    7.6801   11.2418   24.0249 C   0  0  0  0  0  0  0  0  0  0  0  0
    9.7950   10.5977   23.7255 C   0  0  0  0  0  0  0  0  0  0  0  0
    6.8807   14.9115   24.4034 C   0  0  0  0  0  0  0  0  0  0  0  0
    4.3547   13.2335   24.5588 C   0  0  0  0  0  0  0  0  0  0  0  0
    5.4690   15.4939   24.2346 C   0  0  0  0  0  0  0  0  0  0  0  0
    4.4283   14.6938   25.0298 C   0  0  0  0  0  0  0  0  0  0  0  0
   11.2566    9.4040   22.0746 C   0  0  0  0  0  0  0  0  0  0  0  0
   10.7973    9.5098   23.5260 C   0  0  0  0  0  0  0  0  0  0  0  0
    9.1265   15.2132   21.5632 N   0  0  0  0  0  0  0  0  0  0  0  0
   10.2890   11.8502   23.7587 N   0  0  0  0  0  0  0  0  0  0  0  0
    8.5166   10.2004   23.8490 N   0  0  0  0  0  0  0  0  0  0  0  0
    9.9108   14.1334   23.9783 O   0  0  0  0  0  0  0  0  0  0  0  0
    6.0041   11.0000   24.2117 S   0  0  0  0  0  0  0  0  0  0  0  0
   14.2173   14.4252   22.5960 H   0  0  0  0  0  0  0  0  0  0  0  0
    9.3328   16.5258   18.4456 H   0  0  0  0  0  0  0  0  0  0  0  0
   13.5551   15.3921   20.4276 H   0  0  0  0  0  0  0  0  0  0  0  0
   11.7458   16.1749   18.8817 H   0  0  0  0  0  0  0  0  0  0  0  0
   12.4909   13.8339   24.2667 H   0  0  0  0  0  0  0  0  0  0  0  0
    7.7043   15.8795   20.2275 H   0  0  0  0  0  0  0  0  0  0  0  0
    7.2685   15.1796   25.3939 H   0  0  0  0  0  0  0  0  0  0  0  0
    7.5411   15.3652   23.6564 H   0  0  0  0  0  0  0  0  0  0  0  0
    3.8199   13.1882   23.6018 H   0  0  0  0  0  0  0  0  0  0  0  0
    3.7826   12.6452   25.2851 H   0  0  0  0  0  0  0  0  0  0  0  0
    5.4649   16.5407   24.5584 H   0  0  0  0  0  0  0  0  0  0  0  0
    5.1925   15.4857   23.1724 H   0  0  0  0  0  0  0  0  0  0  0  0
    3.4414   15.1597   24.9317 H   0  0  0  0  0  0  0  0  0  0  0  0
    4.6919   14.7235   26.0950 H   0  0  0  0  0  0  0  0  0  0  0  0
   10.4063    9.2394   21.4040 H   0  0  0  0  0  0  0  0  0  0  0  0
   11.9536    8.5696   21.9493 H   0  0  0  0  0  0  0  0  0  0  0  0
   11.7638   10.3207   21.7550 H   0  0  0  0  0  0  0  0  0  0  0  0
   11.6748    9.6746   24.1709 H   0  0  0  0  0  0  0  0  0  0  0  0
   10.3793    8.5414   23.8436 H   0  0  0  0  0  0  0  0  0  0  0  0
  1  3  1  0  0  0  0
  1  5  2  0  0  0  0
  2  4  2  0  0  0  0
  2  6  1  0  0  0  0
  3  7  2  0  0  0  0
  4  7  1  0  0  0  0
  5 11  1  0  0  0  0
  6 22  2  0  0  0  0
  7 10  1  0  0  0  0
  8  9  1  0  0  0  0
  8 13  1  0  0  0  0
  8 14  2  0  0  0  0
  9 12  2  0  0  0  0
  9 16  1  0  0  0  0
 10 11  2  0  0  0  0
 10 22  1  0  0  0  0
 11 25  1  0  0  0  0
 12 17  1  0  0  0  0
 12 26  1  0  0  0  0
 13 23  2  0  0  0  0
 13 25  1  0  0  0  0
 14 24  1  0  0  0  0
 14 26  1  0  0  0  0
 15 21  1  0  0  0  0
 15 23  1  0  0  0  0
 15 24  2  0  0  0  0
 16 18  1  0  0  0  0
 17 19  1  0  0  0  0
 18 19  1  0  0  0  0
 20 21  1  0  0  0  0
  1 27  1  0  0  0  0
  2 28  1  0  0  0  0
  3 29  1  0  0  0  0
  4 30  1  0  0  0  0
  5 31  1  0  0  0  0
  6 32  1  0  0  0  0
 16 33  1  0  0  0  0
 16 34  1  0  0  0  0
 17 35  1  0  0  0  0
 17 36  1  0  0  0  0
 18 37  1  0  0  0  0
 18 38  1  0  0  0  0
 19 39  1  0  0  0  0
 19 40  1  0  0  0  0
 20 41  1  0  0  0  0
 20 42  1  0  0  0  0
 20 43  1  0  0  0  0
 21 44  1  0  0  0  0
 21 45  1  0  0  0  0
M  END
> <idnumber>
Z56813601

> <heavy_atoms>
26

> <LogS>
-6.74

> <LogP>
5.471

> <rotating_bonds>
3

> <PSA>
47.9

> <hb_acceptors>
3

> <hb_donors>
0

> <Collection>
HTS

> <link>
https://www.enaminestore.com/catalog/Z56813601

> <ROCS_ShapeQuery>
x0446_0A_x1080_0A_x0929_0A_x0812_0A_x0719_0A_x1140_0A_x0528_0A_x0310_0A

> <ROCS_TanimotoCombo>
0.459 

> <ROCS_ShapeTanimoto>
0.260 

> <ROCS_ColorTanimoto>
0.199 

> <ROCS_RefTversky>
0.237 

> <ROCS_RefColorTversky>
0.218 

> <ROCS_RefTverskyCombo>
0.456 

> <ROCS_FitTversky>
1.587 

> <ROCS_FitColorTversky>
0.686 

> <ROCS_FitTverskyCombo>
2.273 

> <ROCS_ColorScore>
-7.827

> <ROCS_Overlap>
2807.888

> <ROCS_Rank>
306                 

$$$$
untitled-dbase-960275_14
  -OEChem-02092406493D

 54 58  0     1  0  0  0  0  0999 V2000
    6.4958   14.5649   20.6259 C   0  0  0  0  0  0  0  0  0  0  0  0
    5.7779   15.4299   21.3447 C   0  0  0  0  0  0  0  0  0  0  0  0
    7.3141   13.4528   22.4529 C   0  0  0  0  0  0  0  0  0  0  0  0
    6.5306   14.3901   23.3666 C   0  0  0  0  0  0  0  0  0  0  0  0
   10.3162   12.9000   22.2463 C   0  0  0  0  0  0  0  0  0  0  0  0
   13.2544   15.8810   21.7977 C   0  0  0  0  0  0  0  0  0  0  0  0
   12.7701   14.9785   20.6640 C   0  0  0  0  0  0  0  0  0  0  0  0
   12.9002   15.2851   23.1594 C   0  0  0  0  0  0  0  0  0  0  0  0
    9.7778   10.2092   23.5007 C   0  0  0  0  0  0  0  0  0  0  0  0
    8.3416   10.0832   22.9745 C   0  0  0  0  0  0  0  0  0  0  0  0
    3.5220   16.5009   23.1550 C   0  0  0  0  0  0  0  0  0  0  0  0
    3.9612   15.8846   24.4518 C   0  0  0  0  0  0  0  0  0  0  0  0
    7.5256   11.2114   25.0699 C   0  0  0  0  0  0  0  0  0  0  0  0
   11.2835   14.6638   20.8055 C   0  0  0  0  0  0  0  0  0  0  0  0
   11.4103   14.9633   23.2542 C   0  0  0  0  0  0  0  0  0  0  0  0
    9.4541   12.7172   23.4699 C   0  0  2  0  0  0  0  0  0  0  0  0
    9.9158   11.5091   24.3197 C   0  0  1  0  0  0  0  0  0  0  0  0
    4.9851   16.3224   23.4440 C   0  0  0  0  0  0  0  0  0  0  0  0
    7.4706   11.2244   23.5284 C   0  0  1  0  0  0  0  0  0  0  0  0
    8.9735   11.4021   25.5281 C   0  0  0  0  0  0  0  0  0  0  0  0
    7.2694   13.5709   21.1545 N   0  0  0  0  0  0  0  0  0  0  0  0
    5.7803   15.3611   22.7152 N   0  0  0  0  0  0  0  0  0  0  0  0
    8.0515   12.5016   23.0705 N   0  0  3  0  0  0  0  0  0  0  0  0
   10.9879   14.1166   22.1314 N   0  0  0  0  0  0  0  0  0  0  0  0
    6.6198   14.2199   24.5757 O   0  0  0  0  0  0  0  0  0  0  0  0
   10.3907   11.9872   21.4197 O   0  0  0  0  0  0  0  0  0  0  0  0
    9.0704   12.5203   26.2895 F   0  0  0  0  0  0  0  0  0  0  0  0
    9.3463   10.3671   26.3203 F   0  0  0  0  0  0  0  0  0  0  0  0
    6.4884   14.6266   19.5429 H   0  0  0  0  0  0  0  0  0  0  0  0
    5.1777   16.2040   20.8807 H   0  0  0  0  0  0  0  0  0  0  0  0
   14.3383   16.0231   21.7236 H   0  0  0  0  0  0  0  0  0  0  0  0
   12.7922   16.8709   21.7001 H   0  0  0  0  0  0  0  0  0  0  0  0
   12.9543   15.4674   19.7009 H   0  0  0  0  0  0  0  0  0  0  0  0
   13.3446   14.0440   20.6656 H   0  0  0  0  0  0  0  0  0  0  0  0
   13.4835   14.3707   23.3251 H   0  0  0  0  0  0  0  0  0  0  0  0
   13.1766   15.9902   23.9512 H   0  0  0  0  0  0  0  0  0  0  0  0
   10.0222    9.3410   24.1247 H   0  0  0  0  0  0  0  0  0  0  0  0
   10.4863   10.1926   22.6649 H   0  0  0  0  0  0  0  0  0  0  0  0
    8.3395   10.1049   21.8779 H   0  0  0  0  0  0  0  0  0  0  0  0
    7.9253    9.1123   23.2686 H   0  0  0  0  0  0  0  0  0  0  0  0
    3.0558   15.8524   22.4233 H   0  0  0  0  0  0  0  0  0  0  0  0
    3.1211   17.5069   23.1834 H   0  0  0  0  0  0  0  0  0  0  0  0
    3.8558   16.4762   25.3528 H   0  0  0  0  0  0  0  0  0  0  0  0
    3.7907   14.8237   24.5879 H   0  0  0  0  0  0  0  0  0  0  0  0
    6.8906   12.0090   25.4727 H   0  0  0  0  0  0  0  0  0  0  0  0
    7.1337   10.2589   25.4449 H   0  0  0  0  0  0  0  0  0  0  0  0
   10.6858   15.5756   20.6880 H   0  0  0  0  0  0  0  0  0  0  0  0
   10.9765   13.9681   20.0182 H   0  0  0  0  0  0  0  0  0  0  0  0
   11.2017   14.4988   24.2194 H   0  0  0  0  0  0  0  0  0  0  0  0
   10.8175   15.8845   23.2038 H   0  0  0  0  0  0  0  0  0  0  0  0
    9.5282   13.6354   24.0653 H   0  0  0  0  0  0  0  0  0  0  0  0
   10.9528   11.6356   24.6498 H   0  0  0  0  0  0  0  0  0  0  0  0
    5.5466   17.2202   23.6795 H   0  0  0  0  0  0  0  0  0  0  0  0
    6.4370   11.1082   23.1834 H   0  0  0  0  0  0  0  0  0  0  0  0
  1  2  2  0  0  0  0
  1 21  1  0  0  0  0
  2 22  1  0  0  0  0
  3  4  1  0  0  0  0
  3 21  2  0  0  0  0
  3 23  1  0  0  0  0
  4 22  1  0  0  0  0
  4 25  2  0  0  0  0
  5 16  1  6  0  0  0
  5 24  1  0  0  0  0
  5 26  2  0  0  0  0
  6  7  1  0  0  0  0
  6  8  1  0  0  0  0
  7 14  1  0  0  0  0
  8 15  1  0  0  0  0
  9 10  1  0  0  0  0
  9 17  1  6  0  0  0
 10 19  1  0  0  0  0
 11 12  1  0  0  0  0
 11 18  1  0  0  0  0
 12 18  1  0  0  0  0
 13 19  1  0  0  0  0
 13 20  1  0  0  0  0
 14 24  1  0  0  0  0
 15 24  1  0  0  0  0
 16 17  1  0  0  0  0
 16 23  1  0  0  0  0
 17 20  1  0  0  0  0
 18 22  1  0  0  0  0
 19 23  1  1  0  0  0
 20 27  1  0  0  0  0
 20 28  1  0  0  0  0
  1 29  1  0  0  0  0
  2 30  1  0  0  0  0
  6 31  1  0  0  0  0
  6 32  1  0  0  0  0
  7 33  1  0  0  0  0
  7 34  1  0  0  0  0
  8 35  1  0  0  0  0
  8 36  1  0  0  0  0
  9 37  1  0  0  0  0
  9 38  1  0  0  0  0
 10 39  1  0  0  0  0
 10 40  1  0  0  0  0
 11 41  1  0  0  0  0
 11 42  1  0  0  0  0
 12 43  1  0  0  0  0
 12 44  1  0  0  0  0
 13 45  1  0  0  0  0
 13 46  1  0  0  0  0
 14 47  1  0  0  0  0
 14 48  1  0  0  0  0
 15 49  1  0  0  0  0
 15 50  1  0  0  0  0
 16 51  1  0  0  0  0
 17 52  1  0  0  0  0
 18 53  1  0  0  0  0
 19 54  1  0  0  0  0
M  END
> <idnumber>
Z2803805631

> <heavy_atoms>
28

> <LogS>
-3.201

> <LogP>
1.061

> <rotating_bonds>
3

> <PSA>
56.22

> <hb_acceptors>
4

> <hb_donors>
0

> <Collection>
Advanced

> <link>
https://www.enaminestore.com/catalog/Z2803805631

> <ROCS_ShapeQuery>
x0446_0A_x1080_0A_x0929_0A_x0812_0A_x0719_0A_x1140_0A_x0528_0A_x0310_0A

> <ROCS_TanimotoCombo>
0.459 

> <ROCS_ShapeTanimoto>
0.269 

> <ROCS_ColorTanimoto>
0.190 

> <ROCS_RefTversky>
0.245 

> <ROCS_RefColorTversky>
0.215 

> <ROCS_RefTverskyCombo>
0.460 

> <ROCS_FitTversky>
1.566 

> <ROCS_FitColorTversky>
0.624 

> <ROCS_FitTverskyCombo>
2.190 

> <ROCS_ColorScore>
-7.697

> <ROCS_Overlap>
2899.597

> <ROCS_Rank>
307                 

$$$$
untitled-dbase-430342_12
  -OEChem-02092406493D

 48 51  0     0  0  0  0  0  0999 V2000
    6.1765   13.5238   24.9498 C   0  0  0  0  0  0  0  0  0  0  0  0
    5.8634   12.2421   25.3967 C   0  0  0  0  0  0  0  0  0  0  0  0
    7.2564   13.7218   24.0877 C   0  0  0  0  0  0  0  0  0  0  0  0
    6.6252   11.1525   24.9771 C   0  0  0  0  0  0  0  0  0  0  0  0
    8.0315   12.6315   23.6769 C   0  0  0  0  0  0  0  0  0  0  0  0
    7.7078   11.3506   24.1119 C   0  0  0  0  0  0  0  0  0  0  0  0
    9.6292   14.0856   22.3030 C   0  0  0  0  0  0  0  0  0  0  0  0
   10.7632   15.9000   21.8776 C   0  0  0  0  0  0  0  0  0  0  0  0
    9.1873   12.7558   22.7686 C   0  0  0  0  0  0  0  0  0  0  0  0
    8.5023   10.2030   23.6390 C   0  0  0  0  0  0  0  0  0  0  0  0
   11.8792   16.8777   21.8382 C   0  0  0  0  0  0  0  0  0  0  0  0
   13.1304   16.3144   21.1664 C   0  0  0  0  0  0  0  0  0  0  0  0
   13.9195   15.3343   22.0390 C   0  0  0  0  0  0  0  0  0  0  0  0
   13.2169   14.0026   22.3147 C   0  0  0  0  0  0  0  0  0  0  0  0
   11.9739   14.1290   23.1917 C   0  0  0  0  0  0  0  0  0  0  0  0
   13.6518    9.8487   24.2499 C   0  0  0  0  0  0  0  0  0  0  0  0
   12.1620    9.6833   23.9930 C   0  0  0  0  0  0  0  0  0  0  0  0
   11.8535    9.6530   22.4943 C   0  0  0  0  0  0  0  0  0  0  0  0
   10.3731    9.4277   22.2053 C   0  0  0  0  0  0  0  0  0  0  0  0
    8.8470   14.8878   21.6175 N   0  0  0  0  0  0  0  0  0  0  0  0
    9.5630   16.0358   21.3482 N   0  0  0  0  0  0  0  0  0  0  0  0
    9.8661   11.7387   22.3389 N   0  0  0  0  0  0  0  0  0  0  0  0
   10.8378   14.6800   22.4902 N   0  0  0  0  0  0  0  0  0  0  0  0
    9.5348   10.4826   22.7507 N   0  0  0  0  0  0  0  0  0  0  0  0
    8.2147    9.0769   24.0393 O   0  0  0  0  0  0  0  0  0  0  0  0
    5.5788   14.3712   25.2733 H   0  0  0  0  0  0  0  0  0  0  0  0
    5.0227   12.0909   26.0675 H   0  0  0  0  0  0  0  0  0  0  0  0
    7.4745   14.7332   23.7571 H   0  0  0  0  0  0  0  0  0  0  0  0
    6.3569   10.1604   25.3299 H   0  0  0  0  0  0  0  0  0  0  0  0
   11.5544   17.7991   21.3408 H   0  0  0  0  0  0  0  0  0  0  0  0
   12.1323   17.1517   22.8699 H   0  0  0  0  0  0  0  0  0  0  0  0
   12.8149   15.7734   20.2652 H   0  0  0  0  0  0  0  0  0  0  0  0
   13.7879   17.1261   20.8305 H   0  0  0  0  0  0  0  0  0  0  0  0
   14.9030   15.1481   21.5901 H   0  0  0  0  0  0  0  0  0  0  0  0
   14.1086   15.8207   23.0042 H   0  0  0  0  0  0  0  0  0  0  0  0
   12.9080   13.5851   21.3483 H   0  0  0  0  0  0  0  0  0  0  0  0
   13.9264   13.2905   22.7536 H   0  0  0  0  0  0  0  0  0  0  0  0
   11.6689   13.1581   23.5983 H   0  0  0  0  0  0  0  0  0  0  0  0
   12.2012   14.7815   24.0414 H   0  0  0  0  0  0  0  0  0  0  0  0
   14.0285   10.7695   23.7931 H   0  0  0  0  0  0  0  0  0  0  0  0
   13.8475    9.8983   25.3256 H   0  0  0  0  0  0  0  0  0  0  0  0
   14.2169    9.0054   23.8404 H   0  0  0  0  0  0  0  0  0  0  0  0
   11.8178    8.7544   24.4624 H   0  0  0  0  0  0  0  0  0  0  0  0
   11.6254   10.5087   24.4740 H   0  0  0  0  0  0  0  0  0  0  0  0
   12.1831   10.5918   22.0322 H   0  0  0  0  0  0  0  0  0  0  0  0
   12.4270    8.8438   22.0262 H   0  0  0  0  0  0  0  0  0  0  0  0
   10.0274    8.4759   22.6205 H   0  0  0  0  0  0  0  0  0  0  0  0
   10.2015    9.4102   21.1244 H   0  0  0  0  0  0  0  0  0  0  0  0
  1  2  1  0  0  0  0
  1  3  2  0  0  0  0
  2  4  2  0  0  0  0
  3  5  1  0  0  0  0
  4  6  1  0  0  0  0
  5  6  2  0  0  0  0
  5  9  1  0  0  0  0
  6 10  1  0  0  0  0
  7  9  1  0  0  0  0
  7 20  2  0  0  0  0
  7 23  1  0  0  0  0
  8 11  1  0  0  0  0
  8 21  2  0  0  0  0
  8 23  1  0  0  0  0
  9 22  2  0  0  0  0
 10 24  1  0  0  0  0
 10 25  2  0  0  0  0
 11 12  1  0  0  0  0
 12 13  1  0  0  0  0
 13 14  1  0  0  0  0
 14 15  1  0  0  0  0
 15 23  1  0  0  0  0
 16 17  1  0  0  0  0
 17 18  1  0  0  0  0
 18 19  1  0  0  0  0
 19 24  1  0  0  0  0
 20 21  1  0  0  0  0
 22 24  1  0  0  0  0
  1 26  1  0  0  0  0
  2 27  1  0  0  0  0
  3 28  1  0  0  0  0
  4 29  1  0  0  0  0
 11 30  1  0  0  0  0
 11 31  1  0  0  0  0
 12 32  1  0  0  0  0
 12 33  1  0  0  0  0
 13 34  1  0  0  0  0
 13 35  1  0  0  0  0
 14 36  1  0  0  0  0
 14 37  1  0  0  0  0
 15 38  1  0  0  0  0
 15 39  1  0  0  0  0
 16 40  1  0  0  0  0
 16 41  1  0  0  0  0
 16 42  1  0  0  0  0
 17 43  1  0  0  0  0
 17 44  1  0  0  0  0
 18 45  1  0  0  0  0
 18 46  1  0  0  0  0
 19 47  1  0  0  0  0
 19 48  1  0  0  0  0
M  END
> <idnumber>
Z55729781

> <heavy_atoms>
25

> <LogS>
-4.211

> <LogP>
2.697

> <rotating_bonds>
4

> <PSA>
63.38

> <hb_acceptors>
4

> <hb_donors>
0

> <Collection>
Advanced

> <link>
https://www.enaminestore.com/catalog/Z55729781

> <ROCS_ShapeQuery>
x0446_0A_x1080_0A_x0929_0A_x0812_0A_x0719_0A_x1140_0A_x0528_0A_x0310_0A

> <ROCS_TanimotoCombo>
0.459 

> <ROCS_ShapeTanimoto>
0.275 

> <ROCS_ColorTanimoto>
0.184 

> <ROCS_RefTversky>
0.247 

> <ROCS_RefColorTversky>
0.202 

> <ROCS_RefTverskyCombo>
0.449 

> <ROCS_FitTversky>
1.705 

> <ROCS_FitColorTversky>
0.675 

> <ROCS_FitTverskyCombo>
2.381 

> <ROCS_ColorScore>
-7.230

> <ROCS_Overlap>
2917.118

> <ROCS_Rank>
308                 

$$$$
untitled-dbase-710091_185
  -OEChem-02092406493D

 63 68  0     1  0  0  0  0  0999 V2000
    9.6757   14.6337   21.5857 C   0  0  0  0  0  0  0  0  0  0  0  0
   11.7100   14.2665   22.8362 C   0  0  0  0  0  0  0  0  0  0  0  0
   10.2376   15.7709   21.0056 C   0  0  0  0  0  0  0  0  0  0  0  0
   12.2719   15.4037   22.2560 C   0  0  0  0  0  0  0  0  0  0  0  0
   10.4119   13.8815   22.5011 C   0  0  0  0  0  0  0  0  0  0  0  0
   11.5357   16.1559   21.3407 C   0  0  0  0  0  0  0  0  0  0  0  0
    3.7276   11.1462   20.4171 C   0  0  0  0  0  0  0  0  0  0  0  0
    3.4148   11.3193   19.0312 C   0  0  0  0  0  0  0  0  0  0  0  0
    3.7443   12.2065   21.2468 C   0  0  0  0  0  0  0  0  0  0  0  0
    3.1395   12.5292   18.5455 C   0  0  0  0  0  0  0  0  0  0  0  0
    3.4299   13.5818   20.6955 C   0  0  0  0  0  0  0  0  0  0  0  0
    6.1215   11.7656   24.0549 C   0  0  0  0  0  0  0  0  0  0  0  0
    3.3576   10.2722   17.9784 C   0  0  0  0  0  0  0  0  0  0  0  0
    2.8462   12.5245   17.0925 C   0  0  0  0  0  0  0  0  0  0  0  0
    2.6830   11.0212   16.8163 C   0  0  0  0  0  0  0  0  0  0  0  0
   10.0101    9.9350   24.4253 C   0  0  0  0  0  0  0  0  0  0  0  0
   10.0520   11.3169   22.3360 C   0  0  0  0  0  0  0  0  0  0  0  0
   10.3776   12.4129   24.5684 C   0  0  0  0  0  0  0  0  0  0  0  0
    7.8979   10.3107   23.1272 C   0  0  0  0  0  0  0  0  0  0  0  0
    8.2162   11.4147   25.3587 C   0  0  0  0  0  0  0  0  0  0  0  0
    8.2493   12.7950   23.2594 C   0  0  0  0  0  0  0  0  0  0  0  0
    9.4141   10.0957   23.0199 C   0  0  2  0  0  0  0  0  0  0  0  0
    9.7342   11.1959   25.2559 C   0  0  1  0  0  0  0  0  0  0  0  0
    9.7935   12.6282   23.1409 C   0  0  0  0  0  0  0  0  0  0  0  0
    7.6084   11.5754   23.9525 C   0  0  0  0  0  0  0  0  0  0  0  0
   12.1364   17.3710   20.7186 C   0  0  0  0  0  0  0  0  0  0  0  0
    4.0615   12.1057   22.7047 C   0  0  0  0  0  0  0  0  0  0  0  0
    3.1416   13.6399   19.3361 N   0  0  0  0  0  0  0  0  0  0  0  0
    5.4879   11.9130   22.8358 N   0  0  0  0  0  0  0  0  0  0  0  0
    3.4361   14.5714   21.4249 O   0  0  0  0  0  0  0  0  0  0  0  0
    5.5884   11.7764   25.1582 O   0  0  0  0  0  0  0  0  0  0  0  0
    8.6633   14.3415   21.3192 H   0  0  0  0  0  0  0  0  0  0  0  0
   12.2911   13.6854   23.5476 H   0  0  0  0  0  0  0  0  0  0  0  0
    9.6573   16.3501   20.2923 H   0  0  0  0  0  0  0  0  0  0  0  0
   13.2839   15.6967   22.5228 H   0  0  0  0  0  0  0  0  0  0  0  0
    3.9479   10.1454   20.7726 H   0  0  0  0  0  0  0  0  0  0  0  0
    4.3650    9.9418   17.7039 H   0  0  0  0  0  0  0  0  0  0  0  0
    2.7647    9.4029   18.2787 H   0  0  0  0  0  0  0  0  0  0  0  0
    1.9322   13.0712   16.8426 H   0  0  0  0  0  0  0  0  0  0  0  0
    3.6837   12.9433   16.5250 H   0  0  0  0  0  0  0  0  0  0  0  0
    3.1052   10.7358   15.8471 H   0  0  0  0  0  0  0  0  0  0  0  0
    1.6149   10.7677   16.7884 H   0  0  0  0  0  0  0  0  0  0  0  0
    9.5754    9.0575   24.9192 H   0  0  0  0  0  0  0  0  0  0  0  0
   11.0907    9.7593   24.3571 H   0  0  0  0  0  0  0  0  0  0  0  0
   11.1326   11.1531   22.2247 H   0  0  0  0  0  0  0  0  0  0  0  0
    9.6531   11.4180   21.3175 H   0  0  0  0  0  0  0  0  0  0  0  0
   10.2117   13.3105   25.1794 H   0  0  0  0  0  0  0  0  0  0  0  0
   11.4659   12.2750   24.5145 H   0  0  0  0  0  0  0  0  0  0  0  0
    7.4597   10.3985   22.1243 H   0  0  0  0  0  0  0  0  0  0  0  0
    7.4271    9.4337   23.5911 H   0  0  0  0  0  0  0  0  0  0  0  0
    7.7539   10.5671   25.8817 H   0  0  0  0  0  0  0  0  0  0  0  0
    8.0056   12.3024   25.9696 H   0  0  0  0  0  0  0  0  0  0  0  0
    8.0141   13.7111   23.8198 H   0  0  0  0  0  0  0  0  0  0  0  0
    7.8099   12.9389   22.2619 H   0  0  0  0  0  0  0  0  0  0  0  0
    9.6171    9.1956   22.4289 H   0  0  0  0  0  0  0  0  0  0  0  0
   10.1575   11.0756   26.2595 H   0  0  0  0  0  0  0  0  0  0  0  0
   11.9213   18.2578   21.3273 H   0  0  0  0  0  0  0  0  0  0  0  0
   13.2252   17.2718   20.6209 H   0  0  0  0  0  0  0  0  0  0  0  0
   11.7409   17.5382   19.7082 H   0  0  0  0  0  0  0  0  0  0  0  0
    3.5218   11.2574   23.1328 H   0  0  0  0  0  0  0  0  0  0  0  0
    3.7542   13.0275   23.2049 H   0  0  0  0  0  0  0  0  0  0  0  0
    2.9248   14.5363   18.9110 H   0  0  0  0  0  0  0  0  0  0  0  0
    6.0515   11.8845   21.9914 H   0  0  0  0  0  0  0  0  0  0  0  0
  1  3  2  0  0  0  0
  1  5  1  0  0  0  0
  2  4  1  0  0  0  0
  2  5  2  0  0  0  0
  3  6  1  0  0  0  0
  4  6  2  0  0  0  0
  5 24  1  0  0  0  0
  6 26  1  0  0  0  0
  7  8  1  0  0  0  0
  7  9  2  0  0  0  0
  8 10  2  0  0  0  0
  8 13  1  0  0  0  0
  9 11  1  0  0  0  0
  9 27  1  0  0  0  0
 10 14  1  0  0  0  0
 10 28  1  0  0  0  0
 11 28  1  0  0  0  0
 11 30  2  0  0  0  0
 12 25  1  0  0  0  0
 12 29  1  0  0  0  0
 12 31  2  0  0  0  0
 13 15  1  0  0  0  0
 14 15  1  0  0  0  0
 16 22  1  0  0  0  0
 16 23  1  0  0  0  0
 17 22  1  0  0  0  0
 17 24  1  0  0  0  0
 18 23  1  0  0  0  0
 18 24  1  0  0  0  0
 19 22  1  0  0  0  0
 19 25  1  0  0  0  0
 20 23  1  0  0  0  0
 20 25  1  0  0  0  0
 21 24  1  0  0  0  0
 21 25  1  0  0  0  0
 27 29  1  0  0  0  0
  1 32  1  0  0  0  0
  2 33  1  0  0  0  0
  3 34  1  0  0  0  0
  4 35  1  0  0  0  0
  7 36  1  0  0  0  0
 13 37  1  0  0  0  0
 13 38  1  0  0  0  0
 14 39  1  0  0  0  0
 14 40  1  0  0  0  0
 15 41  1  0  0  0  0
 15 42  1  0  0  0  0
 16 43  1  0  0  0  0
 16 44  1  0  0  0  0
 17 45  1  0  0  0  0
 17 46  1  0  0  0  0
 18 47  1  0  0  0  0
 18 48  1  0  0  0  0
 19 49  1  0  0  0  0
 19 50  1  0  0  0  0
 20 51  1  0  0  0  0
 20 52  1  0  0  0  0
 21 53  1  0  0  0  0
 21 54  1  0  0  0  0
 22 55  1  0  0  0  0
 23 56  1  0  0  0  0
 26 57  1  0  0  0  0
 26 58  1  0  0  0  0
 26 59  1  0  0  0  0
 27 60  1  0  0  0  0
 27 61  1  0  0  0  0
 28 62  1  0  0  0  0
 29 63  1  0  0  0  0
M  END
> <idnumber>
Z1191993910

> <heavy_atoms>
31

> <LogS>
-6.465

> <LogP>
3.815

> <rotating_bonds>
4

> <PSA>
58.2

> <hb_acceptors>
2

> <hb_donors>
2

> <Collection>
Advanced

> <link>
https://www.enaminestore.com/catalog/Z1191993910

> <ROCS_ShapeQuery>
x0446_0A_x1080_0A_x0929_0A_x0812_0A_x0719_0A_x1140_0A_x0528_0A_x0310_0A

> <ROCS_TanimotoCombo>
0.459 

> <ROCS_ShapeTanimoto>
0.279 

> <ROCS_ColorTanimoto>
0.180 

> <ROCS_RefTversky>
0.255 

> <ROCS_RefColorTversky>
0.214 

> <ROCS_RefTverskyCombo>
0.469 

> <ROCS_FitTversky>
1.521 

> <ROCS_FitColorTversky>
0.527 

> <ROCS_FitTverskyCombo>
2.048 

> <ROCS_ColorScore>
-7.719

> <ROCS_Overlap>
3015.339

> <ROCS_Rank>
309                 

$$$$
untitled-dbase-1110529_101
  -OEChem-02092406493D

 43 46  0     0  0  0  0  0  0999 V2000
   10.6345   16.0790   21.4411 C   0  0  0  0  0  0  0  0  0  0  0  0
   11.4435   15.3070   22.2365 C   0  0  0  0  0  0  0  0  0  0  0  0
    8.2285    9.1309   23.1905 C   0  0  0  0  0  0  0  0  0  0  0  0
    6.5104   11.8511   23.4962 C   0  0  0  0  0  0  0  0  0  0  0  0
    7.4370   11.0252   25.6864 C   0  0  0  0  0  0  0  0  0  0  0  0
   10.1462   10.7308   24.1770 C   0  0  0  0  0  0  0  0  0  0  0  0
    9.3818   11.4128   22.3690 C   0  0  0  0  0  0  0  0  0  0  0  0
    5.5945   12.7572   24.3135 C   0  0  0  0  0  0  0  0  0  0  0  0
    6.4649   11.9822   26.3701 C   0  0  0  0  0  0  0  0  0  0  0  0
    8.7251   10.5338   23.5093 C   0  0  0  0  0  0  0  0  0  0  0  0
    7.7849   11.5108   24.2756 C   0  0  0  0  0  0  0  0  0  0  0  0
    9.8500   12.1891   23.6581 C   0  0  0  0  0  0  0  0  0  0  0  0
    9.3733    6.2201   22.9051 C   0  0  0  0  0  0  0  0  0  0  0  0
   10.9335   13.2221   23.5898 C   0  0  0  0  0  0  0  0  0  0  0  0
    8.7415    7.1957   21.9352 C   0  0  0  0  0  0  0  0  0  0  0  0
    9.3678   15.5642   21.4370 N   0  0  0  0  0  0  0  0  0  0  0  0
    9.3629   14.4860   22.2133 N   0  0  0  0  0  0  0  0  0  0  0  0
   10.6083   14.3336   22.6918 N   0  0  0  0  0  0  0  0  0  0  0  0
    7.2083    8.6426   23.6572 O   0  0  0  0  0  0  0  0  0  0  0  0
    5.2948   12.1680   25.5767 O   0  0  0  0  0  0  0  0  0  0  0  0
    8.6523   12.6617   24.3427 O   0  0  0  0  0  0  0  0  0  0  0  0
    9.0898    8.5289   22.3217 O   0  0  0  0  0  0  0  0  0  0  0  0
   10.8935   16.9637   20.8796 H   0  0  0  0  0  0  0  0  0  0  0  0
   12.4887   15.3641   22.5048 H   0  0  0  0  0  0  0  0  0  0  0  0
    5.9713   10.9255   23.2623 H   0  0  0  0  0  0  0  0  0  0  0  0
    6.7318   12.3540   22.5497 H   0  0  0  0  0  0  0  0  0  0  0  0
    8.3258   10.9336   26.3180 H   0  0  0  0  0  0  0  0  0  0  0  0
    6.9703   10.0349   25.6240 H   0  0  0  0  0  0  0  0  0  0  0  0
   10.2159   10.6151   25.2610 H   0  0  0  0  0  0  0  0  0  0  0  0
   10.9881   10.1984   23.7183 H   0  0  0  0  0  0  0  0  0  0  0  0
   10.1612   10.9361   21.7622 H   0  0  0  0  0  0  0  0  0  0  0  0
    8.7105   11.9572   21.7012 H   0  0  0  0  0  0  0  0  0  0  0  0
    6.0416   13.7463   24.4672 H   0  0  0  0  0  0  0  0  0  0  0  0
    4.6487   12.9037   23.7818 H   0  0  0  0  0  0  0  0  0  0  0  0
    6.1517   11.5661   27.3329 H   0  0  0  0  0  0  0  0  0  0  0  0
    6.9315   12.9544   26.5687 H   0  0  0  0  0  0  0  0  0  0  0  0
   10.4629    6.3123   22.8971 H   0  0  0  0  0  0  0  0  0  0  0  0
    9.0108    6.3982   23.9229 H   0  0  0  0  0  0  0  0  0  0  0  0
    9.1040    5.1905   22.6470 H   0  0  0  0  0  0  0  0  0  0  0  0
   11.8853   12.7902   23.2368 H   0  0  0  0  0  0  0  0  0  0  0  0
   11.1419   13.6589   24.5812 H   0  0  0  0  0  0  0  0  0  0  0  0
    7.6518    7.0983   21.9481 H   0  0  0  0  0  0  0  0  0  0  0  0
    9.1053    7.0169   20.9190 H   0  0  0  0  0  0  0  0  0  0  0  0
  1  2  2  0  0  0  0
  1 16  1  0  0  0  0
  2 18  1  0  0  0  0
  3 10  1  0  0  0  0
  3 19  2  0  0  0  0
  3 22  1  0  0  0  0
  4  8  1  0  0  0  0
  4 11  1  0  0  0  0
  5  9  1  0  0  0  0
  5 11  1  0  0  0  0
  6 10  1  0  0  0  0
  6 12  1  0  0  0  0
  7 10  1  0  0  0  0
  7 12  1  0  0  0  0
  8 20  1  0  0  0  0
  9 20  1  0  0  0  0
 10 11  1  0  0  0  0
 11 21  1  0  0  0  0
 12 14  1  0  0  0  0
 12 21  1  0  0  0  0
 13 15  1  0  0  0  0
 14 18  1  0  0  0  0
 15 22  1  0  0  0  0
 16 17  2  0  0  0  0
 17 18  1  0  0  0  0
  1 23  1  0  0  0  0
  2 24  1  0  0  0  0
  4 25  1  0  0  0  0
  4 26  1  0  0  0  0
  5 27  1  0  0  0  0
  5 28  1  0  0  0  0
  6 29  1  0  0  0  0
  6 30  1  0  0  0  0
  7 31  1  0  0  0  0
  7 32  1  0  0  0  0
  8 33  1  0  0  0  0
  8 34  1  0  0  0  0
  9 35  1  0  0  0  0
  9 36  1  0  0  0  0
 13 37  1  0  0  0  0
 13 38  1  0  0  0  0
 13 39  1  0  0  0  0
 14 40  1  0  0  0  0
 14 41  1  0  0  0  0
 15 42  1  0  0  0  0
 15 43  1  0  0  0  0
M  END
> <idnumber>
Z5039726630

> <heavy_atoms>
22

> <LogS>
-1.104

> <LogP>
-0.306

> <rotating_bonds>
5

> <PSA>
75.47

> <hb_acceptors>
5

> <hb_donors>
0

> <Collection>
Advanced

> <link>
https://www.enaminestore.com/catalog/Z5039726630

> <ROCS_ShapeQuery>
x0446_0A_x1080_0A_x0929_0A_x0812_0A_x0719_0A_x1140_0A_x0528_0A_x0310_0A

> <ROCS_TanimotoCombo>
0.459 

> <ROCS_ShapeTanimoto>
0.245 

> <ROCS_ColorTanimoto>
0.214 

> <ROCS_RefTversky>
0.223 

> <ROCS_RefColorTversky>
0.251 

> <ROCS_RefTverskyCombo>
0.474 

> <ROCS_FitTversky>
1.669 

> <ROCS_FitColorTversky>
0.593 

> <ROCS_FitTverskyCombo>
2.262 

> <ROCS_ColorScore>
-9.041

> <ROCS_Overlap>
2634.535

> <ROCS_Rank>
310                 

$$$$
untitled-dbase-1100661_7
  -OEChem-02092406493D

 38 40  0     0  0  0  0  0  0999 V2000
   12.7139   17.4756   22.1859 C   0  0  0  0  0  0  0  0  0  0  0  0
   11.6883   18.1562   21.5298 C   0  0  0  0  0  0  0  0  0  0  0  0
    6.0754   11.0195   25.2535 C   0  0  0  0  0  0  0  0  0  0  0  0
    7.2774   10.9165   24.5411 C   0  0  0  0  0  0  0  0  0  0  0  0
   11.2796   15.5464   22.4267 C   0  0  0  0  0  0  0  0  0  0  0  0
   12.5095   16.1706   22.6344 C   0  0  0  0  0  0  0  0  0  0  0  0
   10.2539   16.2270   21.7706 C   0  0  0  0  0  0  0  0  0  0  0  0
   10.4583   17.5319   21.3221 C   0  0  0  0  0  0  0  0  0  0  0  0
    7.5550   12.1938   24.1191 C   0  0  0  0  0  0  0  0  0  0  0  0
    8.1852    9.8559   24.1976 C   0  0  0  0  0  0  0  0  0  0  0  0
    9.4501   11.6883   23.0638 C   0  0  0  0  0  0  0  0  0  0  0  0
   11.0718   14.1551   22.9075 C   0  0  0  0  0  0  0  0  0  0  0  0
   13.6281   15.4685   23.3336 C   0  0  0  0  0  0  0  0  0  0  0  0
    6.3715   14.3919   24.4054 C   0  0  0  0  0  0  0  0  0  0  0  0
    5.6148   12.2765   25.2850 N   0  0  0  0  0  0  0  0  0  0  0  0
    8.6041   12.6399   23.3910 N   0  0  0  0  0  0  0  0  0  0  0  0
    6.5377   12.9691   24.5863 N   0  0  0  0  0  0  0  0  0  0  0  0
    9.2632   10.3403   23.4446 N   0  0  0  0  0  0  0  0  0  0  0  0
    9.0079   15.5868   21.5637 N   0  0  0  0  0  0  0  0  0  0  0  0
   10.5782   11.9395   22.3269 N   0  0  0  0  0  0  0  0  0  0  0  0
   10.7587   13.2275   21.9337 N   0  0  0  0  0  0  0  0  0  0  0  0
    8.0237    8.6874   24.5278 O   0  0  0  0  0  0  0  0  0  0  0  0
   11.2002   13.9068   24.1038 O   0  0  0  0  0  0  0  0  0  0  0  0
    9.2181   18.4131   20.5027 Cl  0  0  0  0  0  0  0  0  0  0  0  0
   13.6683   17.9715   22.3427 H   0  0  0  0  0  0  0  0  0  0  0  0
   11.8648   19.1723   21.1857 H   0  0  0  0  0  0  0  0  0  0  0  0
    5.5107   10.2443   25.7510 H   0  0  0  0  0  0  0  0  0  0  0  0
   13.5757   15.6529   24.4125 H   0  0  0  0  0  0  0  0  0  0  0  0
   13.5854   14.3864   23.1606 H   0  0  0  0  0  0  0  0  0  0  0  0
   14.6024   15.8130   22.9661 H   0  0  0  0  0  0  0  0  0  0  0  0
    5.7984   14.5507   23.4881 H   0  0  0  0  0  0  0  0  0  0  0  0
    5.8397   14.8086   25.2654 H   0  0  0  0  0  0  0  0  0  0  0  0
    7.3550   14.8640   24.3296 H   0  0  0  0  0  0  0  0  0  0  0  0
    9.9660    9.6686   23.1495 H   0  0  0  0  0  0  0  0  0  0  0  0
    8.8997   14.6380   21.8507 H   0  0  0  0  0  0  0  0  0  0  0  0
    8.2988   16.0663   21.0521 H   0  0  0  0  0  0  0  0  0  0  0  0
   11.2032   11.2037   22.0916 H   0  0  0  0  0  0  0  0  0  0  0  0
   10.6669   13.4976   20.9609 H   0  0  0  0  0  0  0  0  0  0  0  0
  1  2  2  0  0  0  0
  1  6  1  0  0  0  0
  2  8  1  0  0  0  0
  3  4  1  0  0  0  0
  3 15  2  0  0  0  0
  4  9  2  0  0  0  0
  4 10  1  0  0  0  0
  5  6  2  0  0  0  0
  5  7  1  0  0  0  0
  5 12  1  0  0  0  0
  6 13  1  0  0  0  0
  7  8  2  0  0  0  0
  7 19  1  0  0  0  0
  8 24  1  0  0  0  0
  9 16  1  0  0  0  0
  9 17  1  0  0  0  0
 10 18  1  0  0  0  0
 10 22  2  0  0  0  0
 11 16  2  0  0  0  0
 11 18  1  0  0  0  0
 11 20  1  0  0  0  0
 12 21  1  0  0  0  0
 12 23  2  0  0  0  0
 14 17  1  0  0  0  0
 15 17  1  0  0  0  0
 20 21  1  0  0  0  0
  1 25  1  0  0  0  0
  2 26  1  0  0  0  0
  3 27  1  0  0  0  0
 13 28  1  0  0  0  0
 13 29  1  0  0  0  0
 13 30  1  0  0  0  0
 14 31  1  0  0  0  0
 14 32  1  0  0  0  0
 14 33  1  0  0  0  0
 18 34  1  0  0  0  0
 19 35  1  0  0  0  0
 19 36  1  0  0  0  0
 20 37  1  0  0  0  0
 21 38  1  0  0  0  0
M  END
> <idnumber>
Z4788686416

> <heavy_atoms>
24

> <LogS>
-4.705

> <LogP>
-0.144

> <rotating_bonds>
3

> <PSA>
126.43

> <hb_acceptors>
6

> <hb_donors>
4

> <Collection>
Advanced

> <link>
https://www.enaminestore.com/catalog/Z4788686416

> <ROCS_ShapeQuery>
x0446_0A_x1080_0A_x0929_0A_x0812_0A_x0719_0A_x1140_0A_x0528_0A_x0310_0A

> <ROCS_TanimotoCombo>
0.459 

> <ROCS_ShapeTanimoto>
0.252 

> <ROCS_ColorTanimoto>
0.207 

> <ROCS_RefTversky>
0.230 

> <ROCS_RefColorTversky>
0.236 

> <ROCS_RefTverskyCombo>
0.466 

> <ROCS_FitTversky>
1.618 

> <ROCS_FitColorTversky>
0.625 

> <ROCS_FitTverskyCombo>
2.243 

> <ROCS_ColorScore>
-8.498

> <ROCS_Overlap>
2715.097

> <ROCS_Rank>
311                 

$$$$
untitled-dbase-1119489_118
  -OEChem-02092406493D

 52 55  0     1  0  0  0  0  0999 V2000
   12.6411   14.1843   20.6973 C   0  0  0  0  0  0  0  0  0  0  0  0
   13.4258   15.0812   21.4221 C   0  0  0  0  0  0  0  0  0  0  0  0
   11.2543   14.1919   20.8471 C   0  0  0  0  0  0  0  0  0  0  0  0
    6.6884   13.5271   25.0807 C   0  0  0  0  0  0  0  0  0  0  0  0
   11.4369   15.9933   22.4466 C   0  0  0  0  0  0  0  0  0  0  0  0
    5.5203   12.9276   25.5365 C   0  0  0  0  0  0  0  0  0  0  0  0
    6.1530   10.8555   24.7806 C   0  0  0  0  0  0  0  0  0  0  0  0
   12.8237   15.9857   22.2968 C   0  0  0  0  0  0  0  0  0  0  0  0
    7.6404   12.7365   24.4354 C   0  0  0  0  0  0  0  0  0  0  0  0
    7.3465   11.3571   24.2755 C   0  0  0  0  0  0  0  0  0  0  0  0
   10.6522   15.0964   21.7218 C   0  0  0  0  0  0  0  0  0  0  0  0
   10.4230   11.3528   24.3774 C   0  0  0  0  0  0  0  0  0  0  0  0
    9.4045   10.2152   24.6080 C   0  0  0  0  0  0  0  0  0  0  0  0
    8.9268   11.2285   22.5344 C   0  0  0  0  0  0  0  0  0  0  0  0
    9.7674   12.2487   23.3073 C   0  0  1  0  0  0  0  0  0  0  0  0
   14.4837   17.8726   22.1240 C   0  0  0  0  0  0  0  0  0  0  0  0
   14.6774   16.1943   23.9900 C   0  0  0  0  0  0  0  0  0  0  0  0
   12.8773   17.9089   24.0213 C   0  0  0  0  0  0  0  0  0  0  0  0
    9.3135   14.5694   24.2077 C   0  0  0  0  0  0  0  0  0  0  0  0
    8.7840   15.5042   23.1356 C   0  0  0  0  0  0  0  0  0  0  0  0
   13.6629   16.9443   23.0721 C   0  0  0  0  0  0  0  0  0  0  0  0
    5.2289   11.6142   25.4051 N   0  0  0  0  0  0  0  0  0  0  0  0
    8.3070   10.5027   23.6557 N   0  0  2  0  0  0  0  0  0  0  0  0
    8.8567   13.2183   23.9439 N   0  0  3  0  0  0  0  0  0  0  0  0
    9.2898   15.1042   21.8684 O   0  0  0  0  0  0  0  0  0  0  0  0
   13.1099   13.4805   20.0160 H   0  0  0  0  0  0  0  0  0  0  0  0
   14.5056   15.0676   21.2992 H   0  0  0  0  0  0  0  0  0  0  0  0
   10.6487   13.4907   20.2797 H   0  0  0  0  0  0  0  0  0  0  0  0
    6.8324   14.5905   25.2382 H   0  0  0  0  0  0  0  0  0  0  0  0
   10.9648   16.6972   23.1280 H   0  0  0  0  0  0  0  0  0  0  0  0
    4.7607   13.5163   26.0412 H   0  0  0  0  0  0  0  0  0  0  0  0
    5.9016    9.8034   24.6946 H   0  0  0  0  0  0  0  0  0  0  0  0
   10.6539   11.8979   25.2985 H   0  0  0  0  0  0  0  0  0  0  0  0
   11.3599   10.9345   23.9909 H   0  0  0  0  0  0  0  0  0  0  0  0
    9.8584    9.2505   24.3538 H   0  0  0  0  0  0  0  0  0  0  0  0
    9.0731   10.1608   25.6521 H   0  0  0  0  0  0  0  0  0  0  0  0
    8.2000   11.6772   21.8457 H   0  0  0  0  0  0  0  0  0  0  0  0
    9.5619   10.5468   21.9550 H   0  0  0  0  0  0  0  0  0  0  0  0
   10.5062   12.7458   22.6711 H   0  0  0  0  0  0  0  0  0  0  0  0
   15.1102   18.5880   22.6696 H   0  0  0  0  0  0  0  0  0  0  0  0
   15.1500   17.2944   21.4744 H   0  0  0  0  0  0  0  0  0  0  0  0
   13.8091   18.4455   21.4769 H   0  0  0  0  0  0  0  0  0  0  0  0
   15.2958   16.8952   24.5613 H   0  0  0  0  0  0  0  0  0  0  0  0
   14.1857   15.5362   24.7160 H   0  0  0  0  0  0  0  0  0  0  0  0
   15.3525   15.5779   23.3847 H   0  0  0  0  0  0  0  0  0  0  0  0
   13.5369   18.5933   24.5685 H   0  0  0  0  0  0  0  0  0  0  0  0
   12.1728   18.5273   23.4529 H   0  0  0  0  0  0  0  0  0  0  0  0
   12.3092   17.3431   24.7689 H   0  0  0  0  0  0  0  0  0  0  0  0
   10.4080   14.5642   24.2244 H   0  0  0  0  0  0  0  0  0  0  0  0
    8.9415   14.8692   25.1921 H   0  0  0  0  0  0  0  0  0  0  0  0
    9.1247   16.5263   23.3281 H   0  0  0  0  0  0  0  0  0  0  0  0
    7.6898   15.4940   23.0972 H   0  0  0  0  0  0  0  0  0  0  0  0
  1  2  2  0  0  0  0
  1  3  1  0  0  0  0
  2  8  1  0  0  0  0
  3 11  2  0  0  0  0
  4  6  2  0  0  0  0
  4  9  1  0  0  0  0
  5  8  2  0  0  0  0
  5 11  1  0  0  0  0
  6 22  1  0  0  0  0
  7 10  1  0  0  0  0
  7 22  2  0  0  0  0
  8 21  1  0  0  0  0
  9 10  2  0  0  0  0
  9 24  1  0  0  0  0
 10 23  1  0  0  0  0
 11 25  1  0  0  0  0
 12 13  1  0  0  0  0
 12 15  1  0  0  0  0
 13 23  1  0  0  0  0
 14 15  1  0  0  0  0
 14 23  1  0  0  0  0
 15 24  1  0  0  0  0
 16 21  1  0  0  0  0
 17 21  1  0  0  0  0
 18 21  1  0  0  0  0
 19 20  1  0  0  0  0
 19 24  1  0  0  0  0
 20 25  1  0  0  0  0
  1 26  1  0  0  0  0
  2 27  1  0  0  0  0
  3 28  1  0  0  0  0
  4 29  1  0  0  0  0
  5 30  1  0  0  0  0
  6 31  1  0  0  0  0
  7 32  1  0  0  0  0
 12 33  1  0  0  0  0
 12 34  1  0  0  0  0
 13 35  1  0  0  0  0
 13 36  1  0  0  0  0
 14 37  1  0  0  0  0
 14 38  1  0  0  0  0
 15 39  1  0  0  0  0
 16 40  1  0  0  0  0
 16 41  1  0  0  0  0
 16 42  1  0  0  0  0
 17 43  1  0  0  0  0
 17 44  1  0  0  0  0
 17 45  1  0  0  0  0
 18 46  1  0  0  0  0
 18 47  1  0  0  0  0
 18 48  1  0  0  0  0
 19 49  1  0  0  0  0
 19 50  1  0  0  0  0
 20 51  1  0  0  0  0
 20 52  1  0  0  0  0
M  END
> <idnumber>
Z5282808640

> <heavy_atoms>
25

> <LogS>
-4.716

> <LogP>
5.111

> <rotating_bonds>
5

> <PSA>
28.6

> <hb_acceptors>
4

> <hb_donors>
0

> <Collection>
Advanced

> <link>
https://www.enaminestore.com/catalog/Z5282808640

> <ROCS_ShapeQuery>
x0446_0A_x1080_0A_x0929_0A_x0812_0A_x0719_0A_x1140_0A_x0528_0A_x0310_0A

> <ROCS_TanimotoCombo>
0.459 

> <ROCS_ShapeTanimoto>
0.247 

> <ROCS_ColorTanimoto>
0.212 

> <ROCS_RefTversky>
0.226 

> <ROCS_RefColorTversky>
0.235 

> <ROCS_RefTverskyCombo>
0.461 

> <ROCS_FitTversky>
1.569 

> <ROCS_FitColorTversky>
0.690 

> <ROCS_FitTverskyCombo>
2.259 

> <ROCS_ColorScore>
-8.423

> <ROCS_Overlap>
2674.633

> <ROCS_Rank>
312                 

$$$$
untitled-dbase-340108_53
  -OEChem-02092406493D

 36 39  0     0  0  0  0  0  0999 V2000
   14.0363   15.2358   22.0752 C   0  0  0  0  0  0  0  0  0  0  0  0
    5.7737   12.2710   25.0401 C   0  0  0  0  0  0  0  0  0  0  0  0
    6.3580   13.4166   24.4950 C   0  0  0  0  0  0  0  0  0  0  0  0
   13.6281   15.8799   20.9073 C   0  0  0  0  0  0  0  0  0  0  0  0
   13.1236   14.4786   22.8096 C   0  0  0  0  0  0  0  0  0  0  0  0
    6.4028   11.0236   24.9414 C   0  0  0  0  0  0  0  0  0  0  0  0
    7.5888   13.3588   23.8330 C   0  0  0  0  0  0  0  0  0  0  0  0
   12.3072   15.7669   20.4737 C   0  0  0  0  0  0  0  0  0  0  0  0
    8.3298   14.5003   19.5284 C   0  0  0  0  0  0  0  0  0  0  0  0
    7.9971   15.0873   20.7639 C   0  0  0  0  0  0  0  0  0  0  0  0
    9.6993   14.3993   19.5539 C   0  0  0  0  0  0  0  0  0  0  0  0
    9.4844   10.3426   23.3895 C   0  0  0  0  0  0  0  0  0  0  0  0
   11.8027   14.3656   22.3760 C   0  0  0  0  0  0  0  0  0  0  0  0
    7.6399   10.9471   24.2795 C   0  0  0  0  0  0  0  0  0  0  0  0
    8.1971   12.1061   23.7467 C   0  0  0  0  0  0  0  0  0  0  0  0
   11.3944   15.0097   21.2081 C   0  0  0  0  0  0  0  0  0  0  0  0
   10.8613   13.5494   23.1858 C   0  0  0  0  0  0  0  0  0  0  0  0
    9.0689   15.3412   21.5194 N   0  0  0  0  0  0  0  0  0  0  0  0
    8.4537    9.8619   24.0480 N   0  0  0  0  0  0  0  0  0  0  0  0
   10.0885   14.9117   20.7565 N   0  0  0  0  0  0  0  0  0  0  0  0
    9.3762   11.6898   23.1836 N   0  0  0  0  0  0  0  0  0  0  0  0
   10.2730   12.4579   22.5417 N   0  0  0  0  0  0  0  0  0  0  0  0
   10.6359   13.8724   24.3496 O   0  0  0  0  0  0  0  0  0  0  0  0
   15.0648   15.3236   22.4131 H   0  0  0  0  0  0  0  0  0  0  0  0
    4.8165   12.3476   25.5491 H   0  0  0  0  0  0  0  0  0  0  0  0
    5.8476   14.3722   24.5886 H   0  0  0  0  0  0  0  0  0  0  0  0
   14.3390   16.4691   20.3355 H   0  0  0  0  0  0  0  0  0  0  0  0
   13.4545   13.9810   23.7177 H   0  0  0  0  0  0  0  0  0  0  0  0
    5.9411   10.1394   25.3691 H   0  0  0  0  0  0  0  0  0  0  0  0
    8.0415   14.2488   23.4104 H   0  0  0  0  0  0  0  0  0  0  0  0
   12.0040   16.2751   19.5612 H   0  0  0  0  0  0  0  0  0  0  0  0
    7.6695   14.1926   18.7311 H   0  0  0  0  0  0  0  0  0  0  0  0
    7.0184   15.3406   21.1458 H   0  0  0  0  0  0  0  0  0  0  0  0
   10.4062   14.0125   18.8317 H   0  0  0  0  0  0  0  0  0  0  0  0
   10.3311    9.7674   23.0395 H   0  0  0  0  0  0  0  0  0  0  0  0
   10.4708   12.2212   21.5640 H   0  0  0  0  0  0  0  0  0  0  0  0
  1  4  1  0  0  0  0
  1  5  2  0  0  0  0
  2  3  1  0  0  0  0
  2  6  2  0  0  0  0
  3  7  2  0  0  0  0
  4  8  2  0  0  0  0
  5 13  1  0  0  0  0
  6 14  1  0  0  0  0
  7 15  1  0  0  0  0
  8 16  1  0  0  0  0
  9 10  1  0  0  0  0
  9 11  2  0  0  0  0
 10 18  2  0  0  0  0
 11 20  1  0  0  0  0
 12 19  2  0  0  0  0
 12 21  1  0  0  0  0
 13 16  2  0  0  0  0
 13 17  1  0  0  0  0
 14 15  2  0  0  0  0
 14 19  1  0  0  0  0
 15 21  1  0  0  0  0
 16 20  1  0  0  0  0
 17 22  1  0  0  0  0
 17 23  2  0  0  0  0
 18 20  1  0  0  0  0
 21 22  1  0  0  0  0
  1 24  1  0  0  0  0
  2 25  1  0  0  0  0
  3 26  1  0  0  0  0
  4 27  1  0  0  0  0
  5 28  1  0  0  0  0
  6 29  1  0  0  0  0
  7 30  1  0  0  0  0
  8 31  1  0  0  0  0
  9 32  1  0  0  0  0
 10 33  1  0  0  0  0
 11 34  1  0  0  0  0
 12 35  1  0  0  0  0
 22 36  1  0  0  0  0
M  END
> <idnumber>
Z425224490

> <heavy_atoms>
23

> <LogS>
-3.712

> <LogP>
2.449

> <rotating_bonds>
3

> <PSA>
64.74

> <hb_acceptors>
3

> <hb_donors>
1

> <Collection>
HTS

> <link>
https://www.enaminestore.com/catalog/Z425224490

> <ROCS_ShapeQuery>
x0446_0A_x1080_0A_x0929_0A_x0812_0A_x0719_0A_x1140_0A_x0528_0A_x0310_0A

> <ROCS_TanimotoCombo>
0.459 

> <ROCS_ShapeTanimoto>
0.255 

> <ROCS_ColorTanimoto>
0.204 

> <ROCS_RefTversky>
0.232 

> <ROCS_RefColorTversky>
0.218 

> <ROCS_RefTverskyCombo>
0.451 

> <ROCS_FitTversky>
1.644 

> <ROCS_FitColorTversky>
0.749 

> <ROCS_FitTverskyCombo>
2.393 

> <ROCS_ColorScore>
-7.816

> <ROCS_Overlap>
2742.952

> <ROCS_Rank>
313                 

$$$$
untitled-dbase-400901_78
  -OEChem-02092406493D

 44 49  0     0  0  0  0  0  0999 V2000
    5.6237   12.4401   24.2406 C   0  0  0  0  0  0  0  0  0  0  0  0
    6.4233   13.5816   24.3271 C   0  0  0  0  0  0  0  0  0  0  0  0
    6.1909   11.1738   24.0551 C   0  0  0  0  0  0  0  0  0  0  0  0
    7.8171   13.5043   24.2322 C   0  0  0  0  0  0  0  0  0  0  0  0
    6.7440   12.2057   20.7121 C   0  0  0  0  0  0  0  0  0  0  0  0
    5.4278   11.8868   20.2620 C   0  0  0  0  0  0  0  0  0  0  0  0
    7.5894   11.0683   23.9565 C   0  0  0  0  0  0  0  0  0  0  0  0
    8.3689   12.2354   24.0474 C   0  0  0  0  0  0  0  0  0  0  0  0
    6.9732   13.5648   20.7274 C   0  0  0  0  0  0  0  0  0  0  0  0
    4.7093   13.0280   19.9593 C   0  0  0  0  0  0  0  0  0  0  0  0
    8.1645   14.2303   21.1158 C   0  0  0  0  0  0  0  0  0  0  0  0
   10.1182   14.6161   21.7868 C   0  0  0  0  0  0  0  0  0  0  0  0
    9.5885   10.4161   23.7562 C   0  0  0  0  0  0  0  0  0  0  0  0
   10.9501   12.1677   23.8808 C   0  0  0  0  0  0  0  0  0  0  0  0
    4.8358   10.5170   20.1389 C   0  0  0  0  0  0  0  0  0  0  0  0
    3.3071   13.0478   19.4364 C   0  0  0  0  0  0  0  0  0  0  0  0
    3.5632   10.5214   19.2776 C   0  0  0  0  0  0  0  0  0  0  0  0
    2.6316   11.6839   19.6507 C   0  0  0  0  0  0  0  0  0  0  0  0
   11.4613   14.2825   22.2771 C   0  0  0  0  0  0  0  0  0  0  0  0
    8.3761    9.9369   23.7735 N   0  0  0  0  0  0  0  0  0  0  0  0
    8.2988   15.5359   21.1002 N   0  0  0  0  0  0  0  0  0  0  0  0
    9.5841   15.7896   21.5415 N   0  0  0  0  0  0  0  0  0  0  0  0
   11.7327   11.1318   23.7098 N   0  0  0  0  0  0  0  0  0  0  0  0
    9.6345   11.7579   23.9129 N   0  0  0  0  0  0  0  0  0  0  0  0
   10.8702   10.0415   23.6332 N   0  0  0  0  0  0  0  0  0  0  0  0
    9.2785   13.5735   21.5406 O   0  0  0  0  0  0  0  0  0  0  0  0
    5.6069   14.4539   20.2027 S   0  0  0  0  0  0  0  0  0  0  0  0
   11.4869   13.8111   24.0429 S   0  0  0  0  0  0  0  0  0  0  0  0
    4.5436   12.5352   24.3182 H   0  0  0  0  0  0  0  0  0  0  0  0
    5.9538   14.5517   24.4713 H   0  0  0  0  0  0  0  0  0  0  0  0
    5.5590   10.2937   23.9892 H   0  0  0  0  0  0  0  0  0  0  0  0
    8.4286   14.3961   24.3006 H   0  0  0  0  0  0  0  0  0  0  0  0
    7.4805   11.4688   21.0101 H   0  0  0  0  0  0  0  0  0  0  0  0
    5.5668    9.8235   19.7076 H   0  0  0  0  0  0  0  0  0  0  0  0
    4.5917   10.1520   21.1441 H   0  0  0  0  0  0  0  0  0  0  0  0
    2.7141   13.8283   19.9263 H   0  0  0  0  0  0  0  0  0  0  0  0
    3.3321   13.2744   18.3633 H   0  0  0  0  0  0  0  0  0  0  0  0
    3.8366   10.6072   18.2183 H   0  0  0  0  0  0  0  0  0  0  0  0
    3.0382    9.5671   19.3966 H   0  0  0  0  0  0  0  0  0  0  0  0
    2.3366   11.5819   20.7032 H   0  0  0  0  0  0  0  0  0  0  0  0
    1.7130   11.6341   19.0553 H   0  0  0  0  0  0  0  0  0  0  0  0
   11.9161   13.4480   21.7064 H   0  0  0  0  0  0  0  0  0  0  0  0
   12.1672   15.1280   22.1532 H   0  0  0  0  0  0  0  0  0  0  0  0
   11.2285    9.1034   23.4997 H   0  0  0  0  0  0  0  0  0  0  0  0
  1  2  1  0  0  0  0
  1  3  2  0  0  0  0
  2  4  2  0  0  0  0
  3  7  1  0  0  0  0
  4  8  1  0  0  0  0
  5  6  1  0  0  0  0
  5  9  2  0  0  0  0
  6 10  2  0  0  0  0
  6 15  1  0  0  0  0
  7  8  2  0  0  0  0
  7 20  1  0  0  0  0
  8 24  1  0  0  0  0
  9 11  1  0  0  0  0
  9 27  1  0  0  0  0
 10 16  1  0  0  0  0
 10 27  1  0  0  0  0
 11 21  2  0  0  0  0
 11 26  1  0  0  0  0
 12 19  1  0  0  0  0
 12 22  2  0  0  0  0
 12 26  1  0  0  0  0
 13 20  2  0  0  0  0
 13 24  1  0  0  0  0
 13 25  1  0  0  0  0
 14 23  2  0  0  0  0
 14 24  1  0  0  0  0
 14 28  1  0  0  0  0
 15 17  1  0  0  0  0
 16 18  1  0  0  0  0
 17 18  1  0  0  0  0
 19 28  1  0  0  0  0
 21 22  1  0  0  0  0
 23 25  1  0  0  0  0
  1 29  1  0  0  0  0
  2 30  1  0  0  0  0
  3 31  1  0  0  0  0
  4 32  1  0  0  0  0
  5 33  1  0  0  0  0
 15 34  1  0  0  0  0
 15 35  1  0  0  0  0
 16 36  1  0  0  0  0
 16 37  1  0  0  0  0
 17 38  1  0  0  0  0
 17 39  1  0  0  0  0
 18 40  1  0  0  0  0
 18 41  1  0  0  0  0
 19 42  1  0  0  0  0
 19 43  1  0  0  0  0
 25 44  1  0  0  0  0
M  END
> <idnumber>
Z188745728

> <heavy_atoms>
28

> <LogS>
-7.49

> <LogP>
4.072

> <rotating_bonds>
4

> <PSA>
84.9

> <hb_acceptors>
4

> <hb_donors>
1

> <Collection>
HTS

> <link>
https://www.enaminestore.com/catalog/Z188745728

> <ROCS_ShapeQuery>
x0446_0A_x1080_0A_x0929_0A_x0812_0A_x0719_0A_x1140_0A_x0528_0A_x0310_0A

> <ROCS_TanimotoCombo>
0.459 

> <ROCS_ShapeTanimoto>
0.275 

> <ROCS_ColorTanimoto>
0.184 

> <ROCS_RefTversky>
0.249 

> <ROCS_RefColorTversky>
0.215 

> <ROCS_RefTverskyCombo>
0.464 

> <ROCS_FitTversky>
1.579 

> <ROCS_FitColorTversky>
0.566 

> <ROCS_FitTverskyCombo>
2.145 

> <ROCS_ColorScore>
-7.713

> <ROCS_Overlap>
2950.580

> <ROCS_Rank>
314                 

$$$$
untitled-dbase-1070748_17
  -OEChem-02092406493D

 44 46  0     1  0  0  0  0  0999 V2000
    8.2307   12.1879   24.4322 C   0  0  0  0  0  0  0  0  0  0  0  0
    9.5004   11.9749   23.9609 C   0  0  0  0  0  0  0  0  0  0  0  0
    7.6228   10.9141   24.4224 C   0  0  0  0  0  0  0  0  0  0  0  0
    8.6033   14.2486   21.3771 C   0  0  0  0  0  0  0  0  0  0  0  0
    6.6561   14.9458   21.4218 C   0  0  0  0  0  0  0  0  0  0  0  0
   10.5547   12.9160   23.7517 C   0  0  0  0  0  0  0  0  0  0  0  0
    7.5048   13.3981   24.8810 C   0  0  0  0  0  0  0  0  0  0  0  0
    6.2270   10.7000   24.8999 C   0  0  2  0  0  0  0  0  0  0  0  0
    6.2896   12.9687   25.7360 C   0  0  1  0  0  0  0  0  0  0  0  0
    5.2076   15.1845   21.4779 C   0  0  0  0  0  0  0  0  0  0  0  0
    5.3971    9.8399   23.9552 C   0  0  0  0  0  0  0  0  0  0  0  0
    5.3687   14.1508   26.0030 C   0  0  0  0  0  0  0  0  0  0  0  0
   10.7223    9.9104   23.2103 C   0  0  0  0  0  0  0  0  0  0  0  0
   11.7260   14.5478   22.2345 C   0  0  0  0  0  0  0  0  0  0  0  0
    9.7691   13.3025   21.3867 C   0  0  0  0  0  0  0  0  0  0  0  0
    8.4476    9.9533   24.0003 N   0  0  0  0  0  0  0  0  0  0  0  0
    7.3130   13.8143   21.4681 N   0  0  0  0  0  0  0  0  0  0  0  0
    8.7656   15.5715   21.2792 N   0  0  0  0  0  0  0  0  0  0  0  0
    9.5775   10.6316   23.7169 N   0  0  0  0  0  0  0  0  0  0  0  0
   10.6804   13.5690   22.4975 N   0  0  0  0  0  0  0  0  0  0  0  0
   11.3349   13.1448   24.7012 O   0  0  0  0  0  0  0  0  0  0  0  0
    7.4476   16.0445   21.3093 O   0  0  0  0  0  0  0  0  0  0  0  0
    5.5226   11.9606   25.0437 O   0  0  0  0  0  0  0  0  0  0  0  0
    8.1578   14.0625   25.4569 H   0  0  0  0  0  0  0  0  0  0  0  0
    7.1641   13.9414   23.9908 H   0  0  0  0  0  0  0  0  0  0  0  0
    6.2523   10.2253   25.8884 H   0  0  0  0  0  0  0  0  0  0  0  0
    6.6214   12.5537   26.6967 H   0  0  0  0  0  0  0  0  0  0  0  0
    4.8606   15.3220   22.5178 H   0  0  0  0  0  0  0  0  0  0  0  0
    4.9071   16.0840   20.9089 H   0  0  0  0  0  0  0  0  0  0  0  0
    4.6265   14.3490   21.0446 H   0  0  0  0  0  0  0  0  0  0  0  0
    5.3620   10.2985   22.9669 H   0  0  0  0  0  0  0  0  0  0  0  0
    4.3803    9.7423   24.3359 H   0  0  0  0  0  0  0  0  0  0  0  0
    5.8393    8.8473   23.8690 H   0  0  0  0  0  0  0  0  0  0  0  0
    5.0265   14.5794   25.0603 H   0  0  0  0  0  0  0  0  0  0  0  0
    5.8992   14.9187   26.5671 H   0  0  0  0  0  0  0  0  0  0  0  0
    4.5008   13.8268   26.5786 H   0  0  0  0  0  0  0  0  0  0  0  0
   11.3208    9.5843   24.0650 H   0  0  0  0  0  0  0  0  0  0  0  0
   10.3819    9.0478   22.6306 H   0  0  0  0  0  0  0  0  0  0  0  0
   11.3067   10.5694   22.5621 H   0  0  0  0  0  0  0  0  0  0  0  0
   12.6153   14.0372   21.8365 H   0  0  0  0  0  0  0  0  0  0  0  0
   11.3646   15.2814   21.4988 H   0  0  0  0  0  0  0  0  0  0  0  0
   11.9878   15.0647   23.1695 H   0  0  0  0  0  0  0  0  0  0  0  0
    9.4246   12.2663   21.4742 H   0  0  0  0  0  0  0  0  0  0  0  0
   10.3433   13.3770   20.4573 H   0  0  0  0  0  0  0  0  0  0  0  0
  1  2  2  0  0  0  0
  1  3  1  0  0  0  0
  1  7  1  0  0  0  0
  2  6  1  0  0  0  0
  2 19  1  0  0  0  0
  3  8  1  0  0  0  0
  3 16  2  0  0  0  0
  4 15  1  0  0  0  0
  4 17  1  0  0  0  0
  4 18  2  0  0  0  0
  5 10  1  0  0  0  0
  5 17  2  0  0  0  0
  5 22  1  0  0  0  0
  6 20  1  0  0  0  0
  6 21  2  0  0  0  0
  7  9  1  0  0  0  0
  8 11  1  6  0  0  0
  8 23  1  0  0  0  0
  9 12  1  6  0  0  0
  9 23  1  0  0  0  0
 13 19  1  0  0  0  0
 14 20  1  0  0  0  0
 15 20  1  0  0  0  0
 16 19  1  0  0  0  0
 18 22  1  0  0  0  0
  7 24  1  0  0  0  0
  7 25  1  0  0  0  0
  8 26  1  0  0  0  0
  9 27  1  0  0  0  0
 10 28  1  0  0  0  0
 10 29  1  0  0  0  0
 10 30  1  0  0  0  0
 11 31  1  0  0  0  0
 11 32  1  0  0  0  0
 11 33  1  0  0  0  0
 12 34  1  0  0  0  0
 12 35  1  0  0  0  0
 12 36  1  0  0  0  0
 13 37  1  0  0  0  0
 13 38  1  0  0  0  0
 13 39  1  0  0  0  0
 14 40  1  0  0  0  0
 14 41  1  0  0  0  0
 14 42  1  0  0  0  0
 15 43  1  0  0  0  0
 15 44  1  0  0  0  0
M  END
> <idnumber>
Z4107122106

> <heavy_atoms>
23

> <LogS>
-0.859

> <LogP>
-0.9

> <rotating_bonds>
3

> <PSA>
86.28

> <hb_acceptors>
5

> <hb_donors>
0

> <Collection>
HTS

> <link>
https://www.enaminestore.com/catalog/Z4107122106

> <ROCS_ShapeQuery>
x0446_0A_x1080_0A_x0929_0A_x0812_0A_x0719_0A_x1140_0A_x0528_0A_x0310_0A

> <ROCS_TanimotoCombo>
0.459 

> <ROCS_ShapeTanimoto>
0.266 

> <ROCS_ColorTanimoto>
0.193 

> <ROCS_RefTversky>
0.239 

> <ROCS_RefColorTversky>
0.205 

> <ROCS_RefTverskyCombo>
0.443 

> <ROCS_FitTversky>
1.743 

> <ROCS_FitColorTversky>
0.771 

> <ROCS_FitTverskyCombo>
2.514 

> <ROCS_ColorScore>
-7.317

> <ROCS_Overlap>
2819.761

> <ROCS_Rank>
315                 

$$$$
untitled-dbase-551504_3
  -OEChem-02092406493D

 45 49  0     0  0  0  0  0  0999 V2000
    5.8636   13.3838   25.4380 C   0  0  0  0  0  0  0  0  0  0  0  0
    5.5059   12.0408   25.5979 C   0  0  0  0  0  0  0  0  0  0  0  0
   13.1097   14.6115   22.9452 C   0  0  0  0  0  0  0  0  0  0  0  0
    7.0731   13.7290   24.8294 C   0  0  0  0  0  0  0  0  0  0  0  0
   13.1126   15.3850   21.7816 C   0  0  0  0  0  0  0  0  0  0  0  0
    6.3529   11.0258   25.1516 C   0  0  0  0  0  0  0  0  0  0  0  0
   11.9000   14.2462   23.5576 C   0  0  0  0  0  0  0  0  0  0  0  0
   10.2667    9.5712   23.1426 C   0  0  0  0  0  0  0  0  0  0  0  0
    7.9235   12.7190   24.3814 C   0  0  0  0  0  0  0  0  0  0  0  0
   11.8961   15.7859   21.2590 C   0  0  0  0  0  0  0  0  0  0  0  0
    7.5570   11.3779   24.5458 C   0  0  0  0  0  0  0  0  0  0  0  0
   10.7074   15.4231   21.8687 C   0  0  0  0  0  0  0  0  0  0  0  0
   10.6795   14.6516   23.0148 C   0  0  0  0  0  0  0  0  0  0  0  0
    9.3701    8.5812   23.5816 C   0  0  0  0  0  0  0  0  0  0  0  0
    9.6647   10.7681   23.4666 C   0  0  0  0  0  0  0  0  0  0  0  0
    9.2225   12.9657   23.7263 C   0  0  0  0  0  0  0  0  0  0  0  0
   11.6139   16.5611   20.0299 C   0  0  0  0  0  0  0  0  0  0  0  0
   10.0957   16.7995   20.2040 C   0  0  0  0  0  0  0  0  0  0  0  0
    9.5277    7.1204   23.4787 C   0  0  0  0  0  0  0  0  0  0  0  0
    9.7983   18.2311   20.6680 C   0  0  0  0  0  0  0  0  0  0  0  0
    9.3377   16.5039   18.9088 C   0  0  0  0  0  0  0  0  0  0  0  0
    8.2735    9.0909   24.1455 N   0  0  0  0  0  0  0  0  0  0  0  0
   10.0465   12.0629   23.2939 N   0  0  0  0  0  0  0  0  0  0  0  0
    8.4683   10.4234   24.0681 N   0  0  0  0  0  0  0  0  0  0  0  0
    9.5920   15.8905   21.2254 O   0  0  0  0  0  0  0  0  0  0  0  0
    9.5092   14.2984   23.6023 O   0  0  0  0  0  0  0  0  0  0  0  0
    5.1951   14.1647   25.7900 H   0  0  0  0  0  0  0  0  0  0  0  0
    4.5623   11.7874   26.0730 H   0  0  0  0  0  0  0  0  0  0  0  0
   14.0514   14.2850   23.3786 H   0  0  0  0  0  0  0  0  0  0  0  0
    7.3255   14.7792   24.7194 H   0  0  0  0  0  0  0  0  0  0  0  0
   14.0470   15.6577   21.3031 H   0  0  0  0  0  0  0  0  0  0  0  0
    6.0552    9.9905   25.2862 H   0  0  0  0  0  0  0  0  0  0  0  0
   11.9215   13.6413   24.4605 H   0  0  0  0  0  0  0  0  0  0  0  0
   11.2228    9.4421   22.6555 H   0  0  0  0  0  0  0  0  0  0  0  0
   12.1848   17.4930   19.9788 H   0  0  0  0  0  0  0  0  0  0  0  0
   11.8384   15.9501   19.1489 H   0  0  0  0  0  0  0  0  0  0  0  0
   10.0355    6.7087   24.3677 H   0  0  0  0  0  0  0  0  0  0  0  0
    8.5571    6.6022   23.3806 H   0  0  0  0  0  0  0  0  0  0  0  0
   10.1180    6.8261   22.5925 H   0  0  0  0  0  0  0  0  0  0  0  0
    8.7253   18.3606   20.7790 H   0  0  0  0  0  0  0  0  0  0  0  0
   10.1736   18.9361   19.9314 H   0  0  0  0  0  0  0  0  0  0  0  0
   10.2852   18.4111   21.6225 H   0  0  0  0  0  0  0  0  0  0  0  0
    8.2742   16.6790   19.0577 H   0  0  0  0  0  0  0  0  0  0  0  0
    9.4930   15.4660   18.6214 H   0  0  0  0  0  0  0  0  0  0  0  0
    9.7002   17.1537   18.1149 H   0  0  0  0  0  0  0  0  0  0  0  0
  1  2  1  0  0  0  0
  1  4  2  0  0  0  0
  2  6  2  0  0  0  0
  3  5  1  0  0  0  0
  3  7  2  0  0  0  0
  4  9  1  0  0  0  0
  5 10  2  0  0  0  0
  6 11  1  0  0  0  0
  7 13  1  0  0  0  0
  8 14  1  0  0  0  0
  8 15  2  0  0  0  0
  9 11  2  0  0  0  0
  9 16  1  0  0  0  0
 10 12  1  0  0  0  0
 10 17  1  0  0  0  0
 11 24  1  0  0  0  0
 12 13  2  0  0  0  0
 12 25  1  0  0  0  0
 13 26  1  0  0  0  0
 14 19  1  0  0  0  0
 14 22  2  0  0  0  0
 15 23  1  0  0  0  0
 15 24  1  0  0  0  0
 16 23  2  0  0  0  0
 16 26  1  0  0  0  0
 17 18  1  0  0  0  0
 18 20  1  0  0  0  0
 18 21  1  0  0  0  0
 18 25  1  0  0  0  0
 22 24  1  0  0  0  0
  1 27  1  0  0  0  0
  2 28  1  0  0  0  0
  3 29  1  0  0  0  0
  4 30  1  0  0  0  0
  5 31  1  0  0  0  0
  6 32  1  0  0  0  0
  7 33  1  0  0  0  0
  8 34  1  0  0  0  0
 17 35  1  0  0  0  0
 17 36  1  0  0  0  0
 19 37  1  0  0  0  0
 19 38  1  0  0  0  0
 19 39  1  0  0  0  0
 20 40  1  0  0  0  0
 20 41  1  0  0  0  0
 20 42  1  0  0  0  0
 21 43  1  0  0  0  0
 21 44  1  0  0  0  0
 21 45  1  0  0  0  0
M  END
> <idnumber>
Z98405527

> <heavy_atoms>
26

> <LogS>
-5.97

> <LogP>
5.324

> <rotating_bonds>
2

> <PSA>
48.65

> <hb_acceptors>
3

> <hb_donors>
0

> <Collection>
Legacy

> <link>
https://www.enaminestore.com/catalog/Z98405527

> <ROCS_ShapeQuery>
x0446_0A_x1080_0A_x0929_0A_x0812_0A_x0719_0A_x1140_0A_x0528_0A_x0310_0A

> <ROCS_TanimotoCombo>
0.459 

> <ROCS_ShapeTanimoto>
0.271 

> <ROCS_ColorTanimoto>
0.188 

> <ROCS_RefTversky>
0.246 

> <ROCS_RefColorTversky>
0.209 

> <ROCS_RefTverskyCombo>
0.454 

> <ROCS_FitTversky>
1.609 

> <ROCS_FitColorTversky>
0.654 

> <ROCS_FitTverskyCombo>
2.264 

> <ROCS_ColorScore>
-7.472

> <ROCS_Overlap>
2905.105

> <ROCS_Rank>
316                 

$$$$
untitled-dbase-412319_44
  -OEChem-02092406493D

 42 45  0     0  0  0  0  0  0999 V2000
    5.7967   12.9577   25.4968 C   0  0  0  0  0  0  0  0  0  0  0  0
    5.5462   11.5939   25.5995 C   0  0  0  0  0  0  0  0  0  0  0  0
   12.8218    9.0053   22.3967 C   0  0  0  0  0  0  0  0  0  0  0  0
    6.9710   13.3963   24.8930 C   0  0  0  0  0  0  0  0  0  0  0  0
   11.9451    9.9631   22.8941 C   0  0  0  0  0  0  0  0  0  0  0  0
    6.4697   10.6718   25.0983 C   0  0  0  0  0  0  0  0  0  0  0  0
   13.0416   15.0409   21.7818 C   0  0  0  0  0  0  0  0  0  0  0  0
   11.8491   15.5055   21.2271 C   0  0  0  0  0  0  0  0  0  0  0  0
   11.8010   13.9907   23.5693 C   0  0  0  0  0  0  0  0  0  0  0  0
   12.2880    7.8073   21.9499 C   0  0  0  0  0  0  0  0  0  0  0  0
   10.1473    8.4683   22.4584 C   0  0  0  0  0  0  0  0  0  0  0  0
    7.8947   12.4628   24.3915 C   0  0  0  0  0  0  0  0  0  0  0  0
   10.5808    9.6973   22.9291 C   0  0  0  0  0  0  0  0  0  0  0  0
    7.6528   11.0828   24.4891 C   0  0  0  0  0  0  0  0  0  0  0  0
   13.0175   14.2834   22.9528 C   0  0  0  0  0  0  0  0  0  0  0  0
   10.6326   15.2129   21.8435 C   0  0  0  0  0  0  0  0  0  0  0  0
   10.6085   14.4554   23.0146 C   0  0  0  0  0  0  0  0  0  0  0  0
    9.0869   12.8349   23.7767 C   0  0  0  0  0  0  0  0  0  0  0  0
    9.6481   10.6684   23.4388 C   0  0  0  0  0  0  0  0  0  0  0  0
    8.8315   14.8270   20.3391 C   0  0  0  0  0  0  0  0  0  0  0  0
   10.9687    7.5130   21.9680 N   0  0  0  0  0  0  0  0  0  0  0  0
    8.5293   10.1813   24.0127 N   0  0  0  0  0  0  0  0  0  0  0  0
    9.9860   11.9593   23.2892 N   0  0  0  0  0  0  0  0  0  0  0  0
   14.2314   13.8109   23.5176 N   0  3  0  0  0  0  0  0  0  0  0  0
   15.3151   14.0857   22.9476 O   0  5  0  0  0  0  0  0  0  0  0  0
   14.1878   13.1307   24.5713 O   0  0  0  0  0  0  0  0  0  0  0  0
    9.4112   14.1592   23.6341 O   0  0  0  0  0  0  0  0  0  0  0  0
    9.4747   15.6718   21.2912 O   0  0  0  0  0  0  0  0  0  0  0  0
    5.0805   13.6751   25.8854 H   0  0  0  0  0  0  0  0  0  0  0  0
    4.6318   11.2433   26.0698 H   0  0  0  0  0  0  0  0  0  0  0  0
   13.8891    9.1903   22.3587 H   0  0  0  0  0  0  0  0  0  0  0  0
    7.1524   14.4655   24.8196 H   0  0  0  0  0  0  0  0  0  0  0  0
   12.3391   10.9114   23.2510 H   0  0  0  0  0  0  0  0  0  0  0  0
    6.2494    9.6099   25.1924 H   0  0  0  0  0  0  0  0  0  0  0  0
   13.9826   15.2757   21.2904 H   0  0  0  0  0  0  0  0  0  0  0  0
   11.8749   16.0947   20.3144 H   0  0  0  0  0  0  0  0  0  0  0  0
   11.7748   13.4006   24.4827 H   0  0  0  0  0  0  0  0  0  0  0  0
   12.9299    7.0273   21.5530 H   0  0  0  0  0  0  0  0  0  0  0  0
    9.0948    8.1996   22.4574 H   0  0  0  0  0  0  0  0  0  0  0  0
    7.9212   15.3114   19.9774 H   0  0  0  0  0  0  0  0  0  0  0  0
    8.5867   13.8700   20.8067 H   0  0  0  0  0  0  0  0  0  0  0  0
    9.5095   14.6572   19.4994 H   0  0  0  0  0  0  0  0  0  0  0  0
  1  2  1  0  0  0  0
  1  4  2  0  0  0  0
  2  6  2  0  0  0  0
  3  5  2  0  0  0  0
  3 10  1  0  0  0  0
  4 12  1  0  0  0  0
  5 13  1  0  0  0  0
  6 14  1  0  0  0  0
  7  8  2  0  0  0  0
  7 15  1  0  0  0  0
  8 16  1  0  0  0  0
  9 15  2  0  0  0  0
  9 17  1  0  0  0  0
 10 21  2  0  0  0  0
 11 13  2  0  0  0  0
 11 21  1  0  0  0  0
 12 14  1  0  0  0  0
 12 18  2  0  0  0  0
 13 19  1  0  0  0  0
 14 22  2  0  0  0  0
 15 24  1  0  0  0  0
 16 17  2  0  0  0  0
 16 28  1  0  0  0  0
 17 27  1  0  0  0  0
 18 23  1  0  0  0  0
 18 27  1  0  0  0  0
 19 22  1  0  0  0  0
 19 23  2  0  0  0  0
 20 28  1  0  0  0  0
 24 25  1  0  0  0  0
 24 26  2  0  0  0  0
  1 29  1  0  0  0  0
  2 30  1  0  0  0  0
  3 31  1  0  0  0  0
  4 32  1  0  0  0  0
  5 33  1  0  0  0  0
  6 34  1  0  0  0  0
  7 35  1  0  0  0  0
  8 36  1  0  0  0  0
  9 37  1  0  0  0  0
 10 38  1  0  0  0  0
 11 39  1  0  0  0  0
 20 40  1  0  0  0  0
 20 41  1  0  0  0  0
 20 42  1  0  0  0  0
M  CHG  2  24   1  25  -1
M  END
> <idnumber>
Z52591002

> <heavy_atoms>
28

> <LogS>
-6.17

> <LogP>
3.494

> <rotating_bonds>
5

> <PSA>
100.27

> <hb_acceptors>
6

> <hb_donors>
0

> <Collection>
Legacy

> <link>
https://www.enaminestore.com/catalog/Z52591002

> <ROCS_ShapeQuery>
x0446_0A_x1080_0A_x0929_0A_x0812_0A_x0719_0A_x1140_0A_x0528_0A_x0310_0A

> <ROCS_TanimotoCombo>
0.459 

> <ROCS_ShapeTanimoto>
0.276 

> <ROCS_ColorTanimoto>
0.183 

> <ROCS_RefTversky>
0.250 

> <ROCS_RefColorTversky>
0.208 

> <ROCS_RefTverskyCombo>
0.458 

> <ROCS_FitTversky>
1.576 

> <ROCS_FitColorTversky>
0.604 

> <ROCS_FitTverskyCombo>
2.180 

> <ROCS_ColorScore>
-7.461

> <ROCS_Overlap>
2962.721

> <ROCS_Rank>
317                 

$$$$
untitled-dbase-1058281_28
  -OEChem-02092406493D

 51 55  0     0  0  0  0  0  0999 V2000
    9.0098   13.5487   22.2071 C   0  0  0  0  0  0  0  0  0  0  0  0
   12.6284    9.2534   23.0611 C   0  0  0  0  0  0  0  0  0  0  0  0
    8.0424   12.9642   25.2331 C   0  0  0  0  0  0  0  0  0  0  0  0
    6.5852   11.8552   23.5060 C   0  0  0  0  0  0  0  0  0  0  0  0
   11.7009   15.8479   23.1292 C   0  0  0  0  0  0  0  0  0  0  0  0
   12.6042   14.2239   22.1755 C   0  0  0  0  0  0  0  0  0  0  0  0
   10.4483   11.7890   23.6376 C   0  0  0  0  0  0  0  0  0  0  0  0
    9.2458   10.8734   22.2119 C   0  0  0  0  0  0  0  0  0  0  0  0
    6.9477   12.6792   26.2635 C   0  0  0  0  0  0  0  0  0  0  0  0
    5.5521   11.6143   24.6086 C   0  0  0  0  0  0  0  0  0  0  0  0
   10.5925   15.1249   21.0242 C   0  0  0  0  0  0  0  0  0  0  0  0
   11.3248   14.3194   23.0882 C   0  0  0  0  0  0  0  0  0  0  0  0
    9.0792   12.2435   22.9866 C   0  0  0  0  0  0  0  0  0  0  0  0
    8.0041   11.9584   24.0767 C   0  0  0  0  0  0  0  0  0  0  0  0
   11.9464   15.5299   21.6158 C   0  0  0  0  0  0  0  0  0  0  0  0
    9.6310   10.4421   23.6780 C   0  0  0  0  0  0  0  0  0  0  0  0
   13.4879    8.8571   21.9068 C   0  0  0  0  0  0  0  0  0  0  0  0
   10.3086    9.1329   23.9481 C   0  0  0  0  0  0  0  0  0  0  0  0
    5.6245   12.6438   25.6437 N   0  0  0  0  0  0  0  0  0  0  0  0
   10.1957   14.2530   22.1318 N   0  0  0  0  0  0  0  0  0  0  0  0
   11.3026    8.8572   22.9518 N   0  0  0  0  0  0  0  0  0  0  0  0
    7.9664   13.9516   21.6781 O   0  0  0  0  0  0  0  0  0  0  0  0
   13.1205    9.8751   23.9954 O   0  0  0  0  0  0  0  0  0  0  0  0
    8.4620   10.6648   24.5209 O   0  0  0  0  0  0  0  0  0  0  0  0
   12.6623   16.3725   20.8593 F   0  0  0  0  0  0  0  0  0  0  0  0
    7.9186   13.9843   24.8486 H   0  0  0  0  0  0  0  0  0  0  0  0
    9.0042   12.9348   25.7557 H   0  0  0  0  0  0  0  0  0  0  0  0
    6.5021   11.0314   22.7895 H   0  0  0  0  0  0  0  0  0  0  0  0
    6.3286   12.7754   22.9663 H   0  0  0  0  0  0  0  0  0  0  0  0
   10.8857   16.5410   23.3575 H   0  0  0  0  0  0  0  0  0  0  0  0
   12.5806   16.1229   23.7214 H   0  0  0  0  0  0  0  0  0  0  0  0
   13.5737   14.3374   22.6728 H   0  0  0  0  0  0  0  0  0  0  0  0
   12.6502   13.3688   21.4944 H   0  0  0  0  0  0  0  0  0  0  0  0
   11.3363   11.8156   22.9947 H   0  0  0  0  0  0  0  0  0  0  0  0
   10.7135   12.2156   24.6077 H   0  0  0  0  0  0  0  0  0  0  0  0
    8.3450   10.4126   21.8004 H   0  0  0  0  0  0  0  0  0  0  0  0
   10.0357   10.8254   21.4527 H   0  0  0  0  0  0  0  0  0  0  0  0
    7.1479   11.7340   26.7830 H   0  0  0  0  0  0  0  0  0  0  0  0
    6.9601   13.4680   27.0238 H   0  0  0  0  0  0  0  0  0  0  0  0
    4.5498   11.6285   24.1667 H   0  0  0  0  0  0  0  0  0  0  0  0
    5.6901   10.6208   25.0523 H   0  0  0  0  0  0  0  0  0  0  0  0
    9.8864   15.9532   20.9247 H   0  0  0  0  0  0  0  0  0  0  0  0
   10.6677   14.5483   20.0986 H   0  0  0  0  0  0  0  0  0  0  0  0
   11.2739   13.7485   24.0120 H   0  0  0  0  0  0  0  0  0  0  0  0
   13.5066    9.6223   21.1142 H   0  0  0  0  0  0  0  0  0  0  0  0
   14.5411    8.7127   22.1968 H   0  0  0  0  0  0  0  0  0  0  0  0
   13.1962    7.9229   21.4008 H   0  0  0  0  0  0  0  0  0  0  0  0
   10.7857    9.1814   24.9352 H   0  0  0  0  0  0  0  0  0  0  0  0
    9.5525    8.3375   23.9384 H   0  0  0  0  0  0  0  0  0  0  0  0
    4.9235   12.4513   26.3587 H   0  0  0  0  0  0  0  0  0  0  0  0
   11.0198    8.3419   22.1172 H   0  0  0  0  0  0  0  0  0  0  0  0
  1 13  1  0  0  0  0
  1 20  1  0  0  0  0
  1 22  2  0  0  0  0
  2 17  1  0  0  0  0
  2 21  1  0  0  0  0
  2 23  2  0  0  0  0
  3  9  1  0  0  0  0
  3 14  1  0  0  0  0
  4 10  1  0  0  0  0
  4 14  1  0  0  0  0
  5 12  1  0  0  0  0
  5 15  1  0  0  0  0
  6 12  1  0  0  0  0
  6 15  1  0  0  0  0
  7 13  1  0  0  0  0
  7 16  1  0  0  0  0
  8 13  1  0  0  0  0
  8 16  1  0  0  0  0
  9 19  1  0  0  0  0
 10 19  1  0  0  0  0
 11 15  1  0  0  0  0
 11 20  1  0  0  0  0
 12 20  1  0  0  0  0
 13 14  1  0  0  0  0
 14 24  1  0  0  0  0
 15 25  1  0  0  0  0
 16 18  1  0  0  0  0
 16 24  1  0  0  0  0
 18 21  1  0  0  0  0
  3 26  1  0  0  0  0
  3 27  1  0  0  0  0
  4 28  1  0  0  0  0
  4 29  1  0  0  0  0
  5 30  1  0  0  0  0
  5 31  1  0  0  0  0
  6 32  1  0  0  0  0
  6 33  1  0  0  0  0
  7 34  1  0  0  0  0
  7 35  1  0  0  0  0
  8 36  1  0  0  0  0
  8 37  1  0  0  0  0
  9 38  1  0  0  0  0
  9 39  1  0  0  0  0
 10 40  1  0  0  0  0
 10 41  1  0  0  0  0
 11 42  1  0  0  0  0
 11 43  1  0  0  0  0
 12 44  1  0  0  0  0
 17 45  1  0  0  0  0
 17 46  1  0  0  0  0
 17 47  1  0  0  0  0
 18 48  1  0  0  0  0
 18 49  1  0  0  0  0
 19 50  1  0  0  0  0
 21 51  1  0  0  0  0
M  END
> <idnumber>
Z3799956766

> <heavy_atoms>
25

> <LogS>
-2.273

> <LogP>
-1.003

> <rotating_bonds>
3

> <PSA>
70.67

> <hb_acceptors>
4

> <hb_donors>
2

> <Collection>
Advanced

> <link>
https://www.enaminestore.com/catalog/Z3799956766

> <ROCS_ShapeQuery>
x0446_0A_x1080_0A_x0929_0A_x0812_0A_x0719_0A_x1140_0A_x0528_0A_x0310_0A

> <ROCS_TanimotoCombo>
0.459 

> <ROCS_ShapeTanimoto>
0.276 

> <ROCS_ColorTanimoto>
0.182 

> <ROCS_RefTversky>
0.248 

> <ROCS_RefColorTversky>
0.245 

> <ROCS_RefTverskyCombo>
0.493 

> <ROCS_FitTversky>
1.712 

> <ROCS_FitColorTversky>
0.417 

> <ROCS_FitTverskyCombo>
2.129 

> <ROCS_ColorScore>
-8.906

> <ROCS_Overlap>
2929.013

> <ROCS_Rank>
318                 

$$$$
untitled-dbase-534793_103
  -OEChem-02092406493D

 35 37  0     0  0  0  0  0  0999 V2000
    6.3377   13.2030   24.5140 C   0  0  0  0  0  0  0  0  0  0  0  0
    5.7471   11.9413   24.4812 C   0  0  0  0  0  0  0  0  0  0  0  0
    7.6947   13.3667   24.2127 C   0  0  0  0  0  0  0  0  0  0  0  0
    6.4907   10.8058   24.1473 C   0  0  0  0  0  0  0  0  0  0  0  0
    8.4646   12.2364   23.8733 C   0  0  0  0  0  0  0  0  0  0  0  0
    9.8283   12.0355   23.5201 C   0  0  0  0  0  0  0  0  0  0  0  0
    7.8460   10.9846   23.8484 C   0  0  0  0  0  0  0  0  0  0  0  0
   10.0081   10.6906   23.2923 C   0  0  0  0  0  0  0  0  0  0  0  0
    7.2804   15.3239   21.0139 C   0  0  0  0  0  0  0  0  0  0  0  0
    9.2581   14.0450   20.8717 C   0  0  0  0  0  0  0  0  0  0  0  0
   10.8627   13.0260   23.4085 C   0  0  0  0  0  0  0  0  0  0  0  0
   11.2057    9.9217   22.9002 C   0  0  0  0  0  0  0  0  0  0  0  0
    5.5976   17.1070   21.4767 C   0  0  0  0  0  0  0  0  0  0  0  0
   11.5910   13.2358   22.0617 C   0  0  0  0  0  0  0  0  0  0  0  0
    8.3021   15.9424   21.5668 N   0  0  0  0  0  0  0  0  0  0  0  0
    9.4623   15.1927   21.4825 N   0  0  0  0  0  0  0  0  0  0  0  0
    8.8068   10.0650   23.4926 N   0  0  0  0  0  0  0  0  0  0  0  0
    6.0163   15.8142   20.9443 N   0  0  0  0  0  0  0  0  0  0  0  0
   11.1862   13.7367   24.3939 O   0  0  0  0  0  0  0  0  0  0  0  0
    7.6449   13.7846   20.3509 S   0  0  0  0  0  0  0  0  0  0  0  0
   10.5582   12.8758   20.6172 S   0  0  0  0  0  0  0  0  0  0  0  0
    5.7395   14.0714   24.7774 H   0  0  0  0  0  0  0  0  0  0  0  0
    4.6915   11.8373   24.7185 H   0  0  0  0  0  0  0  0  0  0  0  0
    8.1403   14.3568   24.2431 H   0  0  0  0  0  0  0  0  0  0  0  0
    6.0303    9.8238   24.1221 H   0  0  0  0  0  0  0  0  0  0  0  0
   11.7650    9.5787   23.7859 H   0  0  0  0  0  0  0  0  0  0  0  0
   10.9481    9.0318   22.3010 H   0  0  0  0  0  0  0  0  0  0  0  0
   11.8951   10.5185   22.2787 H   0  0  0  0  0  0  0  0  0  0  0  0
    6.4605   17.6122   21.9351 H   0  0  0  0  0  0  0  0  0  0  0  0
    5.2003   17.7282   20.6604 H   0  0  0  0  0  0  0  0  0  0  0  0
    4.8161   16.9552   22.2357 H   0  0  0  0  0  0  0  0  0  0  0  0
   12.4625   12.5763   22.0282 H   0  0  0  0  0  0  0  0  0  0  0  0
   11.9029   14.2816   21.9933 H   0  0  0  0  0  0  0  0  0  0  0  0
    8.6444    9.0722   23.3939 H   0  0  0  0  0  0  0  0  0  0  0  0
    5.2807   15.2576   20.4918 H   0  0  0  0  0  0  0  0  0  0  0  0
  1  2  1  0  0  0  0
  1  3  2  0  0  0  0
  2  4  2  0  0  0  0
  3  5  1  0  0  0  0
  4  7  1  0  0  0  0
  5  6  1  0  0  0  0
  5  7  2  0  0  0  0
  6  8  2  0  0  0  0
  6 11  1  0  0  0  0
  7 17  1  0  0  0  0
  8 12  1  0  0  0  0
  8 17  1  0  0  0  0
  9 15  2  0  0  0  0
  9 18  1  0  0  0  0
  9 20  1  0  0  0  0
 10 16  2  0  0  0  0
 10 20  1  0  0  0  0
 10 21  1  0  0  0  0
 11 14  1  0  0  0  0
 11 19  2  0  0  0  0
 13 18  1  0  0  0  0
 14 21  1  0  0  0  0
 15 16  1  0  0  0  0
  1 22  1  0  0  0  0
  2 23  1  0  0  0  0
  3 24  1  0  0  0  0
  4 25  1  0  0  0  0
 12 26  1  0  0  0  0
 12 27  1  0  0  0  0
 12 28  1  0  0  0  0
 13 29  1  0  0  0  0
 13 30  1  0  0  0  0
 13 31  1  0  0  0  0
 14 32  1  0  0  0  0
 14 33  1  0  0  0  0
 17 34  1  0  0  0  0
 18 35  1  0  0  0  0
M  END
> <idnumber>
Z92639503

> <heavy_atoms>
21

> <LogS>
-5.87

> <LogP>
3.068

> <rotating_bonds>
5

> <PSA>
70.67

> <hb_acceptors>
4

> <hb_donors>
2

> <Collection>
Legacy

> <link>
https://www.enaminestore.com/catalog/Z92639503

> <ROCS_ShapeQuery>
x0446_0A_x1080_0A_x0929_0A_x0812_0A_x0719_0A_x1140_0A_x0528_0A_x0310_0A

> <ROCS_TanimotoCombo>
0.459 

> <ROCS_ShapeTanimoto>
0.244 

> <ROCS_ColorTanimoto>
0.215 

> <ROCS_RefTversky>
0.221 

> <ROCS_RefColorTversky>
0.225 

> <ROCS_RefTverskyCombo>
0.446 

> <ROCS_FitTversky>
1.741 

> <ROCS_FitColorTversky>
0.825 

> <ROCS_FitTverskyCombo>
2.565 

> <ROCS_ColorScore>
-8.046

> <ROCS_Overlap>
2608.868

> <ROCS_Rank>
319                 

$$$$
untitled-dbase-606582_0
  -OEChem-02092406493D

 38 41  0     0  0  0  0  0  0999 V2000
    5.9844   13.4055   25.6629 C   0  0  0  0  0  0  0  0  0  0  0  0
    5.5559   12.0742   25.6964 C   0  0  0  0  0  0  0  0  0  0  0  0
    7.2103   13.7427   25.0832 C   0  0  0  0  0  0  0  0  0  0  0  0
    6.3476   11.0630   25.1510 C   0  0  0  0  0  0  0  0  0  0  0  0
   12.0198   14.6487   24.1139 C   0  0  0  0  0  0  0  0  0  0  0  0
   13.2393   14.9967   23.5438 C   0  0  0  0  0  0  0  0  0  0  0  0
    8.0057   12.7365   24.5366 C   0  0  0  0  0  0  0  0  0  0  0  0
    7.5685   11.4071   24.5748 C   0  0  0  0  0  0  0  0  0  0  0  0
   10.8731   14.6238   23.3279 C   0  0  0  0  0  0  0  0  0  0  0  0
   10.1777    9.6014   22.9912 C   0  0  0  0  0  0  0  0  0  0  0  0
   13.2586   15.3089   22.1940 C   0  0  0  0  0  0  0  0  0  0  0  0
    9.2299    8.6229   23.3391 C   0  0  0  0  0  0  0  0  0  0  0  0
   10.9983   14.9529   21.9878 C   0  0  0  0  0  0  0  0  0  0  0  0
    9.6403   10.7922   23.4309 C   0  0  0  0  0  0  0  0  0  0  0  0
    9.3156   12.9754   23.9007 C   0  0  0  0  0  0  0  0  0  0  0  0
   14.5499   15.6869   21.5489 C   0  0  0  0  0  0  0  0  0  0  0  0
    9.2967    7.1688   23.1054 C   0  0  0  0  0  0  0  0  0  0  0  0
   12.1657   15.2959   21.3984 N   0  0  0  0  0  0  0  0  0  0  0  0
    8.1622    9.1338   23.9550 N   0  0  0  0  0  0  0  0  0  0  0  0
   10.0902   12.0756   23.3800 N   0  0  0  0  0  0  0  0  0  0  0  0
    8.4275   10.4555   24.0035 N   0  0  0  0  0  0  0  0  0  0  0  0
    9.7988   14.9177   21.2058 N   0  3  0  0  0  0  0  0  0  0  0  0
    9.4883   13.8491   20.6390 O   0  5  0  0  0  0  0  0  0  0  0  0
    9.1117   15.9573   21.1219 O   0  0  0  0  0  0  0  0  0  0  0  0
    9.6656   14.2769   23.8996 O   0  0  0  0  0  0  0  0  0  0  0  0
   11.6544    9.3478   22.2013 Cl  0  0  0  0  0  0  0  0  0  0  0  0
    5.3583   14.1834   26.0918 H   0  0  0  0  0  0  0  0  0  0  0  0
    4.6004   11.8272   26.1505 H   0  0  0  0  0  0  0  0  0  0  0  0
    7.5175   14.7841   25.0726 H   0  0  0  0  0  0  0  0  0  0  0  0
    5.9964   10.0365   25.1880 H   0  0  0  0  0  0  0  0  0  0  0  0
   11.9705   14.3981   25.1699 H   0  0  0  0  0  0  0  0  0  0  0  0
   14.1412   15.0199   24.1460 H   0  0  0  0  0  0  0  0  0  0  0  0
   15.0561   14.7960   21.1583 H   0  0  0  0  0  0  0  0  0  0  0  0
   14.3902   16.3885   20.7203 H   0  0  0  0  0  0  0  0  0  0  0  0
   15.2201   16.1840   22.2620 H   0  0  0  0  0  0  0  0  0  0  0  0
    9.7777    6.6502   23.9517 H   0  0  0  0  0  0  0  0  0  0  0  0
    8.2959    6.7238   22.9667 H   0  0  0  0  0  0  0  0  0  0  0  0
    9.8678    6.9203   22.1936 H   0  0  0  0  0  0  0  0  0  0  0  0
  1  2  1  0  0  0  0
  1  3  2  0  0  0  0
  2  4  2  0  0  0  0
  3  7  1  0  0  0  0
  4  8  1  0  0  0  0
  5  6  2  0  0  0  0
  5  9  1  0  0  0  0
  6 11  1  0  0  0  0
  7  8  2  0  0  0  0
  7 15  1  0  0  0  0
  8 21  1  0  0  0  0
  9 13  2  0  0  0  0
  9 25  1  0  0  0  0
 10 12  1  0  0  0  0
 10 14  2  0  0  0  0
 10 26  1  0  0  0  0
 11 16  1  0  0  0  0
 11 18  2  0  0  0  0
 12 17  1  0  0  0  0
 12 19  2  0  0  0  0
 13 18  1  0  0  0  0
 13 22  1  0  0  0  0
 14 20  1  0  0  0  0
 14 21  1  0  0  0  0
 15 20  2  0  0  0  0
 15 25  1  0  0  0  0
 19 21  1  0  0  0  0
 22 23  1  0  0  0  0
 22 24  2  0  0  0  0
  1 27  1  0  0  0  0
  2 28  1  0  0  0  0
  3 29  1  0  0  0  0
  4 30  1  0  0  0  0
  5 31  1  0  0  0  0
  6 32  1  0  0  0  0
 16 33  1  0  0  0  0
 16 34  1  0  0  0  0
 16 35  1  0  0  0  0
 17 36  1  0  0  0  0
 17 37  1  0  0  0  0
 17 38  1  0  0  0  0
M  CHG  2  22   1  23  -1
M  END
> <idnumber>
Z165213994

> <heavy_atoms>
26

> <LogS>
-6.12

> <LogP>
3.594

> <rotating_bonds>
3

> <PSA>
95.45

> <hb_acceptors>
5

> <hb_donors>
0

> <Collection>
Legacy

> <link>
https://www.enaminestore.com/catalog/Z165213994

> <ROCS_ShapeQuery>
x0446_0A_x1080_0A_x0929_0A_x0812_0A_x0719_0A_x1140_0A_x0528_0A_x0310_0A

> <ROCS_TanimotoCombo>
0.459 

> <ROCS_ShapeTanimoto>
0.280 

> <ROCS_ColorTanimoto>
0.179 

> <ROCS_RefTversky>
0.252 

> <ROCS_RefColorTversky>
0.200 

> <ROCS_RefTverskyCombo>
0.452 

> <ROCS_FitTversky>
1.660 

> <ROCS_FitColorTversky>
0.628 

> <ROCS_FitTverskyCombo>
2.288 

> <ROCS_ColorScore>
-7.168

> <ROCS_Overlap>
2977.296

> <ROCS_Rank>
320                 

$$$$
untitled-dbase-1164351_117
  -OEChem-02092406493D

 34 36  0     0  0  0  0  0  0999 V2000
    5.9850   12.6309   24.9395 C   0  0  0  0  0  0  0  0  0  0  0  0
    6.7919   13.7410   24.6333 C   0  0  0  0  0  0  0  0  0  0  0  0
    6.4764   11.3316   24.7916 C   0  0  0  0  0  0  0  0  0  0  0  0
    8.0999   13.5652   24.1752 C   0  0  0  0  0  0  0  0  0  0  0  0
    7.7711   11.1845   24.3380 C   0  0  0  0  0  0  0  0  0  0  0  0
    8.5617   12.2723   24.0377 C   0  0  0  0  0  0  0  0  0  0  0  0
    5.3894   14.6353   20.8778 C   0  0  0  0  0  0  0  0  0  0  0  0
    7.4550   14.4590   21.5191 C   0  0  0  0  0  0  0  0  0  0  0  0
    9.6883   10.4802   23.6740 C   0  0  0  0  0  0  0  0  0  0  0  0
    1.8064   15.2977   21.0608 C   0  0  0  0  0  0  0  0  0  0  0  0
    8.9544   14.7386   23.8488 C   0  0  0  0  0  0  0  0  0  0  0  0
    4.0978   15.2542   20.5406 C   0  0  0  0  0  0  0  0  0  0  0  0
    5.7135   13.3633   20.8198 N   0  0  0  0  0  0  0  0  0  0  0  0
    7.0277   13.2511   21.2278 N   0  0  0  0  0  0  0  0  0  0  0  0
    6.4561   15.3615   21.3132 N   0  0  0  0  0  0  0  0  0  0  0  0
    9.9619   13.7958   21.6193 O   0  0  0  0  0  0  0  0  0  0  0  0
    9.3532   16.2366   21.7533 O   0  0  0  0  0  0  0  0  0  0  0  0
    8.4157   10.0025   24.1334 O   0  0  0  0  0  0  0  0  0  0  0  0
    9.8014   11.9090   23.6068 O   0  0  0  0  0  0  0  0  0  0  0  0
    3.0633   14.7161   21.3668 O   0  0  0  0  0  0  0  0  0  0  0  0
    9.9233    9.9681   22.4401 F   0  0  0  0  0  0  0  0  0  0  0  0
   10.6534   10.0080   24.5023 F   0  0  0  0  0  0  0  0  0  0  0  0
    9.0814   14.8502   22.0921 S   0  0  0  0  0  0  0  0  0  0  0  0
    4.9696   12.7876   25.2935 H   0  0  0  0  0  0  0  0  0  0  0  0
    6.3844   14.7413   24.7585 H   0  0  0  0  0  0  0  0  0  0  0  0
    5.8571   10.4735   25.0260 H   0  0  0  0  0  0  0  0  0  0  0  0
    1.0378   14.8672   21.7072 H   0  0  0  0  0  0  0  0  0  0  0  0
    1.5627   15.1098   20.0120 H   0  0  0  0  0  0  0  0  0  0  0  0
    1.8620   16.3752   21.2325 H   0  0  0  0  0  0  0  0  0  0  0  0
    9.9702   14.6433   24.2527 H   0  0  0  0  0  0  0  0  0  0  0  0
    8.5292   15.6820   24.2143 H   0  0  0  0  0  0  0  0  0  0  0  0
    4.1066   16.3510   20.6835 H   0  0  0  0  0  0  0  0  0  0  0  0
    3.8145   15.0794   19.4859 H   0  0  0  0  0  0  0  0  0  0  0  0
    6.4980   16.3625   21.4555 H   0  0  0  0  0  0  0  0  0  0  0  0
  1  2  2  0  0  0  0
  1  3  1  0  0  0  0
  2  4  1  0  0  0  0
  3  5  2  0  0  0  0
  4  6  2  0  0  0  0
  4 11  1  0  0  0  0
  5  6  1  0  0  0  0
  5 18  1  0  0  0  0
  6 19  1  0  0  0  0
  7 12  1  0  0  0  0
  7 13  2  0  0  0  0
  7 15  1  0  0  0  0
  8 14  2  0  0  0  0
  8 15  1  0  0  0  0
  8 23  1  0  0  0  0
  9 18  1  0  0  0  0
  9 19  1  0  0  0  0
  9 21  1  0  0  0  0
  9 22  1  0  0  0  0
 10 20  1  0  0  0  0
 11 23  1  0  0  0  0
 12 20  1  0  0  0  0
 13 14  1  0  0  0  0
 16 23  2  0  0  0  0
 17 23  2  0  0  0  0
  1 24  1  0  0  0  0
  2 25  1  0  0  0  0
  3 26  1  0  0  0  0
 10 27  1  0  0  0  0
 10 28  1  0  0  0  0
 10 29  1  0  0  0  0
 11 30  1  0  0  0  0
 11 31  1  0  0  0  0
 12 32  1  0  0  0  0
 12 33  1  0  0  0  0
 15 34  1  0  0  0  0
M  END
> <idnumber>
Z8229882403

> <heavy_atoms>
23

> <LogS>
-3.636

> <LogP>
1.167

> <rotating_bonds>
5

> <PSA>
103.4

> <hb_acceptors>
7

> <hb_donors>
1

> <Collection>
Advanced

> <link>
https://www.enaminestore.com/catalog/Z8229882403

> <ROCS_ShapeQuery>
x0446_0A_x1080_0A_x0929_0A_x0812_0A_x0719_0A_x1140_0A_x0528_0A_x0310_0A

> <ROCS_TanimotoCombo>
0.459 

> <ROCS_ShapeTanimoto>
0.252 

> <ROCS_ColorTanimoto>
0.207 

> <ROCS_RefTversky>
0.229 

> <ROCS_RefColorTversky>
0.232 

> <ROCS_RefTverskyCombo>
0.460 

> <ROCS_FitTversky>
1.668 

> <ROCS_FitColorTversky>
0.659 

> <ROCS_FitTverskyCombo>
2.327 

> <ROCS_ColorScore>
-8.315

> <ROCS_Overlap>
2703.071

> <ROCS_Rank>
321                 

$$$$
untitled-dbase-668222_9
  -OEChem-02092406493D

 48 52  0     1  0  0  0  0  0999 V2000
    9.2386   16.2658   20.9244 C   0  0  0  0  0  0  0  0  0  0  0  0
   11.0890   16.1865   21.9132 C   0  0  0  0  0  0  0  0  0  0  0  0
   12.0824   14.1667   23.5432 C   0  0  0  0  0  0  0  0  0  0  0  0
   10.8610   14.0076   23.0084 C   0  0  0  0  0  0  0  0  0  0  0  0
   12.7959   15.4340   23.2031 C   0  0  0  0  0  0  0  0  0  0  0  0
    7.0457   10.6899   24.2665 C   0  0  0  0  0  0  0  0  0  0  0  0
    8.4177   10.3939   22.1925 C   0  0  0  0  0  0  0  0  0  0  0  0
    9.4583   10.0626   24.4990 C   0  0  0  0  0  0  0  0  0  0  0  0
    7.6060   12.6988   22.8815 C   0  0  0  0  0  0  0  0  0  0  0  0
    8.6552   12.3674   25.1978 C   0  0  0  0  0  0  0  0  0  0  0  0
   10.5796   11.6058   22.8033 C   0  0  0  0  0  0  0  0  0  0  0  0
    7.2910   11.2008   22.8449 C   0  0  2  0  0  0  0  0  0  0  0  0
    8.3122   10.8779   25.1051 C   0  0  1  0  0  0  0  0  0  0  0  0
    9.7127   10.3618   23.0156 C   0  0  0  0  0  0  0  0  0  0  0  0
    8.7470   13.0708   23.8373 C   0  0  0  0  0  0  0  0  0  0  0  0
   13.3024   15.5170   26.1747 C   0  0  0  0  0  0  0  0  0  0  0  0
   14.1696   15.6251   23.7961 C   0  0  0  0  0  0  0  0  0  0  0  0
   14.0738   16.3252   25.1406 C   0  0  0  0  0  0  0  0  0  0  0  0
   10.3840   16.9673   21.1193 N   0  0  0  0  0  0  0  0  0  0  0  0
    9.1656   15.0903   21.5413 N   0  0  0  0  0  0  0  0  0  0  0  0
   12.3306   16.3785   22.4400 N   0  0  0  0  0  0  0  0  0  0  0  0
   10.3595   15.0252   22.1869 N   0  0  0  0  0  0  0  0  0  0  0  0
   10.0659   12.9052   23.2151 N   0  0  3  0  0  0  0  0  0  0  0  0
    8.4250   16.6222   20.3106 H   0  0  0  0  0  0  0  0  0  0  0  0
   12.5509   13.4350   24.1886 H   0  0  0  0  0  0  0  0  0  0  0  0
    6.2066   11.2296   24.7228 H   0  0  0  0  0  0  0  0  0  0  0  0
    6.7629    9.6301   24.2429 H   0  0  0  0  0  0  0  0  0  0  0  0
    8.0670    9.3602   22.0694 H   0  0  0  0  0  0  0  0  0  0  0  0
    8.6158   10.7676   21.1804 H   0  0  0  0  0  0  0  0  0  0  0  0
   10.3763   10.2062   25.0821 H   0  0  0  0  0  0  0  0  0  0  0  0
    9.2044    8.9980   24.5932 H   0  0  0  0  0  0  0  0  0  0  0  0
    7.8118   13.0756   21.8716 H   0  0  0  0  0  0  0  0  0  0  0  0
    6.7009   13.2257   23.2142 H   0  0  0  0  0  0  0  0  0  0  0  0
    7.8637   12.8597   25.7798 H   0  0  0  0  0  0  0  0  0  0  0  0
    9.5787   12.5168   25.7713 H   0  0  0  0  0  0  0  0  0  0  0  0
   11.5355   11.4376   23.3190 H   0  0  0  0  0  0  0  0  0  0  0  0
   10.8264   11.6600   21.7336 H   0  0  0  0  0  0  0  0  0  0  0  0
    6.3782   11.0560   22.2536 H   0  0  0  0  0  0  0  0  0  0  0  0
    8.1244   10.5046   26.1195 H   0  0  0  0  0  0  0  0  0  0  0  0
   10.3105    9.5251   22.6258 H   0  0  0  0  0  0  0  0  0  0  0  0
    8.6131   14.1411   24.0513 H   0  0  0  0  0  0  0  0  0  0  0  0
   13.7467   14.5255   26.3085 H   0  0  0  0  0  0  0  0  0  0  0  0
   12.2558   15.3889   25.8815 H   0  0  0  0  0  0  0  0  0  0  0  0
   13.3196   16.0290   27.1421 H   0  0  0  0  0  0  0  0  0  0  0  0
   14.7320   16.2380   23.0914 H   0  0  0  0  0  0  0  0  0  0  0  0
   14.6425   14.6472   23.8784 H   0  0  0  0  0  0  0  0  0  0  0  0
   13.6042   17.3099   25.0308 H   0  0  0  0  0  0  0  0  0  0  0  0
   15.0905   16.4911   25.5154 H   0  0  0  0  0  0  0  0  0  0  0  0
  1 19  1  0  0  0  0
  1 20  2  0  0  0  0
  2 19  2  0  0  0  0
  2 21  1  0  0  0  0
  2 22  1  0  0  0  0
  3  4  2  0  0  0  0
  3  5  1  0  0  0  0
  4 22  1  0  0  0  0
  4 23  1  0  0  0  0
  5 17  1  0  0  0  0
  5 21  2  0  0  0  0
  6 12  1  0  0  0  0
  6 13  1  0  0  0  0
  7 12  1  0  0  0  0
  7 14  1  0  0  0  0
  8 13  1  0  0  0  0
  8 14  1  0  0  0  0
  9 12  1  0  0  0  0
  9 15  1  0  0  0  0
 10 13  1  0  0  0  0
 10 15  1  0  0  0  0
 11 14  1  0  0  0  0
 11 23  1  0  0  0  0
 15 23  1  0  0  0  0
 16 18  1  0  0  0  0
 17 18  1  0  0  0  0
 20 22  1  0  0  0  0
  1 24  1  0  0  0  0
  3 25  1  0  0  0  0
  6 26  1  0  0  0  0
  6 27  1  0  0  0  0
  7 28  1  0  0  0  0
  7 29  1  0  0  0  0
  8 30  1  0  0  0  0
  8 31  1  0  0  0  0
  9 32  1  0  0  0  0
  9 33  1  0  0  0  0
 10 34  1  0  0  0  0
 10 35  1  0  0  0  0
 11 36  1  0  0  0  0
 11 37  1  0  0  0  0
 12 38  1  0  0  0  0
 13 39  1  0  0  0  0
 14 40  1  0  0  0  0
 15 41  1  0  0  0  0
 16 42  1  0  0  0  0
 16 43  1  0  0  0  0
 16 44  1  0  0  0  0
 17 45  1  0  0  0  0
 17 46  1  0  0  0  0
 18 47  1  0  0  0  0
 18 48  1  0  0  0  0
M  END
> <idnumber>
Z909651572

> <heavy_atoms>
23

> <LogS>
-5.216

> <LogP>
3.612

> <rotating_bonds>
3

> <PSA>
46.32

> <hb_acceptors>
4

> <hb_donors>
0

> <Collection>
Legacy

> <link>
https://www.enaminestore.com/catalog/Z909651572

> <ROCS_ShapeQuery>
x0446_0A_x1080_0A_x0929_0A_x0812_0A_x0719_0A_x1140_0A_x0528_0A_x0310_0A

> <ROCS_TanimotoCombo>
0.459 

> <ROCS_ShapeTanimoto>
0.246 

> <ROCS_ColorTanimoto>
0.213 

> <ROCS_RefTversky>
0.224 

> <ROCS_RefColorTversky>
0.240 

> <ROCS_RefTverskyCombo>
0.465 

> <ROCS_FitTversky>
1.620 

> <ROCS_FitColorTversky>
0.652 

> <ROCS_FitTverskyCombo>
2.272 

> <ROCS_ColorScore>
-8.640

> <ROCS_Overlap>
2651.885

> <ROCS_Rank>
322                 

$$$$
untitled-dbase-327453_69
  -OEChem-02092406493D

 51 55  0     0  0  0  0  0  0999 V2000
    8.7241   14.0902   21.4876 C   0  0  0  0  0  0  0  0  0  0  0  0
    6.9895   17.5547   25.4391 C   0  0  0  0  0  0  0  0  0  0  0  0
   12.2362   15.1536   20.8918 C   0  0  0  0  0  0  0  0  0  0  0  0
    6.1084   17.0048   24.5082 C   0  0  0  0  0  0  0  0  0  0  0  0
    7.8358   16.7241   26.1738 C   0  0  0  0  0  0  0  0  0  0  0  0
   12.7601   15.1098   22.1837 C   0  0  0  0  0  0  0  0  0  0  0  0
   10.9014   14.8154   20.6686 C   0  0  0  0  0  0  0  0  0  0  0  0
    6.0734   15.6243   24.3118 C   0  0  0  0  0  0  0  0  0  0  0  0
    7.8008   15.3436   25.9774 C   0  0  0  0  0  0  0  0  0  0  0  0
   11.9494   14.7278   23.2525 C   0  0  0  0  0  0  0  0  0  0  0  0
    5.7143   12.6750   25.0722 C   0  0  0  0  0  0  0  0  0  0  0  0
   10.0907   14.4334   21.7374 C   0  0  0  0  0  0  0  0  0  0  0  0
    7.9498   12.5157   24.4150 C   0  0  0  0  0  0  0  0  0  0  0  0
    6.9196   14.7937   25.0465 C   0  0  0  0  0  0  0  0  0  0  0  0
    6.8836   13.3674   24.8440 C   0  0  0  0  0  0  0  0  0  0  0  0
   10.6146   14.3895   23.0294 C   0  0  0  0  0  0  0  0  0  0  0  0
    9.2841   12.7579   24.0733 C   0  0  0  0  0  0  0  0  0  0  0  0
    7.5270   11.1949   24.3381 C   0  0  0  0  0  0  0  0  0  0  0  0
    9.5399   10.5066   23.6662 C   0  0  0  0  0  0  0  0  0  0  0  0
   12.6773    8.9224   22.4232 C   0  0  0  0  0  0  0  0  0  0  0  0
   12.3793    9.8190   24.6381 C   0  0  0  0  0  0  0  0  0  0  0  0
   14.1374    9.3636   22.4719 C   0  0  0  0  0  0  0  0  0  0  0  0
   13.8460   10.2400   24.6341 C   0  0  0  0  0  0  0  0  0  0  0  0
   10.4579    9.3971   23.2415 C   0  0  0  0  0  0  0  0  0  0  0  0
    7.6158   13.8120   21.2851 N   0  0  0  0  0  0  0  0  0  0  0  0
   10.0847   11.7386   23.6952 N   0  0  0  0  0  0  0  0  0  0  0  0
    8.2811   10.1414   23.9680 N   0  0  0  0  0  0  0  0  0  0  0  0
   11.8600    9.8088   23.2635 N   0  0  0  0  0  0  0  0  0  0  0  0
   14.6148    9.3558   23.8178 O   0  0  0  0  0  0  0  0  0  0  0  0
    9.8359   14.0155   24.1042 O   0  0  0  0  0  0  0  0  0  0  0  0
    5.8905   11.0003   24.7719 S   0  0  0  0  0  0  0  0  0  0  0  0
    7.0177   18.6298   25.5914 H   0  0  0  0  0  0  0  0  0  0  0  0
   12.8677   15.4510   20.0597 H   0  0  0  0  0  0  0  0  0  0  0  0
    5.4503   17.6514   23.9352 H   0  0  0  0  0  0  0  0  0  0  0  0
    8.5227   17.1527   26.8976 H   0  0  0  0  0  0  0  0  0  0  0  0
   13.7994   15.3732   22.3574 H   0  0  0  0  0  0  0  0  0  0  0  0
   10.5086   14.8548   19.6553 H   0  0  0  0  0  0  0  0  0  0  0  0
    5.3809   15.2108   23.5824 H   0  0  0  0  0  0  0  0  0  0  0  0
    8.4670   14.7097   26.5580 H   0  0  0  0  0  0  0  0  0  0  0  0
   12.3643   14.6959   24.2564 H   0  0  0  0  0  0  0  0  0  0  0  0
    4.7593   13.0632   25.4007 H   0  0  0  0  0  0  0  0  0  0  0  0
   12.3294    8.9563   21.3844 H   0  0  0  0  0  0  0  0  0  0  0  0
   12.5980    7.8856   22.7752 H   0  0  0  0  0  0  0  0  0  0  0  0
   12.2871    8.8214   25.0871 H   0  0  0  0  0  0  0  0  0  0  0  0
   11.8094   10.5235   25.2547 H   0  0  0  0  0  0  0  0  0  0  0  0
   14.7554    8.6680   21.8950 H   0  0  0  0  0  0  0  0  0  0  0  0
   14.2720   10.3631   22.0412 H   0  0  0  0  0  0  0  0  0  0  0  0
   13.9715   11.2697   24.2771 H   0  0  0  0  0  0  0  0  0  0  0  0
   14.2509   10.1909   25.6500 H   0  0  0  0  0  0  0  0  0  0  0  0
   10.3501    8.5316   23.9043 H   0  0  0  0  0  0  0  0  0  0  0  0
   10.2238    9.0603   22.2261 H   0  0  0  0  0  0  0  0  0  0  0  0
  1 12  1  0  0  0  0
  1 25  3  0  0  0  0
  2  4  1  0  0  0  0
  2  5  2  0  0  0  0
  3  6  1  0  0  0  0
  3  7  2  0  0  0  0
  4  8  2  0  0  0  0
  5  9  1  0  0  0  0
  6 10  2  0  0  0  0
  7 12  1  0  0  0  0
  8 14  1  0  0  0  0
  9 14  2  0  0  0  0
 10 16  1  0  0  0  0
 11 15  2  0  0  0  0
 11 31  1  0  0  0  0
 12 16  2  0  0  0  0
 13 15  1  0  0  0  0
 13 17  2  0  0  0  0
 13 18  1  0  0  0  0
 14 15  1  0  0  0  0
 16 30  1  0  0  0  0
 17 26  1  0  0  0  0
 17 30  1  0  0  0  0
 18 27  2  0  0  0  0
 18 31  1  0  0  0  0
 19 24  1  0  0  0  0
 19 26  2  0  0  0  0
 19 27  1  0  0  0  0
 20 22  1  0  0  0  0
 20 28  1  0  0  0  0
 21 23  1  0  0  0  0
 21 28  1  0  0  0  0
 22 29  1  0  0  0  0
 23 29  1  0  0  0  0
 24 28  1  0  0  0  0
  2 32  1  0  0  0  0
  3 33  1  0  0  0  0
  4 34  1  0  0  0  0
  5 35  1  0  0  0  0
  6 36  1  0  0  0  0
  7 37  1  0  0  0  0
  8 38  1  0  0  0  0
  9 39  1  0  0  0  0
 10 40  1  0  0  0  0
 11 41  1  0  0  0  0
 20 42  1  0  0  0  0
 20 43  1  0  0  0  0
 21 44  1  0  0  0  0
 21 45  1  0  0  0  0
 22 46  1  0  0  0  0
 22 47  1  0  0  0  0
 23 48  1  0  0  0  0
 23 49  1  0  0  0  0
 24 50  1  0  0  0  0
 24 51  1  0  0  0  0
M  END
> <idnumber>
Z31253786

> <heavy_atoms>
31

> <LogS>
-6.566

> <LogP>
4.052

> <rotating_bonds>
5

> <PSA>
71.27

> <hb_acceptors>
5

> <hb_donors>
0

> <Collection>
Legacy

> <link>
https://www.enaminestore.com/catalog/Z31253786

> <ROCS_ShapeQuery>
x0446_0A_x1080_0A_x0929_0A_x0812_0A_x0719_0A_x1140_0A_x0528_0A_x0310_0A

> <ROCS_TanimotoCombo>
0.459 

> <ROCS_ShapeTanimoto>
0.279 

> <ROCS_ColorTanimoto>
0.180 

> <ROCS_RefTversky>
0.254 

> <ROCS_RefColorTversky>
0.205 

> <ROCS_RefTverskyCombo>
0.459 

> <ROCS_FitTversky>
1.522 

> <ROCS_FitColorTversky>
0.596 

> <ROCS_FitTverskyCombo>
2.118 

> <ROCS_ColorScore>
-7.359

> <ROCS_Overlap>
3008.861

> <ROCS_Rank>
323                 

$$$$
untitled-dbase-1011762_132
  -OEChem-02092406493D

 42 45  0     1  0  0  0  0  0999 V2000
    9.5324   14.4659   22.6547 C   0  0  0  0  0  0  0  0  0  0  0  0
   10.1428   15.4959   21.9832 C   0  0  0  0  0  0  0  0  0  0  0  0
    8.1295   15.4529   21.3765 C   0  0  0  0  0  0  0  0  0  0  0  0
   10.0093   13.4798   23.6366 C   0  0  0  0  0  0  0  0  0  0  0  0
    6.5445   12.6834   24.6952 C   0  0  0  0  0  0  0  0  0  0  0  0
    4.2712   16.0546   21.3916 C   0  0  0  0  0  0  0  0  0  0  0  0
    4.7175   14.8439   22.1629 C   0  0  0  0  0  0  0  0  0  0  0  0
    9.7248    9.9911   23.5100 C   0  0  0  0  0  0  0  0  0  0  0  0
    8.6787   10.4286   22.4536 C   0  0  0  0  0  0  0  0  0  0  0  0
    8.3728   11.0627   25.3202 C   0  0  0  0  0  0  0  0  0  0  0  0
    7.3118   11.4710   24.2616 C   0  0  2  0  0  0  0  0  0  0  0  0
    5.7067   15.9228   21.8190 C   0  0  0  0  0  0  0  0  0  0  0  0
    9.6888   11.1475   24.5237 C   0  0  2  0  0  0  0  0  0  0  0  0
    8.1735   11.7685   23.0141 C   0  0  1  0  0  0  0  0  0  0  0  0
   11.5404   15.9472   22.0494 C   0  0  0  0  0  0  0  0  0  0  0  0
    6.8028   15.6620   20.7773 C   0  0  0  0  0  0  0  0  0  0  0  0
    9.2389   16.1245   21.1654 N   0  0  0  0  0  0  0  0  0  0  0  0
    9.3888   12.2557   23.6466 N   0  0  0  0  0  0  0  0  0  0  0  0
   10.9247   13.8148   24.3846 O   0  0  0  0  0  0  0  0  0  0  0  0
    6.8809   13.8392   24.4847 O   0  0  0  0  0  0  0  0  0  0  0  0
    8.2266   14.4293   22.2686 O   0  0  0  0  0  0  0  0  0  0  0  0
    5.4191   12.3251   25.3603 O   0  0  0  0  0  0  0  0  0  0  0  0
    4.0273   15.9230   20.3447 H   0  0  0  0  0  0  0  0  0  0  0  0
    3.6568   16.7824   21.9073 H   0  0  0  0  0  0  0  0  0  0  0  0
    4.4028   14.7599   23.1958 H   0  0  0  0  0  0  0  0  0  0  0  0
    4.7724   13.9012   21.6325 H   0  0  0  0  0  0  0  0  0  0  0  0
    9.4705    9.0247   23.9574 H   0  0  0  0  0  0  0  0  0  0  0  0
   10.7129    9.9084   23.0425 H   0  0  0  0  0  0  0  0  0  0  0  0
    9.1665   10.5686   21.4817 H   0  0  0  0  0  0  0  0  0  0  0  0
    7.8819    9.6866   22.3374 H   0  0  0  0  0  0  0  0  0  0  0  0
    8.3865   11.7570   26.1678 H   0  0  0  0  0  0  0  0  0  0  0  0
    8.1882   10.0537   25.7022 H   0  0  0  0  0  0  0  0  0  0  0  0
    6.5928   10.6610   24.0870 H   0  0  0  0  0  0  0  0  0  0  0  0
    6.0526   16.5625   22.6220 H   0  0  0  0  0  0  0  0  0  0  0  0
   10.5881   11.2470   25.1386 H   0  0  0  0  0  0  0  0  0  0  0  0
    7.7389   12.4498   22.2832 H   0  0  0  0  0  0  0  0  0  0  0  0
   12.1675   15.4280   21.3030 H   0  0  0  0  0  0  0  0  0  0  0  0
   11.6400   17.0329   21.8663 H   0  0  0  0  0  0  0  0  0  0  0  0
   11.9926   15.7681   23.0425 H   0  0  0  0  0  0  0  0  0  0  0  0
    6.8101   16.5119   20.0645 H   0  0  0  0  0  0  0  0  0  0  0  0
    6.4944   14.7914   20.1629 H   0  0  0  0  0  0  0  0  0  0  0  0
    4.9031   13.1059   25.6545 H   0  0  0  0  0  0  0  0  0  0  0  0
  1  2  2  0  0  0  0
  1  4  1  0  0  0  0
  1 21  1  0  0  0  0
  2 15  1  0  0  0  0
  2 17  1  0  0  0  0
  3 16  1  0  0  0  0
  3 17  2  0  0  0  0
  3 21  1  0  0  0  0
  4 18  1  0  0  0  0
  4 19  2  0  0  0  0
  5 11  1  1  0  0  0
  5 20  2  0  0  0  0
  5 22  1  0  0  0  0
  6  7  1  0  0  0  0
  6 12  1  0  0  0  0
  7 12  1  0  0  0  0
  8  9  1  0  0  0  0
  8 13  1  0  0  0  0
  9 14  1  0  0  0  0
 10 11  1  0  0  0  0
 10 13  1  0  0  0  0
 11 14  1  0  0  0  0
 12 16  1  0  0  0  0
 13 18  1  1  0  0  0
 14 18  1  1  0  0  0
  6 23  1  0  0  0  0
  6 24  1  0  0  0  0
  7 25  1  0  0  0  0
  7 26  1  0  0  0  0
  8 27  1  0  0  0  0
  8 28  1  0  0  0  0
  9 29  1  0  0  0  0
  9 30  1  0  0  0  0
 10 31  1  0  0  0  0
 10 32  1  0  0  0  0
 11 33  1  0  0  0  0
 12 34  1  0  0  0  0
 13 35  1  0  0  0  0
 14 36  1  0  0  0  0
 15 37  1  0  0  0  0
 15 38  1  0  0  0  0
 15 39  1  0  0  0  0
 16 40  1  0  0  0  0
 16 41  1  0  0  0  0
 22 42  1  0  0  0  0
M  END
> <idnumber>
Z3173945227

> <heavy_atoms>
22

> <LogS>
-2.476

> <LogP>
0.519

> <rotating_bonds>
4

> <PSA>
83.64

> <hb_acceptors>
4

> <hb_donors>
1

> <Collection>
Advanced

> <link>
https://www.enaminestore.com/catalog/Z3173945227

> <ROCS_ShapeQuery>
x0446_0A_x1080_0A_x0929_0A_x0812_0A_x0719_0A_x1140_0A_x0528_0A_x0310_0A

> <ROCS_TanimotoCombo>
0.459 

> <ROCS_ShapeTanimoto>
0.255 

> <ROCS_ColorTanimoto>
0.203 

> <ROCS_RefTversky>
0.231 

> <ROCS_RefColorTversky>
0.233 

> <ROCS_RefTverskyCombo>
0.464 

> <ROCS_FitTversky>
1.721 

> <ROCS_FitColorTversky>
0.615 

> <ROCS_FitTverskyCombo>
2.336 

> <ROCS_ColorScore>
-8.376

> <ROCS_Overlap>
2724.294

> <ROCS_Rank>
324                 

$$$$
untitled-dbase-1092559_5
  -OEChem-02092406493D

 44 47  0     1  0  0  0  0  0999 V2000
    4.5699   13.7051   21.8290 C   0  0  0  0  0  0  0  0  0  0  0  0
    4.8056   15.0002   21.4237 C   0  0  0  0  0  0  0  0  0  0  0  0
    5.6946   14.7663   23.4657 C   0  0  0  0  0  0  0  0  0  0  0  0
    5.1324   13.5570   23.1208 C   0  0  0  0  0  0  0  0  0  0  0  0
   11.1020   16.4144   22.1779 C   0  0  0  0  0  0  0  0  0  0  0  0
   12.3726   16.2483   22.5657 C   0  0  0  0  0  0  0  0  0  0  0  0
   10.3504   15.1762   21.9235 C   0  0  0  0  0  0  0  0  0  0  0  0
   11.0706   13.8660   22.1205 C   0  0  0  0  0  0  0  0  0  0  0  0
   10.4291   12.5558   21.8981 C   0  0  0  0  0  0  0  0  0  0  0  0
    6.3245   12.2233   24.8607 C   0  0  0  0  0  0  0  0  0  0  0  0
    9.2633   10.1965   24.3556 C   0  0  0  0  0  0  0  0  0  0  0  0
    9.6775   12.5235   24.3541 C   0  0  0  0  0  0  0  0  0  0  0  0
    7.5647   11.0564   22.9532 C   0  0  0  0  0  0  0  0  0  0  0  0
    8.7295   11.4884   24.9850 C   0  0  1  0  0  0  0  0  0  0  0  0
    9.0658   10.7182   22.9270 C   0  0  1  0  0  0  0  0  0  0  0  0
   13.2575   17.4233   22.8597 C   0  0  0  0  0  0  0  0  0  0  0  0
    5.1203   12.3130   23.9591 C   0  0  0  0  0  0  0  0  0  0  0  0
   12.3100   13.8158   22.5014 N   0  0  0  0  0  0  0  0  0  0  0  0
    5.4897   15.6361   22.4267 N   0  0  0  0  0  0  0  0  0  0  0  0
   12.9311   14.9983   22.7149 N   0  0  0  0  0  0  0  0  0  0  0  0
    9.8014   11.9935   22.9859 N   0  0  0  0  0  0  0  0  0  0  0  0
    7.4305   11.6186   24.3045 N   0  0  0  0  0  0  0  0  0  0  0  0
    9.1841   15.1687   21.5647 O   0  0  0  0  0  0  0  0  0  0  0  0
   10.4882   12.0447   20.7808 O   0  0  0  0  0  0  0  0  0  0  0  0
    6.2855   12.6734   26.0064 O   0  0  0  0  0  0  0  0  0  0  0  0
    4.0481   12.9531   21.2532 H   0  0  0  0  0  0  0  0  0  0  0  0
    4.5469   15.5257   20.5152 H   0  0  0  0  0  0  0  0  0  0  0  0
    6.2207   15.0870   24.3542 H   0  0  0  0  0  0  0  0  0  0  0  0
   10.6224   17.3750   22.0480 H   0  0  0  0  0  0  0  0  0  0  0  0
   10.3113    9.9919   24.5992 H   0  0  0  0  0  0  0  0  0  0  0  0
    8.6517    9.3181   24.5882 H   0  0  0  0  0  0  0  0  0  0  0  0
    9.2792   13.5425   24.3389 H   0  0  0  0  0  0  0  0  0  0  0  0
   10.6689   12.5177   24.8187 H   0  0  0  0  0  0  0  0  0  0  0  0
    7.2623   11.7852   22.1957 H   0  0  0  0  0  0  0  0  0  0  0  0
    6.9361   10.1629   22.8840 H   0  0  0  0  0  0  0  0  0  0  0  0
    8.6607   11.5221   26.0734 H   0  0  0  0  0  0  0  0  0  0  0  0
    9.3830   10.0698   22.1086 H   0  0  0  0  0  0  0  0  0  0  0  0
   13.1701   17.6893   23.9107 H   0  0  0  0  0  0  0  0  0  0  0  0
   12.9568   18.2679   22.2434 H   0  0  0  0  0  0  0  0  0  0  0  0
   14.2899   17.1658   22.6331 H   0  0  0  0  0  0  0  0  0  0  0  0
    4.2201   12.2843   24.5760 H   0  0  0  0  0  0  0  0  0  0  0  0
    5.0936   11.4224   23.3289 H   0  0  0  0  0  0  0  0  0  0  0  0
    5.7947   16.5994   22.4044 H   0  0  0  0  0  0  0  0  0  0  0  0
   13.9009   14.9652   23.0130 H   0  0  0  0  0  0  0  0  0  0  0  0
  1  2  2  0  0  0  0
  1  4  1  0  0  0  0
  2 19  1  0  0  0  0
  3  4  2  0  0  0  0
  3 19  1  0  0  0  0
  4 17  1  0  0  0  0
  5  6  2  0  0  0  0
  5  7  1  0  0  0  0
  6 16  1  0  0  0  0
  6 20  1  0  0  0  0
  7  8  1  0  0  0  0
  7 23  2  0  0  0  0
  8  9  1  0  0  0  0
  8 18  2  0  0  0  0
  9 21  1  0  0  0  0
  9 24  2  0  0  0  0
 10 17  1  0  0  0  0
 10 22  1  0  0  0  0
 10 25  2  0  0  0  0
 11 14  1  1  0  0  0
 11 15  1  1  0  0  0
 12 14  1  0  0  0  0
 12 21  1  0  0  0  0
 13 15  1  0  0  0  0
 13 22  1  0  0  0  0
 14 22  1  0  0  0  0
 15 21  1  0  0  0  0
 18 20  1  0  0  0  0
  1 26  1  0  0  0  0
  2 27  1  0  0  0  0
  3 28  1  0  0  0  0
  5 29  1  0  0  0  0
 11 30  1  0  0  0  0
 11 31  1  0  0  0  0
 12 32  1  0  0  0  0
 12 33  1  0  0  0  0
 13 34  1  0  0  0  0
 13 35  1  0  0  0  0
 14 36  1  0  0  0  0
 15 37  1  0  0  0  0
 16 38  1  0  0  0  0
 16 39  1  0  0  0  0
 16 40  1  0  0  0  0
 17 41  1  0  0  0  0
 17 42  1  0  0  0  0
 19 43  1  0  0  0  0
 20 44  1  0  0  0  0
M  END
> <idnumber>
Z4521693266

> <heavy_atoms>
25

> <LogS>
-2.618

> <LogP>
-0.796

> <rotating_bonds>
3

> <PSA>
97.87

> <hb_acceptors>
5

> <hb_donors>
2

> <Collection>
Advanced

> <link>
https://www.enaminestore.com/catalog/Z4521693266

> <ROCS_ShapeQuery>
x0446_0A_x1080_0A_x0929_0A_x0812_0A_x0719_0A_x1140_0A_x0528_0A_x0310_0A

> <ROCS_TanimotoCombo>
0.459 

> <ROCS_ShapeTanimoto>
0.255 

> <ROCS_ColorTanimoto>
0.203 

> <ROCS_RefTversky>
0.233 

> <ROCS_RefColorTversky>
0.242 

> <ROCS_RefTverskyCombo>
0.475 

> <ROCS_FitTversky>
1.597 

> <ROCS_FitColorTversky>
0.560 

> <ROCS_FitTverskyCombo>
2.157 

> <ROCS_ColorScore>
-8.713

> <ROCS_Overlap>
2756.445

> <ROCS_Rank>
325                 

$$$$
untitled-dbase-971598_28
  -OEChem-02092406493D

 52 56  0     1  0  0  0  0  0999 V2000
    6.4039   12.8912   24.9201 C   0  0  0  0  0  0  0  0  0  0  0  0
    5.2483   14.6016   25.0585 C   0  0  0  0  0  0  0  0  0  0  0  0
   13.0570   15.2088   23.5336 C   0  0  0  0  0  0  0  0  0  0  0  0
   12.5229   16.3912   23.1827 C   0  0  0  0  0  0  0  0  0  0  0  0
   10.4948   12.7865   22.0822 C   0  0  0  0  0  0  0  0  0  0  0  0
    9.3201   15.2758   21.4338 C   0  0  0  0  0  0  0  0  0  0  0  0
   12.9662   14.3724   21.2297 C   0  0  0  0  0  0  0  0  0  0  0  0
   12.3430   15.7271   20.8275 C   0  0  0  0  0  0  0  0  0  0  0  0
    9.0869    9.6791   23.2840 C   0  0  0  0  0  0  0  0  0  0  0  0
    9.9461   10.1622   24.4693 C   0  0  0  0  0  0  0  0  0  0  0  0
    7.4681   11.6223   22.9826 C   0  0  0  0  0  0  0  0  0  0  0  0
    8.9110   12.4353   24.9733 C   0  0  0  0  0  0  0  0  0  0  0  0
    7.5133   11.9435   24.5030 C   0  0  0  0  0  0  0  0  0  0  0  0
   12.5901   14.0344   22.6917 C   0  0  2  0  0  0  0  0  0  0  0  0
   11.5507   16.3195   22.0176 C   0  0  1  0  0  0  0  0  0  0  0  0
   11.0449   13.9697   22.8353 C   0  0  1  0  0  0  0  0  0  0  0  0
   10.4230   15.3418   22.4504 C   0  0  2  0  0  0  0  0  0  0  0  0
    8.7632   10.9483   22.4858 C   0  0  1  0  0  0  0  0  0  0  0  0
   10.0615   11.6788   24.2804 C   0  0  2  0  0  0  0  0  0  0  0  0
    4.6017   15.9186   24.9841 C   0  0  0  0  0  0  0  0  0  0  0  0
    6.3263   14.1711   24.4532 N   0  0  0  0  0  0  0  0  0  0  0  0
    5.4396   12.5230   25.7688 N   0  0  0  0  0  0  0  0  0  0  0  0
    9.8630   11.8298   22.8500 N   0  0  0  0  0  0  0  0  0  0  0  0
   10.6132   12.7200   20.8576 O   0  0  0  0  0  0  0  0  0  0  0  0
    9.4713   15.3851   20.2261 O   0  0  0  0  0  0  0  0  0  0  0  0
    4.6567   13.6804   25.8634 O   0  0  0  0  0  0  0  0  0  0  0  0
    8.1229   15.0799   22.0384 O   0  0  0  0  0  0  0  0  0  0  0  0
   13.7631   15.0934   24.3447 H   0  0  0  0  0  0  0  0  0  0  0  0
   12.7553   17.3207   23.6846 H   0  0  0  0  0  0  0  0  0  0  0  0
   12.6332   13.5869   20.5426 H   0  0  0  0  0  0  0  0  0  0  0  0
   14.0575   14.4282   21.1241 H   0  0  0  0  0  0  0  0  0  0  0  0
   13.1409   16.4181   20.5259 H   0  0  0  0  0  0  0  0  0  0  0  0
   11.7039   15.5986   19.9478 H   0  0  0  0  0  0  0  0  0  0  0  0
    9.6762    8.9862   22.6716 H   0  0  0  0  0  0  0  0  0  0  0  0
    8.1914    9.1464   23.6198 H   0  0  0  0  0  0  0  0  0  0  0  0
    9.5063    9.8843   25.4324 H   0  0  0  0  0  0  0  0  0  0  0  0
   10.9368    9.6965   24.4086 H   0  0  0  0  0  0  0  0  0  0  0  0
    6.6064   10.9763   22.7720 H   0  0  0  0  0  0  0  0  0  0  0  0
    7.3063   12.5459   22.4103 H   0  0  0  0  0  0  0  0  0  0  0  0
    9.0188   13.5092   24.7671 H   0  0  0  0  0  0  0  0  0  0  0  0
    8.9906   12.3212   26.0619 H   0  0  0  0  0  0  0  0  0  0  0  0
    7.3041   10.9963   25.0419 H   0  0  0  0  0  0  0  0  0  0  0  0
   13.0679   13.1021   23.0099 H   0  0  0  0  0  0  0  0  0  0  0  0
   11.1553   17.3093   21.7680 H   0  0  0  0  0  0  0  0  0  0  0  0
   10.8041   13.7720   23.8889 H   0  0  0  0  0  0  0  0  0  0  0  0
    9.9466   15.7513   23.3537 H   0  0  0  0  0  0  0  0  0  0  0  0
    8.7103   10.7576   21.4112 H   0  0  0  0  0  0  0  0  0  0  0  0
   11.0307   12.0716   24.6029 H   0  0  0  0  0  0  0  0  0  0  0  0
    3.8506   15.9551   24.1747 H   0  0  0  0  0  0  0  0  0  0  0  0
    4.0856   16.1877   25.9246 H   0  0  0  0  0  0  0  0  0  0  0  0
    5.3265   16.7332   24.7977 H   0  0  0  0  0  0  0  0  0  0  0  0
    7.3879   15.0358   21.3902 H   0  0  0  0  0  0  0  0  0  0  0  0
  1 13  1  0  0  0  0
  1 21  1  0  0  0  0
  1 22  2  0  0  0  0
  2 20  1  0  0  0  0
  2 21  2  0  0  0  0
  2 26  1  0  0  0  0
  3  4  2  0  0  0  0
  3 14  1  0  0  0  0
  4 15  1  0  0  0  0
  5 16  1  6  0  0  0
  5 23  1  0  0  0  0
  5 24  2  0  0  0  0
  6 17  1  6  0  0  0
  6 25  2  0  0  0  0
  6 27  1  0  0  0  0
  7  8  1  0  0  0  0
  7 14  1  0  0  0  0
  8 15  1  0  0  0  0
  9 10  1  0  0  0  0
  9 18  1  0  0  0  0
 10 19  1  0  0  0  0
 11 13  1  0  0  0  0
 11 18  1  0  0  0  0
 12 13  1  0  0  0  0
 12 19  1  0  0  0  0
 14 16  1  0  0  0  0
 15 17  1  0  0  0  0
 16 17  1  0  0  0  0
 18 23  1  0  0  0  0
 19 23  1  0  0  0  0
 22 26  1  0  0  0  0
  3 28  1  0  0  0  0
  4 29  1  0  0  0  0
  7 30  1  0  0  0  0
  7 31  1  0  0  0  0
  8 32  1  0  0  0  0
  8 33  1  0  0  0  0
  9 34  1  0  0  0  0
  9 35  1  0  0  0  0
 10 36  1  0  0  0  0
 10 37  1  0  0  0  0
 11 38  1  0  0  0  0
 11 39  1  0  0  0  0
 12 40  1  0  0  0  0
 12 41  1  0  0  0  0
 13 42  1  0  0  0  0
 14 43  1  0  0  0  0
 15 44  1  0  0  0  0
 16 45  1  0  0  0  0
 17 46  1  0  0  0  0
 18 47  1  0  0  0  0
 19 48  1  0  0  0  0
 20 49  1  0  0  0  0
 20 50  1  0  0  0  0
 20 51  1  0  0  0  0
 27 52  1  0  0  0  0
M  END
> <idnumber>
Z2911579703

> <heavy_atoms>
27

> <LogS>
-2.153

> <LogP>
1.172

> <rotating_bonds>
3

> <PSA>
96.53

> <hb_acceptors>
5

> <hb_donors>
1

> <Collection>
Advanced

> <link>
https://www.enaminestore.com/catalog/Z2911579703

> <ROCS_ShapeQuery>
x0446_0A_x1080_0A_x0929_0A_x0812_0A_x0719_0A_x1140_0A_x0528_0A_x0310_0A

> <ROCS_TanimotoCombo>
0.459 

> <ROCS_ShapeTanimoto>
0.270 

> <ROCS_ColorTanimoto>
0.189 

> <ROCS_RefTversky>
0.245 

> <ROCS_RefColorTversky>
0.245 

> <ROCS_RefTverskyCombo>
0.490 

> <ROCS_FitTversky>
1.601 

> <ROCS_FitColorTversky>
0.450 

> <ROCS_FitTverskyCombo>
2.051 

> <ROCS_ColorScore>
-8.903

> <ROCS_Overlap>
2897.277

> <ROCS_Rank>
326                 

$$$$
untitled-dbase-1182761_29
  -OEChem-02092406493D

 37 40  0     0  0  0  0  0  0999 V2000
   11.2844   14.4954   22.0329 C   0  0  0  0  0  0  0  0  0  0  0  0
   11.0901   15.8065   21.6792 C   0  0  0  0  0  0  0  0  0  0  0  0
   10.1666   13.7235   22.1922 C   0  0  0  0  0  0  0  0  0  0  0  0
    8.8637   15.5305   21.6557 C   0  0  0  0  0  0  0  0  0  0  0  0
   12.7211   14.2122   22.1886 C   0  0  0  0  0  0  0  0  0  0  0  0
   12.4090   16.4867   21.5803 C   0  0  0  0  0  0  0  0  0  0  0  0
    8.7091   12.3621   24.5079 C   0  0  0  0  0  0  0  0  0  0  0  0
    7.9573   11.5157   22.7491 C   0  0  0  0  0  0  0  0  0  0  0  0
    9.7998   10.2565   23.8095 C   0  0  0  0  0  0  0  0  0  0  0  0
    9.3976   11.6348   23.3199 C   0  0  0  0  0  0  0  0  0  0  0  0
    7.7630   11.1065   24.2727 C   0  0  0  0  0  0  0  0  0  0  0  0
    4.3072   12.0747   25.0277 C   0  0  0  0  0  0  0  0  0  0  0  0
    6.4035   11.0208   24.8952 C   0  0  0  0  0  0  0  0  0  0  0  0
    9.8969   16.3805   21.4787 N   0  0  0  0  0  0  0  0  0  0  0  0
    8.9246   14.2212   22.0044 N   0  0  0  0  0  0  0  0  0  0  0  0
   10.3205   12.3735   22.5644 N   0  0  0  0  0  0  0  0  0  0  0  0
   13.3760   15.4151   21.7104 O   0  0  0  0  0  0  0  0  0  0  0  0
    8.5788    9.9129   24.4978 O   0  0  0  0  0  0  0  0  0  0  0  0
    7.6048   16.0510   21.4631 O   0  0  0  0  0  0  0  0  0  0  0  0
    5.6073   12.1191   24.4587 O   0  0  0  0  0  0  0  0  0  0  0  0
   12.9992   14.0593   23.2353 H   0  0  0  0  0  0  0  0  0  0  0  0
   13.0564   13.3727   21.5740 H   0  0  0  0  0  0  0  0  0  0  0  0
   12.5538   16.9749   20.6134 H   0  0  0  0  0  0  0  0  0  0  0  0
   12.5583   17.1958   22.3994 H   0  0  0  0  0  0  0  0  0  0  0  0
    9.2569   12.3724   25.4546 H   0  0  0  0  0  0  0  0  0  0  0  0
    8.2786   13.3523   24.3224 H   0  0  0  0  0  0  0  0  0  0  0  0
    7.4633   12.4335   22.4118 H   0  0  0  0  0  0  0  0  0  0  0  0
    7.7880   10.7191   22.0188 H   0  0  0  0  0  0  0  0  0  0  0  0
    9.9800    9.5409   23.0025 H   0  0  0  0  0  0  0  0  0  0  0  0
   10.6307   10.2703   24.5202 H   0  0  0  0  0  0  0  0  0  0  0  0
    3.7243   12.9284   24.6734 H   0  0  0  0  0  0  0  0  0  0  0  0
    4.3845   12.0997   26.1176 H   0  0  0  0  0  0  0  0  0  0  0  0
    3.8161   11.1484   24.7204 H   0  0  0  0  0  0  0  0  0  0  0  0
    6.4632   11.0574   25.9928 H   0  0  0  0  0  0  0  0  0  0  0  0
    5.8900   10.0915   24.6084 H   0  0  0  0  0  0  0  0  0  0  0  0
   11.1950   11.9301   22.2368 H   0  0  0  0  0  0  0  0  0  0  0  0
    6.9453   15.3622   21.6144 H   0  0  0  0  0  0  0  0  0  0  0  0
  1  2  1  0  0  0  0
  1  3  2  0  0  0  0
  1  5  1  0  0  0  0
  2  6  1  0  0  0  0
  2 14  2  0  0  0  0
  3 15  1  0  0  0  0
  3 16  1  0  0  0  0
  4 14  1  0  0  0  0
  4 15  2  0  0  0  0
  4 19  1  0  0  0  0
  5 17  1  0  0  0  0
  6 17  1  0  0  0  0
  7 10  1  0  0  0  0
  7 11  1  0  0  0  0
  8 10  1  0  0  0  0
  8 11  1  0  0  0  0
  9 10  1  0  0  0  0
  9 18  1  0  0  0  0
 10 16  1  0  0  0  0
 11 13  1  0  0  0  0
 11 18  1  0  0  0  0
 12 20  1  0  0  0  0
 13 20  1  0  0  0  0
  5 21  1  0  0  0  0
  5 22  1  0  0  0  0
  6 23  1  0  0  0  0
  6 24  1  0  0  0  0
  7 25  1  0  0  0  0
  7 26  1  0  0  0  0
  8 27  1  0  0  0  0
  8 28  1  0  0  0  0
  9 29  1  0  0  0  0
  9 30  1  0  0  0  0
 12 31  1  0  0  0  0
 12 32  1  0  0  0  0
 12 33  1  0  0  0  0
 13 34  1  0  0  0  0
 13 35  1  0  0  0  0
 16 36  1  0  0  0  0
 19 37  1  0  0  0  0
M  END
> <idnumber>
Z8817242940

> <heavy_atoms>
20

> <LogP>
0.558

> <rotating_bonds>
4

> <PSA>
85.73

> <hb_acceptors>
7

> <hb_donors>
2

> <Collection>
Advanced

> <link>
https://www.enaminestore.com/catalog/Z8817242940

> <ROCS_ShapeQuery>
x0446_0A_x1080_0A_x0929_0A_x0812_0A_x0719_0A_x1140_0A_x0528_0A_x0310_0A

> <ROCS_TanimotoCombo>
0.459 

> <ROCS_ShapeTanimoto>
0.238 

> <ROCS_ColorTanimoto>
0.220 

> <ROCS_RefTversky>
0.217 

> <ROCS_RefColorTversky>
0.270 

> <ROCS_RefTverskyCombo>
0.486 

> <ROCS_FitTversky>
1.701 

> <ROCS_FitColorTversky>
0.547 

> <ROCS_FitTverskyCombo>
2.248 

> <ROCS_ColorScore>
-9.754

> <ROCS_Overlap>
2560.633

> <ROCS_Rank>
327                 

$$$$
untitled-dbase-325969_7
  -OEChem-02092406493D

 42 46  0     0  0  0  0  0  0999 V2000
   13.1675   14.5928   22.3766 C   0  0  0  0  0  0  0  0  0  0  0  0
    9.6688   16.1033   19.3852 C   0  0  0  0  0  0  0  0  0  0  0  0
   12.7866   15.1389   21.1542 C   0  0  0  0  0  0  0  0  0  0  0  0
   11.0175   15.9026   19.6415 C   0  0  0  0  0  0  0  0  0  0  0  0
   12.1954   14.2605   23.3119 C   0  0  0  0  0  0  0  0  0  0  0  0
    8.7717   15.7447   20.3708 C   0  0  0  0  0  0  0  0  0  0  0  0
   11.4287   15.3545   20.8640 C   0  0  0  0  0  0  0  0  0  0  0  0
    8.0419   12.5822   24.0774 C   0  0  0  0  0  0  0  0  0  0  0  0
    6.8899   13.4153   24.2752 C   0  0  0  0  0  0  0  0  0  0  0  0
   10.4363   15.0197   21.8090 C   0  0  0  0  0  0  0  0  0  0  0  0
   10.8454   14.4749   23.0231 C   0  0  0  0  0  0  0  0  0  0  0  0
    5.7296   12.6688   24.3705 C   0  0  0  0  0  0  0  0  0  0  0  0
    9.4075   12.8561   23.9364 C   0  0  0  0  0  0  0  0  0  0  0  0
    7.6812   11.2409   24.0237 C   0  0  0  0  0  0  0  0  0  0  0  0
    9.7965   10.5976   23.7246 C   0  0  0  0  0  0  0  0  0  0  0  0
    6.8805   14.9103   24.4026 C   0  0  0  0  0  0  0  0  0  0  0  0
    4.3551   13.2314   24.5572 C   0  0  0  0  0  0  0  0  0  0  0  0
    5.4687   15.4922   24.2337 C   0  0  0  0  0  0  0  0  0  0  0  0
    4.4281   14.6916   25.0285 C   0  0  0  0  0  0  0  0  0  0  0  0
   10.7991    9.5100   23.5251 C   0  0  0  0  0  0  0  0  0  0  0  0
    9.1267   15.2132   21.5630 N   0  0  0  0  0  0  0  0  0  0  0  0
   10.2900   11.8502   23.7581 N   0  0  0  0  0  0  0  0  0  0  0  0
    8.5182   10.1998   23.8478 N   0  0  0  0  0  0  0  0  0  0  0  0
    9.9110   14.1333   23.9781 O   0  0  0  0  0  0  0  0  0  0  0  0
    6.0053   10.9984   24.2102 S   0  0  0  0  0  0  0  0  0  0  0  0
   14.2177   14.4268   22.5967 H   0  0  0  0  0  0  0  0  0  0  0  0
    9.3333   16.5264   18.4457 H   0  0  0  0  0  0  0  0  0  0  0  0
   13.5555   15.3938   20.4283 H   0  0  0  0  0  0  0  0  0  0  0  0
   11.7464   16.1763   18.8822 H   0  0  0  0  0  0  0  0  0  0  0  0
   12.4912   13.8346   24.2670 H   0  0  0  0  0  0  0  0  0  0  0  0
    7.7046   15.8793   20.2271 H   0  0  0  0  0  0  0  0  0  0  0  0
    7.2680   15.1783   25.3933 H   0  0  0  0  0  0  0  0  0  0  0  0
    7.5409   15.3643   23.6559 H   0  0  0  0  0  0  0  0  0  0  0  0
    3.8205   13.1861   23.6001 H   0  0  0  0  0  0  0  0  0  0  0  0
    3.7830   12.6428   25.2834 H   0  0  0  0  0  0  0  0  0  0  0  0
    5.4641   16.5389   24.5577 H   0  0  0  0  0  0  0  0  0  0  0  0
    5.1924   15.4841   23.1714 H   0  0  0  0  0  0  0  0  0  0  0  0
    3.4410   15.1572   24.9303 H   0  0  0  0  0  0  0  0  0  0  0  0
    4.6914   14.7212   26.0938 H   0  0  0  0  0  0  0  0  0  0  0  0
   11.1760    9.1576   24.4926 H   0  0  0  0  0  0  0  0  0  0  0  0
   10.3602    8.6583   22.9904 H   0  0  0  0  0  0  0  0  0  0  0  0
   11.6494    9.8588   22.9254 H   0  0  0  0  0  0  0  0  0  0  0  0
  1  3  1  0  0  0  0
  1  5  2  0  0  0  0
  2  4  2  0  0  0  0
  2  6  1  0  0  0  0
  3  7  2  0  0  0  0
  4  7  1  0  0  0  0
  5 11  1  0  0  0  0
  6 21  2  0  0  0  0
  7 10  1  0  0  0  0
  8  9  1  0  0  0  0
  8 13  1  0  0  0  0
  8 14  2  0  0  0  0
  9 12  2  0  0  0  0
  9 16  1  0  0  0  0
 10 11  2  0  0  0  0
 10 21  1  0  0  0  0
 11 24  1  0  0  0  0
 12 17  1  0  0  0  0
 12 25  1  0  0  0  0
 13 22  2  0  0  0  0
 13 24  1  0  0  0  0
 14 23  1  0  0  0  0
 14 25  1  0  0  0  0
 15 20  1  0  0  0  0
 15 22  1  0  0  0  0
 15 23  2  0  0  0  0
 16 18  1  0  0  0  0
 17 19  1  0  0  0  0
 18 19  1  0  0  0  0
  1 26  1  0  0  0  0
  2 27  1  0  0  0  0
  3 28  1  0  0  0  0
  4 29  1  0  0  0  0
  5 30  1  0  0  0  0
  6 31  1  0  0  0  0
 16 32  1  0  0  0  0
 16 33  1  0  0  0  0
 17 34  1  0  0  0  0
 17 35  1  0  0  0  0
 18 36  1  0  0  0  0
 18 37  1  0  0  0  0
 19 38  1  0  0  0  0
 19 39  1  0  0  0  0
 20 40  1  0  0  0  0
 20 41  1  0  0  0  0
 20 42  1  0  0  0  0
M  END
> <idnumber>
Z31203779

> <heavy_atoms>
25

> <LogS>
-6.35

> <LogP>
4.942

> <rotating_bonds>
2

> <PSA>
47.9

> <hb_acceptors>
3

> <hb_donors>
0

> <Collection>
Legacy

> <link>
https://www.enaminestore.com/catalog/Z31203779

> <ROCS_ShapeQuery>
x0446_0A_x1080_0A_x0929_0A_x0812_0A_x0719_0A_x1140_0A_x0528_0A_x0310_0A

> <ROCS_TanimotoCombo>
0.459 

> <ROCS_ShapeTanimoto>
0.255 

> <ROCS_ColorTanimoto>
0.204 

> <ROCS_RefTversky>
0.233 

> <ROCS_RefColorTversky>
0.219 

> <ROCS_RefTverskyCombo>
0.452 

> <ROCS_FitTversky>
1.589 

> <ROCS_FitColorTversky>
0.749 

> <ROCS_FitTverskyCombo>
2.338 

> <ROCS_ColorScore>
-7.827

> <ROCS_Overlap>
2752.078

> <ROCS_Rank>
328                 

$$$$
untitled-dbase-660037_7
  -OEChem-02092406493D

 40 44  0     0  0  0  0  0  0999 V2000
    5.9282   13.1021   25.4011 C   0  0  0  0  0  0  0  0  0  0  0  0
    5.5093   11.7816   25.5696 C   0  0  0  0  0  0  0  0  0  0  0  0
    7.1447   13.3797   24.7755 C   0  0  0  0  0  0  0  0  0  0  0  0
    6.3023   10.7298   25.1101 C   0  0  0  0  0  0  0  0  0  0  0  0
    7.0059   13.6639   20.6402 C   0  0  0  0  0  0  0  0  0  0  0  0
    5.7478   13.4324   20.1348 C   0  0  0  0  0  0  0  0  0  0  0  0
    6.0345   15.5921   20.0791 C   0  0  0  0  0  0  0  0  0  0  0  0
    9.9922   17.5485   21.5723 C   0  0  0  0  0  0  0  0  0  0  0  0
    7.9396   12.3295   24.3107 C   0  0  0  0  0  0  0  0  0  0  0  0
    7.1921   15.0664   20.6042 C   0  0  0  0  0  0  0  0  0  0  0  0
    7.5123   10.9999   24.4691 C   0  0  0  0  0  0  0  0  0  0  0  0
    9.2139   12.5566   23.6806 C   0  0  0  0  0  0  0  0  0  0  0  0
   10.3734   16.2494   21.8348 C   0  0  0  0  0  0  0  0  0  0  0  0
    9.8357   11.4705   23.1156 C   0  0  0  0  0  0  0  0  0  0  0  0
    8.3718   15.8499   21.0323 C   0  0  0  0  0  0  0  0  0  0  0  0
   11.0134   13.5510   22.9541 C   0  0  0  0  0  0  0  0  0  0  0  0
   11.6726   15.8799   22.4073 C   0  0  0  0  0  0  0  0  0  0  0  0
    9.2716   10.1018   23.0640 C   0  0  0  0  0  0  0  0  0  0  0  0
   13.4404   14.0974   22.5381 C   0  0  0  0  0  0  0  0  0  0  0  0
    9.8793   13.7566   23.5920 N   0  0  0  0  0  0  0  0  0  0  0  0
    9.4454   15.2740   21.5262 N   0  0  0  0  0  0  0  0  0  0  0  0
   11.9819   14.4702   22.6486 N   0  0  0  0  0  0  0  0  0  0  0  0
   12.4961   16.7575   22.6734 O   0  0  0  0  0  0  0  0  0  0  0  0
    5.1490   14.6026   19.7902 O   0  0  0  0  0  0  0  0  0  0  0  0
    8.2558    9.9104   24.0770 O   0  0  0  0  0  0  0  0  0  0  0  0
    8.4102   17.5612   20.9102 S   0  0  0  0  0  0  0  0  0  0  0  0
   11.3235   11.9376   22.4360 S   0  0  0  0  0  0  0  0  0  0  0  0
    5.3080   13.9169   25.7634 H   0  0  0  0  0  0  0  0  0  0  0  0
    4.5644   11.5720   26.0626 H   0  0  0  0  0  0  0  0  0  0  0  0
    7.4555   14.4149   24.6618 H   0  0  0  0  0  0  0  0  0  0  0  0
    5.9704    9.7051   25.2537 H   0  0  0  0  0  0  0  0  0  0  0  0
    7.6983   12.9110   20.9898 H   0  0  0  0  0  0  0  0  0  0  0  0
    5.1633   12.5403   19.9636 H   0  0  0  0  0  0  0  0  0  0  0  0
    5.6978   16.5949   19.8573 H   0  0  0  0  0  0  0  0  0  0  0  0
   10.5459   18.4634   21.7299 H   0  0  0  0  0  0  0  0  0  0  0  0
    8.8138    9.9062   22.0879 H   0  0  0  0  0  0  0  0  0  0  0  0
   10.0449    9.3471   23.2398 H   0  0  0  0  0  0  0  0  0  0  0  0
   13.6673   13.8060   21.5020 H   0  0  0  0  0  0  0  0  0  0  0  0
   14.0616   14.9601   22.8206 H   0  0  0  0  0  0  0  0  0  0  0  0
   13.6553   13.2546   23.2114 H   0  0  0  0  0  0  0  0  0  0  0  0
  1  2  1  0  0  0  0
  1  3  2  0  0  0  0
  2  4  2  0  0  0  0
  3  9  1  0  0  0  0
  4 11  1  0  0  0  0
  5  6  2  0  0  0  0
  5 10  1  0  0  0  0
  6 24  1  0  0  0  0
  7 10  2  0  0  0  0
  7 24  1  0  0  0  0
  8 13  2  0  0  0  0
  8 26  1  0  0  0  0
  9 11  2  0  0  0  0
  9 12  1  0  0  0  0
 10 15  1  0  0  0  0
 11 25  1  0  0  0  0
 12 14  2  0  0  0  0
 12 20  1  0  0  0  0
 13 17  1  0  0  0  0
 13 21  1  0  0  0  0
 14 18  1  0  0  0  0
 14 27  1  0  0  0  0
 15 21  2  0  0  0  0
 15 26  1  0  0  0  0
 16 20  2  0  0  0  0
 16 22  1  0  0  0  0
 16 27  1  0  0  0  0
 17 22  1  0  0  0  0
 17 23  2  0  0  0  0
 18 25  1  0  0  0  0
 19 22  1  0  0  0  0
  1 28  1  0  0  0  0
  2 29  1  0  0  0  0
  3 30  1  0  0  0  0
  4 31  1  0  0  0  0
  5 32  1  0  0  0  0
  6 33  1  0  0  0  0
  7 34  1  0  0  0  0
  8 35  1  0  0  0  0
 18 36  1  0  0  0  0
 18 37  1  0  0  0  0
 19 38  1  0  0  0  0
 19 39  1  0  0  0  0
 19 40  1  0  0  0  0
M  END
> <idnumber>
Z2094782013

> <heavy_atoms>
27

> <LogS>
-6.407

> <LogP>
2.616

> <rotating_bonds>
3

> <PSA>
68.46

> <hb_acceptors>
4

> <hb_donors>
0

> <Collection>
Advanced

> <link>
https://www.enaminestore.com/catalog/Z2094782013

> <ROCS_ShapeQuery>
x0446_0A_x1080_0A_x0929_0A_x0812_0A_x0719_0A_x1140_0A_x0528_0A_x0310_0A

> <ROCS_TanimotoCombo>
0.459 

> <ROCS_ShapeTanimoto>
0.267 

> <ROCS_ColorTanimoto>
0.192 

> <ROCS_RefTversky>
0.243 

> <ROCS_RefColorTversky>
0.212 

> <ROCS_RefTverskyCombo>
0.455 

> <ROCS_FitTversky>
1.588 

> <ROCS_FitColorTversky>
0.668 

> <ROCS_FitTverskyCombo>
2.256 

> <ROCS_ColorScore>
-7.596

> <ROCS_Overlap>
2871.287

> <ROCS_Rank>
329                 

$$$$
untitled-dbase-841129_115
  -OEChem-02092406493D

 50 54  0     1  0  0  0  0  0999 V2000
    6.1246   13.2256   25.1599 C   0  0  0  0  0  0  0  0  0  0  0  0
    5.4516   12.0556   24.8304 C   0  0  0  0  0  0  0  0  0  0  0  0
    7.5096   13.2804   25.0335 C   0  0  0  0  0  0  0  0  0  0  0  0
    6.1647   10.9437   24.3755 C   0  0  0  0  0  0  0  0  0  0  0  0
   10.3002   11.0684   23.9844 C   0  0  0  0  0  0  0  0  0  0  0  0
    8.2267   12.1619   24.5758 C   0  0  0  0  0  0  0  0  0  0  0  0
    9.6211   12.1896   24.4391 C   0  0  0  0  0  0  0  0  0  0  0  0
    7.5500   10.9707   24.2393 C   0  0  0  0  0  0  0  0  0  0  0  0
    9.5521    9.9492   23.6799 C   0  0  0  0  0  0  0  0  0  0  0  0
    9.7412   14.6205   21.7975 C   0  0  0  0  0  0  0  0  0  0  0  0
    7.7255   14.9026   21.2749 C   0  0  0  0  0  0  0  0  0  0  0  0
   10.4248   13.3773   24.7601 C   0  0  0  0  0  0  0  0  0  0  0  0
    9.5697    7.8562   22.1657 C   0  0  0  0  0  0  0  0  0  0  0  0
    9.7196    7.3725   23.5742 C   0  0  0  0  0  0  0  0  0  0  0  0
   12.2653   14.3584   21.6639 C   0  0  0  0  0  0  0  0  0  0  0  0
   12.4236   14.6485   24.0464 C   0  0  0  0  0  0  0  0  0  0  0  0
   10.2520    8.7269   23.1873 C   0  0  0  0  0  0  0  0  0  0  0  0
   10.9544   13.8531   22.2894 C   0  0  1  0  0  0  0  0  0  0  0  0
   12.8847   15.2575   22.7314 C   0  0  2  0  0  0  0  0  0  0  0  0
    6.3199   14.5237   21.0836 C   0  0  0  0  0  0  0  0  0  0  0  0
   13.0618   17.2822   21.5550 C   0  0  0  0  0  0  0  0  0  0  0  0
    8.2063    9.8811   23.7978 N   0  0  0  0  0  0  0  0  0  0  0  0
    9.6440   15.8677   21.4006 N   0  0  0  0  0  0  0  0  0  0  0  0
    8.3179   16.0534   21.0569 N   0  0  0  0  0  0  0  0  0  0  0  0
   11.1851   13.9410   23.7408 N   0  0  0  0  0  0  0  0  0  0  0  0
   10.3581   13.8018   25.9122 O   0  0  0  0  0  0  0  0  0  0  0  0
    8.5636   13.9397   21.7471 O   0  0  0  0  0  0  0  0  0  0  0  0
   12.3894   16.5816   22.5920 O   0  0  0  0  0  0  0  0  0  0  0  0
    5.5742   14.0914   25.5152 H   0  0  0  0  0  0  0  0  0  0  0  0
    4.3710   12.0045   24.9252 H   0  0  0  0  0  0  0  0  0  0  0  0
    8.0106   14.2077   25.2999 H   0  0  0  0  0  0  0  0  0  0  0  0
    5.6141   10.0387   24.1247 H   0  0  0  0  0  0  0  0  0  0  0  0
   11.3798   11.0705   23.8709 H   0  0  0  0  0  0  0  0  0  0  0  0
   10.1927    7.3984   21.4063 H   0  0  0  0  0  0  0  0  0  0  0  0
    8.5746    8.1175   21.8267 H   0  0  0  0  0  0  0  0  0  0  0  0
    8.8250    7.3107   24.1826 H   0  0  0  0  0  0  0  0  0  0  0  0
   10.4422    6.5880   23.7647 H   0  0  0  0  0  0  0  0  0  0  0  0
   12.9274   13.4999   21.4959 H   0  0  0  0  0  0  0  0  0  0  0  0
   12.1136   14.8780   20.7119 H   0  0  0  0  0  0  0  0  0  0  0  0
   13.1375   13.8994   24.4069 H   0  0  0  0  0  0  0  0  0  0  0  0
   12.2428   15.3812   24.8392 H   0  0  0  0  0  0  0  0  0  0  0  0
   11.3272    8.8159   23.1042 H   0  0  0  0  0  0  0  0  0  0  0  0
   10.8038   12.7661   22.0084 H   0  0  0  0  0  0  0  0  0  0  0  0
   13.9809   15.2918   22.6455 H   0  0  0  0  0  0  0  0  0  0  0  0
    6.1416   14.1287   20.0670 H   0  0  0  0  0  0  0  0  0  0  0  0
    5.9914   13.7472   21.8000 H   0  0  0  0  0  0  0  0  0  0  0  0
    5.6298   15.3759   21.2308 H   0  0  0  0  0  0  0  0  0  0  0  0
   12.6567   18.2940   21.4758 H   0  0  0  0  0  0  0  0  0  0  0  0
   12.9295   16.7503   20.6095 H   0  0  0  0  0  0  0  0  0  0  0  0
   14.1264   17.3360   21.7947 H   0  0  0  0  0  0  0  0  0  0  0  0
  1  2  1  0  0  0  0
  1  3  2  0  0  0  0
  2  4  2  0  0  0  0
  3  6  1  0  0  0  0
  4  8  1  0  0  0  0
  5  7  1  0  0  0  0
  5  9  2  0  0  0  0
  6  7  2  0  0  0  0
  6  8  1  0  0  0  0
  7 12  1  0  0  0  0
  8 22  2  0  0  0  0
  9 17  1  0  0  0  0
  9 22  1  0  0  0  0
 10 18  1  6  0  0  0
 10 23  2  0  0  0  0
 10 27  1  0  0  0  0
 11 20  1  0  0  0  0
 11 24  2  0  0  0  0
 11 27  1  0  0  0  0
 12 25  1  0  0  0  0
 12 26  2  0  0  0  0
 13 14  1  0  0  0  0
 13 17  1  0  0  0  0
 14 17  1  0  0  0  0
 15 18  1  0  0  0  0
 15 19  1  0  0  0  0
 16 19  1  0  0  0  0
 16 25  1  0  0  0  0
 18 25  1  0  0  0  0
 19 28  1  6  0  0  0
 21 28  1  0  0  0  0
 23 24  1  0  0  0  0
  1 29  1  0  0  0  0
  2 30  1  0  0  0  0
  3 31  1  0  0  0  0
  4 32  1  0  0  0  0
  5 33  1  0  0  0  0
 13 34  1  0  0  0  0
 13 35  1  0  0  0  0
 14 36  1  0  0  0  0
 14 37  1  0  0  0  0
 15 38  1  0  0  0  0
 15 39  1  0  0  0  0
 16 40  1  0  0  0  0
 16 41  1  0  0  0  0
 17 42  1  0  0  0  0
 18 43  1  0  0  0  0
 19 44  1  0  0  0  0
 20 45  1  0  0  0  0
 20 46  1  0  0  0  0
 20 47  1  0  0  0  0
 21 48  1  0  0  0  0
 21 49  1  0  0  0  0
 21 50  1  0  0  0  0
M  END
> <idnumber>
Z1753973188

> <heavy_atoms>
28

> <LogS>
-3.583

> <LogP>
0.92

> <rotating_bonds>
4

> <PSA>
81.35

> <hb_acceptors>
5

> <hb_donors>
0

> <Collection>
Premium

> <link>
https://www.enaminestore.com/catalog/Z1753973188

> <ROCS_ShapeQuery>
x0446_0A_x1080_0A_x0929_0A_x0812_0A_x0719_0A_x1140_0A_x0528_0A_x0310_0A

> <ROCS_TanimotoCombo>
0.458 

> <ROCS_ShapeTanimoto>
0.274 

> <ROCS_ColorTanimoto>
0.184 

> <ROCS_RefTversky>
0.249 

> <ROCS_RefColorTversky>
0.202 

> <ROCS_RefTverskyCombo>
0.451 

> <ROCS_FitTversky>
1.583 

> <ROCS_FitColorTversky>
0.676 

> <ROCS_FitTverskyCombo>
2.259 

> <ROCS_ColorScore>
-7.227

> <ROCS_Overlap>
2948.420

> <ROCS_Rank>
330                 

$$$$
untitled-dbase-998135_17
  -OEChem-02092406493D

 40 43  0     1  0  0  0  0  0999 V2000
    5.3121   12.5016   25.4143 C   0  0  0  0  0  0  0  0  0  0  0  0
    6.1748   11.4322   25.2219 C   0  0  0  0  0  0  0  0  0  0  0  0
   13.2340   15.1344   22.2623 C   0  0  0  0  0  0  0  0  0  0  0  0
   11.0018   15.4282   21.4167 C   0  0  0  0  0  0  0  0  0  0  0  0
    5.6368   13.7086   24.8216 C   0  0  0  0  0  0  0  0  0  0  0  0
   12.6972   14.3145   23.2418 C   0  0  0  0  0  0  0  0  0  0  0  0
   12.3634   15.6979   21.3362 C   0  0  0  0  0  0  0  0  0  0  0  0
    7.3208   11.6010   24.4414 C   0  0  0  0  0  0  0  0  0  0  0  0
   10.5649   14.5950   22.4339 C   0  0  0  0  0  0  0  0  0  0  0  0
    7.5831   12.8705   23.8839 C   0  0  0  0  0  0  0  0  0  0  0  0
    9.1373   14.2752   22.5670 C   0  0  0  0  0  0  0  0  0  0  0  0
   10.4002   11.5170   24.2951 C   0  0  0  0  0  0  0  0  0  0  0  0
    9.4055   10.6933   25.1370 C   0  0  0  0  0  0  0  0  0  0  0  0
    8.7418   10.5732   22.8785 C   0  0  0  0  0  0  0  0  0  0  0  0
    9.6446   11.8015   22.9801 C   0  0  1  0  0  0  0  0  0  0  0  0
   13.2648   15.8155   18.9995 C   0  0  0  0  0  0  0  0  0  0  0  0
   12.8882   16.5879   20.2614 C   0  0  0  0  0  0  0  0  0  0  0  0
   11.3803   14.0293   23.3518 N   0  0  0  0  0  0  0  0  0  0  0  0
    6.7426   13.9165   24.0703 N   0  0  0  0  0  0  0  0  0  0  0  0
    8.2314   10.5237   24.2534 N   0  0  2  0  0  0  0  0  0  0  0  0
    8.8005   13.0282   23.1128 N   0  0  0  0  0  0  0  0  0  0  0  0
    8.3630   15.1480   22.1789 O   0  0  0  0  0  0  0  0  0  0  0  0
    4.4141   12.3951   26.0118 H   0  0  0  0  0  0  0  0  0  0  0  0
    5.9519   10.4710   25.6767 H   0  0  0  0  0  0  0  0  0  0  0  0
   14.3011   15.3255   22.2264 H   0  0  0  0  0  0  0  0  0  0  0  0
   10.3053   15.8580   20.7036 H   0  0  0  0  0  0  0  0  0  0  0  0
    4.9943   14.5749   24.9413 H   0  0  0  0  0  0  0  0  0  0  0  0
   13.3338   13.8506   23.9880 H   0  0  0  0  0  0  0  0  0  0  0  0
   10.7168   12.4341   24.8027 H   0  0  0  0  0  0  0  0  0  0  0  0
   11.2957   10.9186   24.0906 H   0  0  0  0  0  0  0  0  0  0  0  0
    9.8319    9.7094   25.3643 H   0  0  0  0  0  0  0  0  0  0  0  0
    9.1671   11.1782   26.0913 H   0  0  0  0  0  0  0  0  0  0  0  0
    7.9561   10.6582   22.1174 H   0  0  0  0  0  0  0  0  0  0  0  0
    9.3223    9.6677   22.6620 H   0  0  0  0  0  0  0  0  0  0  0  0
   10.3240   11.8810   22.1282 H   0  0  0  0  0  0  0  0  0  0  0  0
   14.0050   15.0390   19.2206 H   0  0  0  0  0  0  0  0  0  0  0  0
   13.6914   16.4861   18.2471 H   0  0  0  0  0  0  0  0  0  0  0  0
   12.3874   15.3281   18.5610 H   0  0  0  0  0  0  0  0  0  0  0  0
   12.1440   17.3584   20.0025 H   0  0  0  0  0  0  0  0  0  0  0  0
   13.7700   17.1441   20.6190 H   0  0  0  0  0  0  0  0  0  0  0  0
  1  2  2  0  0  0  0
  1  5  1  0  0  0  0
  2  8  1  0  0  0  0
  3  6  2  0  0  0  0
  3  7  1  0  0  0  0
  4  7  2  0  0  0  0
  4  9  1  0  0  0  0
  5 19  2  0  0  0  0
  6 18  1  0  0  0  0
  7 17  1  0  0  0  0
  8 10  2  0  0  0  0
  8 20  1  0  0  0  0
  9 11  1  0  0  0  0
  9 18  2  0  0  0  0
 10 19  1  0  0  0  0
 10 21  1  0  0  0  0
 11 21  1  0  0  0  0
 11 22  2  0  0  0  0
 12 13  1  0  0  0  0
 12 15  1  0  0  0  0
 13 20  1  0  0  0  0
 14 15  1  0  0  0  0
 14 20  1  0  0  0  0
 15 21  1  0  0  0  0
 16 17  1  0  0  0  0
  1 23  1  0  0  0  0
  2 24  1  0  0  0  0
  3 25  1  0  0  0  0
  4 26  1  0  0  0  0
  5 27  1  0  0  0  0
  6 28  1  0  0  0  0
 12 29  1  0  0  0  0
 12 30  1  0  0  0  0
 13 31  1  0  0  0  0
 13 32  1  0  0  0  0
 14 33  1  0  0  0  0
 14 34  1  0  0  0  0
 15 35  1  0  0  0  0
 16 36  1  0  0  0  0
 16 37  1  0  0  0  0
 16 38  1  0  0  0  0
 17 39  1  0  0  0  0
 17 40  1  0  0  0  0
M  END
> <idnumber>
Z3016310159

> <heavy_atoms>
22

> <LogS>
-4.045

> <LogP>
1.111

> <rotating_bonds>
2

> <PSA>
49.33

> <hb_acceptors>
4

> <hb_donors>
0

> <Collection>
Legacy

> <link>
https://www.enaminestore.com/catalog/Z3016310159

> <ROCS_ShapeQuery>
x0446_0A_x1080_0A_x0929_0A_x0812_0A_x0719_0A_x1140_0A_x0528_0A_x0310_0A

> <ROCS_TanimotoCombo>
0.458 

> <ROCS_ShapeTanimoto>
0.263 

> <ROCS_ColorTanimoto>
0.195 

> <ROCS_RefTversky>
0.237 

> <ROCS_RefColorTversky>
0.223 

> <ROCS_RefTverskyCombo>
0.460 

> <ROCS_FitTversky>
1.748 

> <ROCS_FitColorTversky>
0.610 

> <ROCS_FitTverskyCombo>
2.357 

> <ROCS_ColorScore>
-8.010

> <ROCS_Overlap>
2796.474

> <ROCS_Rank>
331                 

$$$$
untitled-dbase-993137_63
  -OEChem-02092406493D

 43 47  0     1  0  0  0  0  0999 V2000
   10.9838   16.6104   22.1849 C   0  0  0  0  0  0  0  0  0  0  0  0
   11.4852   14.6157   21.8288 C   0  0  0  0  0  0  0  0  0  0  0  0
    7.4615   11.9063   22.8661 C   0  0  0  0  0  0  0  0  0  0  0  0
    7.7304   12.7464   23.8763 C   0  0  0  0  0  0  0  0  0  0  0  0
   10.2031   11.1418   22.0429 C   0  0  0  0  0  0  0  0  0  0  0  0
   10.6354   12.6895   23.7284 C   0  0  0  0  0  0  0  0  0  0  0  0
    8.9311   17.9456   23.1205 C   0  0  0  0  0  0  0  0  0  0  0  0
    8.7721   17.9056   21.6328 C   0  0  0  0  0  0  0  0  0  0  0  0
    7.7108   10.6261   24.7587 C   0  0  0  0  0  0  0  0  0  0  0  0
   10.1599   17.9010   22.2376 C   0  0  0  0  0  0  0  0  0  0  0  0
    8.0036   10.5490   23.2542 C   0  0  2  0  0  0  0  0  0  0  0  0
    8.4661   11.9547   24.9371 C   0  0  1  0  0  0  0  0  0  0  0  0
    9.5528   10.5625   23.2730 C   0  0  2  0  0  0  0  0  0  0  0  0
    9.8826   11.5686   24.4209 C   0  0  1  0  0  0  0  0  0  0  0  0
   10.7709   10.9563   25.5021 C   0  0  0  0  0  0  0  0  0  0  0  0
   13.8448   14.7494   22.7114 C   0  0  0  0  0  0  0  0  0  0  0  0
   11.5251   13.1621   21.4550 C   0  0  0  0  0  0  0  0  0  0  0  0
   10.4763   15.4439   21.6887 N   0  0  0  0  0  0  0  0  0  0  0  0
   12.2433   16.5561   22.6232 N   0  0  0  0  0  0  0  0  0  0  0  0
   12.5405   15.2698   22.3841 N   0  0  0  0  0  0  0  0  0  0  0  0
   10.7948   12.3388   22.3993 N   0  0  0  0  0  0  0  0  0  0  0  0
   10.1603   10.6206   20.9371 O   0  0  0  0  0  0  0  0  0  0  0  0
   11.0152   13.7130   24.2816 O   0  0  0  0  0  0  0  0  0  0  0  0
    6.9906   12.1596   21.9298 H   0  0  0  0  0  0  0  0  0  0  0  0
    7.5190   13.8033   23.9043 H   0  0  0  0  0  0  0  0  0  0  0  0
    8.7081   18.8763   23.6279 H   0  0  0  0  0  0  0  0  0  0  0  0
    8.6613   17.0577   23.6795 H   0  0  0  0  0  0  0  0  0  0  0  0
    8.3969   16.9907   21.1902 H   0  0  0  0  0  0  0  0  0  0  0  0
    8.4421   18.8094   21.1350 H   0  0  0  0  0  0  0  0  0  0  0  0
    6.6403   10.6968   24.9939 H   0  0  0  0  0  0  0  0  0  0  0  0
    8.1358    9.7917   25.3261 H   0  0  0  0  0  0  0  0  0  0  0  0
   10.7347   18.8186   22.1519 H   0  0  0  0  0  0  0  0  0  0  0  0
    7.5406    9.7085   22.7355 H   0  0  0  0  0  0  0  0  0  0  0  0
    8.4130   12.3805   25.9402 H   0  0  0  0  0  0  0  0  0  0  0  0
    9.9597    9.5648   23.4734 H   0  0  0  0  0  0  0  0  0  0  0  0
   10.2384   10.1505   26.0046 H   0  0  0  0  0  0  0  0  0  0  0  0
   11.0394   11.7168   26.2334 H   0  0  0  0  0  0  0  0  0  0  0  0
   11.6786   10.5579   25.0519 H   0  0  0  0  0  0  0  0  0  0  0  0
   14.4901   14.8841   21.8394 H   0  0  0  0  0  0  0  0  0  0  0  0
   14.2473   15.2907   23.5721 H   0  0  0  0  0  0  0  0  0  0  0  0
   13.7578   13.6890   22.9640 H   0  0  0  0  0  0  0  0  0  0  0  0
   11.0875   13.0065   20.4629 H   0  0  0  0  0  0  0  0  0  0  0  0
   12.5558   12.7942   21.4172 H   0  0  0  0  0  0  0  0  0  0  0  0
  1 10  1  0  0  0  0
  1 18  1  0  0  0  0
  1 19  2  0  0  0  0
  2 17  1  0  0  0  0
  2 18  2  0  0  0  0
  2 20  1  0  0  0  0
  3  4  2  0  0  0  0
  3 11  1  0  0  0  0
  4 12  1  0  0  0  0
  5 13  1  1  0  0  0
  5 21  1  0  0  0  0
  5 22  2  0  0  0  0
  6 14  1  0  0  0  0
  6 21  1  0  0  0  0
  6 23  2  0  0  0  0
  7  8  1  0  0  0  0
  7 10  1  0  0  0  0
  8 10  1  0  0  0  0
  9 11  1  6  0  0  0
  9 12  1  6  0  0  0
 11 13  1  0  0  0  0
 12 14  1  0  0  0  0
 13 14  1  0  0  0  0
 14 15  1  6  0  0  0
 16 20  1  0  0  0  0
 17 21  1  0  0  0  0
 19 20  1  0  0  0  0
  3 24  1  0  0  0  0
  4 25  1  0  0  0  0
  7 26  1  0  0  0  0
  7 27  1  0  0  0  0
  8 28  1  0  0  0  0
  8 29  1  0  0  0  0
  9 30  1  0  0  0  0
  9 31  1  0  0  0  0
 10 32  1  0  0  0  0
 11 33  1  0  0  0  0
 12 34  1  0  0  0  0
 13 35  1  0  0  0  0
 15 36  1  0  0  0  0
 15 37  1  0  0  0  0
 15 38  1  0  0  0  0
 16 39  1  0  0  0  0
 16 40  1  0  0  0  0
 16 41  1  0  0  0  0
 17 42  1  0  0  0  0
 17 43  1  0  0  0  0
M  END
> <idnumber>
Z2994091751

> <heavy_atoms>
23

> <LogS>
-1.785

> <LogP>
0.022

> <rotating_bonds>
3

> <PSA>
68.09

> <hb_acceptors>
4

> <hb_donors>
0

> <Collection>
Advanced

> <link>
https://www.enaminestore.com/catalog/Z2994091751

> <ROCS_ShapeQuery>
x0446_0A_x1080_0A_x0929_0A_x0812_0A_x0719_0A_x1140_0A_x0528_0A_x0310_0A

> <ROCS_TanimotoCombo>
0.458 

> <ROCS_ShapeTanimoto>
0.240 

> <ROCS_ColorTanimoto>
0.218 

> <ROCS_RefTversky>
0.221 

> <ROCS_RefColorTversky>
0.248 

> <ROCS_RefTverskyCombo>
0.468 

> <ROCS_FitTversky>
1.577 

> <ROCS_FitColorTversky>
0.649 

> <ROCS_FitTverskyCombo>
2.226 

> <ROCS_ColorScore>
-8.904

> <ROCS_Overlap>
2607.811

> <ROCS_Rank>
332                 

$$$$
untitled-dbase-1167195_63
  -OEChem-02092406493D

 50 53  0     1  0  0  0  0  0999 V2000
    5.3734   16.0625   24.2323 C   0  0  0  0  0  0  0  0  0  0  0  0
    5.9347   14.9280   24.8112 C   0  0  0  0  0  0  0  0  0  0  0  0
    4.5423   15.9404   23.1175 C   0  0  0  0  0  0  0  0  0  0  0  0
    5.6732   13.6705   24.2710 C   0  0  0  0  0  0  0  0  0  0  0  0
    4.8503   13.5412   23.1433 C   0  0  0  0  0  0  0  0  0  0  0  0
    4.2548   14.6824   22.5683 C   0  0  0  0  0  0  0  0  0  0  0  0
    6.2820   12.5056   24.9278 C   0  0  0  0  0  0  0  0  0  0  0  0
   11.6384   15.3481   21.8832 C   0  0  0  0  0  0  0  0  0  0  0  0
   10.3917   14.5566   22.1288 C   0  0  0  0  0  0  0  0  0  0  0  0
    4.5707   12.1712   22.5751 C   0  0  0  0  0  0  0  0  0  0  0  0
    4.1057   12.2577   21.1216 C   0  0  0  0  0  0  0  0  0  0  0  0
    8.3257   10.5113   22.1125 C   0  0  0  0  0  0  0  0  0  0  0  0
    8.8176   11.9310   21.7872 C   0  0  0  0  0  0  0  0  0  0  0  0
   10.1335   11.0609   23.5842 C   0  0  0  0  0  0  0  0  0  0  0  0
    2.9886   13.2856   20.9851 C   0  0  0  0  0  0  0  0  0  0  0  0
    7.8869   10.6651   24.6007 C   0  0  0  0  0  0  0  0  0  0  0  0
    8.6280   13.0052   24.0843 C   0  0  0  0  0  0  0  0  0  0  0  0
    8.8707   10.2051   23.5170 C   0  0  1  0  0  0  0  0  0  0  0  0
    9.5863   12.3832   23.0441 C   0  0  2  0  0  0  0  0  0  0  0  0
    3.4358   14.5846   21.4494 N   0  0  0  0  0  0  0  0  0  0  0  0
    7.5469   12.0887   24.4944 N   0  0  0  0  0  0  0  0  0  0  0  0
   12.2278   15.0707   20.6779 N   0  0  0  0  0  0  0  0  0  0  0  0
   10.6378   13.3398   22.7266 N   0  0  0  0  0  0  0  0  0  0  0  0
    5.6242   11.9800   25.8248 O   0  0  0  0  0  0  0  0  0  0  0  0
   12.0183   16.1247   22.7440 O   0  0  0  0  0  0  0  0  0  0  0  0
    9.3287   15.0399   21.7731 O   0  0  0  0  0  0  0  0  0  0  0  0
    5.5798   17.0440   24.6492 H   0  0  0  0  0  0  0  0  0  0  0  0
    6.5750   15.0378   25.6829 H   0  0  0  0  0  0  0  0  0  0  0  0
    4.1121   16.8395   22.6815 H   0  0  0  0  0  0  0  0  0  0  0  0
    5.4675   11.5421   22.6066 H   0  0  0  0  0  0  0  0  0  0  0  0
    3.7958   11.6911   23.1853 H   0  0  0  0  0  0  0  0  0  0  0  0
    4.9456   12.5378   20.4724 H   0  0  0  0  0  0  0  0  0  0  0  0
    3.7562   11.2749   20.7857 H   0  0  0  0  0  0  0  0  0  0  0  0
    7.2351   10.4316   22.0554 H   0  0  0  0  0  0  0  0  0  0  0  0
    8.7449    9.8066   21.3845 H   0  0  0  0  0  0  0  0  0  0  0  0
    9.4754   11.8828   20.9103 H   0  0  0  0  0  0  0  0  0  0  0  0
    7.9877   12.6008   21.5372 H   0  0  0  0  0  0  0  0  0  0  0  0
   10.5388   11.1424   24.5986 H   0  0  0  0  0  0  0  0  0  0  0  0
   10.9125   10.6480   22.9309 H   0  0  0  0  0  0  0  0  0  0  0  0
    2.6779   13.3636   19.9379 H   0  0  0  0  0  0  0  0  0  0  0  0
    2.1115   12.9730   21.5641 H   0  0  0  0  0  0  0  0  0  0  0  0
    6.9695   10.0670   24.5565 H   0  0  0  0  0  0  0  0  0  0  0  0
    8.3225   10.5155   25.5961 H   0  0  0  0  0  0  0  0  0  0  0  0
    9.1729   13.2659   25.0007 H   0  0  0  0  0  0  0  0  0  0  0  0
    8.1961   13.9290   23.6847 H   0  0  0  0  0  0  0  0  0  0  0  0
    9.0902    9.1401   23.6419 H   0  0  0  0  0  0  0  0  0  0  0  0
    2.9706   15.4167   21.1070 H   0  0  0  0  0  0  0  0  0  0  0  0
   11.8052   14.3839   20.0615 H   0  0  0  0  0  0  0  0  0  0  0  0
   13.0801   15.5411   20.3918 H   0  0  0  0  0  0  0  0  0  0  0  0
   11.5962   13.0873   22.9568 H   0  0  0  0  0  0  0  0  0  0  0  0
  1  2  2  0  0  0  0
  1  3  1  0  0  0  0
  2  4  1  0  0  0  0
  3  6  2  0  0  0  0
  4  5  2  0  0  0  0
  4  7  1  0  0  0  0
  5  6  1  0  0  0  0
  5 10  1  0  0  0  0
  6 20  1  0  0  0  0
  7 21  1  0  0  0  0
  7 24  2  0  0  0  0
  8  9  1  0  0  0  0
  8 22  1  0  0  0  0
  8 25  2  0  0  0  0
  9 23  1  0  0  0  0
  9 26  2  0  0  0  0
 10 11  1  0  0  0  0
 11 15  1  0  0  0  0
 12 13  1  0  0  0  0
 12 18  1  0  0  0  0
 13 19  1  0  0  0  0
 14 18  1  0  0  0  0
 14 19  1  0  0  0  0
 15 20  1  0  0  0  0
 16 18  1  0  0  0  0
 16 21  1  0  0  0  0
 17 19  1  0  0  0  0
 17 21  1  0  0  0  0
 19 23  1  0  0  0  0
  1 27  1  0  0  0  0
  2 28  1  0  0  0  0
  3 29  1  0  0  0  0
 10 30  1  0  0  0  0
 10 31  1  0  0  0  0
 11 32  1  0  0  0  0
 11 33  1  0  0  0  0
 12 34  1  0  0  0  0
 12 35  1  0  0  0  0
 13 36  1  0  0  0  0
 13 37  1  0  0  0  0
 14 38  1  0  0  0  0
 14 39  1  0  0  0  0
 15 40  1  0  0  0  0
 15 41  1  0  0  0  0
 16 42  1  0  0  0  0
 16 43  1  0  0  0  0
 17 44  1  0  0  0  0
 17 45  1  0  0  0  0
 18 46  1  0  0  0  0
 20 47  1  0  0  0  0
 22 48  1  0  0  0  0
 22 49  1  0  0  0  0
 23 50  1  0  0  0  0
M  END
> <idnumber>
Z8333353127

> <heavy_atoms>
26

> <LogS>
-3.558

> <LogP>
0.433

> <rotating_bonds>
3

> <PSA>
104.53

> <hb_acceptors>
4

> <hb_donors>
3

> <Collection>
Advanced

> <link>
https://www.enaminestore.com/catalog/Z8333353127

> <ROCS_ShapeQuery>
x0446_0A_x1080_0A_x0929_0A_x0812_0A_x0719_0A_x1140_0A_x0528_0A_x0310_0A

> <ROCS_TanimotoCombo>
0.458 

> <ROCS_ShapeTanimoto>
0.253 

> <ROCS_ColorTanimoto>
0.205 

> <ROCS_RefTversky>
0.232 

> <ROCS_RefColorTversky>
0.241 

> <ROCS_RefTverskyCombo>
0.473 

> <ROCS_FitTversky>
1.566 

> <ROCS_FitColorTversky>
0.580 

> <ROCS_FitTverskyCombo>
2.147 

> <ROCS_ColorScore>
-8.695

> <ROCS_Overlap>
2739.263

> <ROCS_Rank>
333                 

$$$$
untitled-dbase-534558_121
  -OEChem-02092406493D

 45 49  0     0  0  0  0  0  0999 V2000
    5.9850   12.7330   25.9177 C   0  0  0  0  0  0  0  0  0  0  0  0
    5.4838   11.4555   25.6545 C   0  0  0  0  0  0  0  0  0  0  0  0
    7.2458   13.1272   25.4499 C   0  0  0  0  0  0  0  0  0  0  0  0
    6.2200   10.5241   24.9160 C   0  0  0  0  0  0  0  0  0  0  0  0
    7.7586   12.4754   19.4403 C   0  0  0  0  0  0  0  0  0  0  0  0
    6.2474   13.9593   20.6026 C   0  0  0  0  0  0  0  0  0  0  0  0
    5.3735   12.1110   19.3153 C   0  0  0  0  0  0  0  0  0  0  0  0
    8.0048   12.2086   24.7055 C   0  0  0  0  0  0  0  0  0  0  0  0
    7.5462   13.5862   20.2568 C   0  0  0  0  0  0  0  0  0  0  0  0
    6.6723   11.7378   18.9695 C   0  0  0  0  0  0  0  0  0  0  0  0
    5.1610   13.2217   20.1319 C   0  0  0  0  0  0  0  0  0  0  0  0
    9.2622   12.1929   24.0750 C   0  0  0  0  0  0  0  0  0  0  0  0
    7.4710   10.9387   24.4618 C   0  0  0  0  0  0  0  0  0  0  0  0
    9.4215   10.9608   23.5023 C   0  0  0  0  0  0  0  0  0  0  0  0
    8.6626   14.3446   20.7410 C   0  0  0  0  0  0  0  0  0  0  0  0
   10.6789   14.6770   21.2311 C   0  0  0  0  0  0  0  0  0  0  0  0
   10.5707   10.5481   22.7668 C   0  0  0  0  0  0  0  0  0  0  0  0
   11.2851   12.8419   23.3282 C   0  0  0  0  0  0  0  0  0  0  0  0
    6.8990   10.5501   18.0964 C   0  0  0  0  0  0  0  0  0  0  0  0
    3.7723   13.6206   20.5014 C   0  0  0  0  0  0  0  0  0  0  0  0
   12.4318   13.7953   23.1449 C   0  0  0  0  0  0  0  0  0  0  0  0
    8.7226   15.5715   21.2035 N   0  0  0  0  0  0  0  0  0  0  0  0
   10.0491   15.7902   21.5258 N   0  0  0  0  0  0  0  0  0  0  0  0
   10.2273   13.2056   24.0019 N   0  0  0  0  0  0  0  0  0  0  0  0
   11.4979   11.5922   22.7237 N   0  0  0  0  0  0  0  0  0  0  0  0
   10.7299    9.4492   22.2487 O   0  0  0  0  0  0  0  0  0  0  0  0
    8.3410   10.1764   23.7247 O   0  0  0  0  0  0  0  0  0  0  0  0
    9.8661   13.7089   20.7263 O   0  0  0  0  0  0  0  0  0  0  0  0
   12.4165   14.4421   21.4622 S   0  0  0  0  0  0  0  0  0  0  0  0
    5.3875   13.4341   26.4951 H   0  0  0  0  0  0  0  0  0  0  0  0
    4.5018   11.1796   26.0310 H   0  0  0  0  0  0  0  0  0  0  0  0
    7.6207   14.1237   25.6629 H   0  0  0  0  0  0  0  0  0  0  0  0
    5.8360    9.5322   24.7092 H   0  0  0  0  0  0  0  0  0  0  0  0
    8.7691   12.1792   19.1666 H   0  0  0  0  0  0  0  0  0  0  0  0
    6.0745   14.8245   21.2395 H   0  0  0  0  0  0  0  0  0  0  0  0
    4.5266   11.5356   18.9484 H   0  0  0  0  0  0  0  0  0  0  0  0
    7.0055    9.6437   18.7048 H   0  0  0  0  0  0  0  0  0  0  0  0
    6.0650   10.4043   17.3977 H   0  0  0  0  0  0  0  0  0  0  0  0
    7.8053   10.6698   17.4885 H   0  0  0  0  0  0  0  0  0  0  0  0
    3.3682   14.3250   19.7640 H   0  0  0  0  0  0  0  0  0  0  0  0
    3.1071   12.7488   20.5506 H   0  0  0  0  0  0  0  0  0  0  0  0
    3.7444   14.0975   21.4899 H   0  0  0  0  0  0  0  0  0  0  0  0
   13.3661   13.2694   23.3306 H   0  0  0  0  0  0  0  0  0  0  0  0
   12.3387   14.6112   23.8587 H   0  0  0  0  0  0  0  0  0  0  0  0
   12.3724   11.4394   22.2289 H   0  0  0  0  0  0  0  0  0  0  0  0
  1  2  1  0  0  0  0
  1  3  2  0  0  0  0
  2  4  2  0  0  0  0
  3  8  1  0  0  0  0
  4 13  1  0  0  0  0
  5  9  2  0  0  0  0
  5 10  1  0  0  0  0
  6  9  1  0  0  0  0
  6 11  2  0  0  0  0
  7 10  2  0  0  0  0
  7 11  1  0  0  0  0
  8 12  1  0  0  0  0
  8 13  2  0  0  0  0
  9 15  1  0  0  0  0
 10 19  1  0  0  0  0
 11 20  1  0  0  0  0
 12 14  2  0  0  0  0
 12 24  1  0  0  0  0
 13 27  1  0  0  0  0
 14 17  1  0  0  0  0
 14 27  1  0  0  0  0
 15 22  2  0  0  0  0
 15 28  1  0  0  0  0
 16 23  2  0  0  0  0
 16 28  1  0  0  0  0
 16 29  1  0  0  0  0
 17 25  1  0  0  0  0
 17 26  2  0  0  0  0
 18 21  1  0  0  0  0
 18 24  2  0  0  0  0
 18 25  1  0  0  0  0
 21 29  1  0  0  0  0
 22 23  1  0  0  0  0
  1 30  1  0  0  0  0
  2 31  1  0  0  0  0
  3 32  1  0  0  0  0
  4 33  1  0  0  0  0
  5 34  1  0  0  0  0
  6 35  1  0  0  0  0
  7 36  1  0  0  0  0
 19 37  1  0  0  0  0
 19 38  1  0  0  0  0
 19 39  1  0  0  0  0
 20 40  1  0  0  0  0
 20 41  1  0  0  0  0
 20 42  1  0  0  0  0
 21 43  1  0  0  0  0
 21 44  1  0  0  0  0
 25 45  1  0  0  0  0
M  END
> <idnumber>
Z92636289

> <heavy_atoms>
29

> <LogS>
-7.973

> <LogP>
2.81

> <rotating_bonds>
4

> <PSA>
93.52

> <hb_acceptors>
4

> <hb_donors>
1

> <Collection>
Legacy

> <link>
https://www.enaminestore.com/catalog/Z92636289

> <ROCS_ShapeQuery>
x0446_0A_x1080_0A_x0929_0A_x0812_0A_x0719_0A_x1140_0A_x0528_0A_x0310_0A

> <ROCS_TanimotoCombo>
0.458 

> <ROCS_ShapeTanimoto>
0.265 

> <ROCS_ColorTanimoto>
0.193 

> <ROCS_RefTversky>
0.244 

> <ROCS_RefColorTversky>
0.219 

> <ROCS_RefTverskyCombo>
0.462 

> <ROCS_FitTversky>
1.505 

> <ROCS_FitColorTversky>
0.621 

> <ROCS_FitTverskyCombo>
2.127 

> <ROCS_ColorScore>
-7.851

> <ROCS_Overlap>
2882.687

> <ROCS_Rank>
334                 

$$$$
untitled-dbase-1163219_101
  -OEChem-02092406493D

 39 42  0     0  0  0  0  0  0999 V2000
    6.2152   10.9142   24.7639 C   0  0  0  0  0  0  0  0  0  0  0  0
   11.4327   15.8211   21.1175 C   0  0  0  0  0  0  0  0  0  0  0  0
    5.3677   11.9581   25.1462 C   0  0  0  0  0  0  0  0  0  0  0  0
   12.7661   15.7966   21.5261 C   0  0  0  0  0  0  0  0  0  0  0  0
    7.1340   13.5355   24.7341 C   0  0  0  0  0  0  0  0  0  0  0  0
   12.1351   14.5741   23.5122 C   0  0  0  0  0  0  0  0  0  0  0  0
    7.9801   12.4802   24.3510 C   0  0  0  0  0  0  0  0  0  0  0  0
    7.5275   11.1507   24.3618 C   0  0  0  0  0  0  0  0  0  0  0  0
   10.8016   14.5987   23.1036 C   0  0  0  0  0  0  0  0  0  0  0  0
   10.4504   15.2222   21.9063 C   0  0  0  0  0  0  0  0  0  0  0  0
    5.8272   13.2703   25.1312 C   0  0  0  0  0  0  0  0  0  0  0  0
   13.1173   15.1731   22.7234 C   0  0  0  0  0  0  0  0  0  0  0  0
    9.2965   12.6770   23.9435 C   0  0  0  0  0  0  0  0  0  0  0  0
    9.5831   10.4550   23.6225 C   0  0  0  0  0  0  0  0  0  0  0  0
   10.5731    8.9629   21.7604 C   0  0  0  0  0  0  0  0  0  0  0  0
    9.8380    8.0557   22.6968 C   0  0  0  0  0  0  0  0  0  0  0  0
   10.4653    9.3211   23.2189 C   0  0  0  0  0  0  0  0  0  0  0  0
    8.3677   16.3702   21.9114 C   0  0  0  0  0  0  0  0  0  0  0  0
    8.3281   10.1339   23.9973 N   0  0  0  0  0  0  0  0  0  0  0  0
   10.1248   11.6825   23.5725 N   0  0  0  0  0  0  0  0  0  0  0  0
    9.8235   13.9921   23.9073 N   0  0  0  0  0  0  0  0  0  0  0  0
    9.1531   15.2577   21.4892 O   0  0  0  0  0  0  0  0  0  0  0  0
    5.0174   14.2721   25.4974 F   0  0  0  0  0  0  0  0  0  0  0  0
   14.3978   15.1504   23.1161 F   0  0  0  0  0  0  0  0  0  0  0  0
    5.8311    9.8960   24.7843 H   0  0  0  0  0  0  0  0  0  0  0  0
   11.1662   16.3084   20.1836 H   0  0  0  0  0  0  0  0  0  0  0  0
    4.3491   11.7425   25.4553 H   0  0  0  0  0  0  0  0  0  0  0  0
   13.5307   16.2631   20.9120 H   0  0  0  0  0  0  0  0  0  0  0  0
    7.4697   14.5691   24.7310 H   0  0  0  0  0  0  0  0  0  0  0  0
   12.4205   14.0920   24.4436 H   0  0  0  0  0  0  0  0  0  0  0  0
   11.5411    8.6368   21.3983 H   0  0  0  0  0  0  0  0  0  0  0  0
    9.9898    9.5162   21.0344 H   0  0  0  0  0  0  0  0  0  0  0  0
    8.7600    8.0008   22.6013 H   0  0  0  0  0  0  0  0  0  0  0  0
   10.3090    7.1176   22.9652 H   0  0  0  0  0  0  0  0  0  0  0  0
   11.3628    9.2046   23.8119 H   0  0  0  0  0  0  0  0  0  0  0  0
    7.3556   16.2758   21.5104 H   0  0  0  0  0  0  0  0  0  0  0  0
    8.8265   17.2967   21.5570 H   0  0  0  0  0  0  0  0  0  0  0  0
    8.3251   16.3814   23.0031 H   0  0  0  0  0  0  0  0  0  0  0  0
    9.4094   14.6081   24.5968 H   0  0  0  0  0  0  0  0  0  0  0  0
  1  3  2  0  0  0  0
  1  8  1  0  0  0  0
  2  4  2  0  0  0  0
  2 10  1  0  0  0  0
  3 11  1  0  0  0  0
  4 12  1  0  0  0  0
  5  7  1  0  0  0  0
  5 11  2  0  0  0  0
  6  9  1  0  0  0  0
  6 12  2  0  0  0  0
  7  8  1  0  0  0  0
  7 13  2  0  0  0  0
  8 19  2  0  0  0  0
  9 10  2  0  0  0  0
  9 21  1  0  0  0  0
 10 22  1  0  0  0  0
 11 23  1  0  0  0  0
 12 24  1  0  0  0  0
 13 20  1  0  0  0  0
 13 21  1  0  0  0  0
 14 17  1  0  0  0  0
 14 19  1  0  0  0  0
 14 20  2  0  0  0  0
 15 16  1  0  0  0  0
 15 17  1  0  0  0  0
 16 17  1  0  0  0  0
 18 22  1  0  0  0  0
  1 25  1  0  0  0  0
  2 26  1  0  0  0  0
  3 27  1  0  0  0  0
  4 28  1  0  0  0  0
  5 29  1  0  0  0  0
  6 30  1  0  0  0  0
 15 31  1  0  0  0  0
 15 32  1  0  0  0  0
 16 33  1  0  0  0  0
 16 34  1  0  0  0  0
 17 35  1  0  0  0  0
 18 36  1  0  0  0  0
 18 37  1  0  0  0  0
 18 38  1  0  0  0  0
 21 39  1  0  0  0  0
M  END
> <idnumber>
Z8166860421

> <heavy_atoms>
24

> <LogS>
-5.263

> <LogP>
5.11

> <rotating_bonds>
4

> <PSA>
47.04

> <hb_acceptors>
4

> <hb_donors>
1

> <Collection>
Advanced

> <link>
https://www.enaminestore.com/catalog/Z8166860421

> <ROCS_ShapeQuery>
x0446_0A_x1080_0A_x0929_0A_x0812_0A_x0719_0A_x1140_0A_x0528_0A_x0310_0A

> <ROCS_TanimotoCombo>
0.458 

> <ROCS_ShapeTanimoto>
0.268 

> <ROCS_ColorTanimoto>
0.190 

> <ROCS_RefTversky>
0.242 

> <ROCS_RefColorTversky>
0.198 

> <ROCS_RefTverskyCombo>
0.439 

> <ROCS_FitTversky>
1.703 

> <ROCS_FitColorTversky>
0.828 

> <ROCS_FitTverskyCombo>
2.531 

> <ROCS_ColorScore>
-7.055

> <ROCS_Overlap>
2856.076

> <ROCS_Rank>
335                 

$$$$
untitled-dbase-1092931_87
  -OEChem-02092406493D

 46 51  0     1  0  0  0  0  0999 V2000
    9.3358   14.3221   21.0064 C   0  0  0  0  0  0  0  0  0  0  0  0
   10.3703   13.6629   21.6621 C   0  0  0  0  0  0  0  0  0  0  0  0
   11.1925   14.6802   22.1409 C   0  0  0  0  0  0  0  0  0  0  0  0
   10.6227   15.8439   21.7578 C   0  0  0  0  0  0  0  0  0  0  0  0
    5.4647   14.7974   23.2279 C   0  0  0  0  0  0  0  0  0  0  0  0
    6.8102   13.3778   23.9964 C   0  0  0  0  0  0  0  0  0  0  0  0
   10.5076   12.2080   21.7873 C   0  0  0  0  0  0  0  0  0  0  0  0
   12.4071   14.9961   22.8803 C   0  0  0  0  0  0  0  0  0  0  0  0
   11.3294   17.0452   22.1598 C   0  0  0  0  0  0  0  0  0  0  0  0
    3.1592   14.6551   21.9885 C   0  0  0  0  0  0  0  0  0  0  0  0
    4.1709   15.0607   20.9628 C   0  0  0  0  0  0  0  0  0  0  0  0
    8.4585   10.2914   25.0647 C   0  0  0  0  0  0  0  0  0  0  0  0
    7.0474   10.9793   23.2825 C   0  0  0  0  0  0  0  0  0  0  0  0
    9.4205   10.2145   22.7614 C   0  0  0  0  0  0  0  0  0  0  0  0
    9.8628   12.1820   24.2508 C   0  0  0  0  0  0  0  0  0  0  0  0
    4.3610   15.4741   22.4058 C   0  0  0  0  0  0  0  0  0  0  0  0
    8.1573    9.9589   23.6062 C   0  0  1  0  0  0  0  0  0  0  0  0
    8.5536   11.8189   24.9708 C   0  0  1  0  0  0  0  0  0  0  0  0
    6.1538   15.4203   24.1552 N   0  0  0  0  0  0  0  0  0  0  0  0
    7.0390   14.4864   24.6607 N   0  0  0  0  0  0  0  0  0  0  0  0
    7.4113   12.1432   24.1020 N   0  0  3  0  0  0  0  0  0  0  0  0
    9.9195   11.5924   22.8963 N   0  0  0  0  0  0  0  0  0  0  0  0
   11.1217   11.6369   20.8881 O   0  0  0  0  0  0  0  0  0  0  0  0
    9.4913   15.6886   21.0645 O   0  0  0  0  0  0  0  0  0  0  0  0
    5.8230   13.4941   23.0665 O   0  0  0  0  0  0  0  0  0  0  0  0
   12.4832   16.4750   22.8860 O   0  0  0  0  0  0  0  0  0  0  0  0
    8.4567   13.9865   20.4741 H   0  0  0  0  0  0  0  0  0  0  0  0
   12.3719   14.6617   23.9205 H   0  0  0  0  0  0  0  0  0  0  0  0
   13.3116   14.6191   22.3956 H   0  0  0  0  0  0  0  0  0  0  0  0
   11.7110   17.6309   21.3210 H   0  0  0  0  0  0  0  0  0  0  0  0
   10.7669   17.6732   22.8541 H   0  0  0  0  0  0  0  0  0  0  0  0
    2.1950   15.1487   21.9704 H   0  0  0  0  0  0  0  0  0  0  0  0
    3.1194   13.6098   22.2703 H   0  0  0  0  0  0  0  0  0  0  0  0
    4.8129   14.2891   20.5552 H   0  0  0  0  0  0  0  0  0  0  0  0
    3.8904   15.8285   20.2519 H   0  0  0  0  0  0  0  0  0  0  0  0
    7.6297    9.9906   25.7170 H   0  0  0  0  0  0  0  0  0  0  0  0
    9.3773    9.8232   25.4323 H   0  0  0  0  0  0  0  0  0  0  0  0
    7.0053   11.2192   22.2144 H   0  0  0  0  0  0  0  0  0  0  0  0
    6.0701   10.6014   23.6033 H   0  0  0  0  0  0  0  0  0  0  0  0
   10.2310    9.5479   23.0794 H   0  0  0  0  0  0  0  0  0  0  0  0
    9.2142    9.9993   21.7071 H   0  0  0  0  0  0  0  0  0  0  0  0
    9.9657   13.2702   24.2009 H   0  0  0  0  0  0  0  0  0  0  0  0
   10.7271   11.7960   24.8043 H   0  0  0  0  0  0  0  0  0  0  0  0
    4.1846   16.5181   22.6452 H   0  0  0  0  0  0  0  0  0  0  0  0
    7.8141    8.9277   23.4800 H   0  0  0  0  0  0  0  0  0  0  0  0
    8.4833   12.2919   25.9556 H   0  0  0  0  0  0  0  0  0  0  0  0
  1  2  2  0  0  0  0
  1 24  1  0  0  0  0
  2  3  1  0  0  0  0
  2  7  1  0  0  0  0
  3  4  2  0  0  0  0
  3  8  1  0  0  0  0
  4  9  1  0  0  0  0
  4 24  1  0  0  0  0
  5 16  1  0  0  0  0
  5 19  2  0  0  0  0
  5 25  1  0  0  0  0
  6 20  2  0  0  0  0
  6 21  1  0  0  0  0
  6 25  1  0  0  0  0
  7 22  1  0  0  0  0
  7 23  2  0  0  0  0
  8 26  1  0  0  0  0
  9 26  1  0  0  0  0
 10 11  1  0  0  0  0
 10 16  1  0  0  0  0
 11 16  1  0  0  0  0
 12 17  1  0  0  0  0
 12 18  1  0  0  0  0
 13 17  1  0  0  0  0
 13 21  1  0  0  0  0
 14 17  1  0  0  0  0
 14 22  1  0  0  0  0
 15 18  1  0  0  0  0
 15 22  1  0  0  0  0
 18 21  1  0  0  0  0
 19 20  1  0  0  0  0
  1 27  1  0  0  0  0
  8 28  1  0  0  0  0
  8 29  1  0  0  0  0
  9 30  1  0  0  0  0
  9 31  1  0  0  0  0
 10 32  1  0  0  0  0
 10 33  1  0  0  0  0
 11 34  1  0  0  0  0
 11 35  1  0  0  0  0
 12 36  1  0  0  0  0
 12 37  1  0  0  0  0
 13 38  1  0  0  0  0
 13 39  1  0  0  0  0
 14 40  1  0  0  0  0
 14 41  1  0  0  0  0
 15 42  1  0  0  0  0
 15 43  1  0  0  0  0
 16 44  1  0  0  0  0
 17 45  1  0  0  0  0
 18 46  1  0  0  0  0
M  END
> <idnumber>
Z4521999881

> <heavy_atoms>
26

> <LogS>
-3.686

> <LogP>
-0.497

> <rotating_bonds>
3

> <PSA>
84.84

> <hb_acceptors>
5

> <hb_donors>
0

> <Collection>
Premium

> <link>
https://www.enaminestore.com/catalog/Z4521999881

> <ROCS_ShapeQuery>
x0446_0A_x1080_0A_x0929_0A_x0812_0A_x0719_0A_x1140_0A_x0528_0A_x0310_0A

> <ROCS_TanimotoCombo>
0.458 

> <ROCS_ShapeTanimoto>
0.265 

> <ROCS_ColorTanimoto>
0.193 

> <ROCS_RefTversky>
0.241 

> <ROCS_RefColorTversky>
0.231 

> <ROCS_RefTverskyCombo>
0.472 

> <ROCS_FitTversky>
1.591 

> <ROCS_FitColorTversky>
0.542 

> <ROCS_FitTverskyCombo>
2.133 

> <ROCS_ColorScore>
-8.328

> <ROCS_Overlap>
2852.750

> <ROCS_Rank>
336                 

$$$$
untitled-dbase-939706_19
  -OEChem-02092406493D

 39 41  0     1  0  0  0  0  0999 V2000
    6.4994   11.4939   25.6895 C   0  0  0  0  0  0  0  0  0  0  0  0
    5.5854   12.5358   25.7515 C   0  0  0  0  0  0  0  0  0  0  0  0
    7.4903   11.5024   24.7050 C   0  0  0  0  0  0  0  0  0  0  0  0
    7.5487   12.5889   23.8062 C   0  0  0  0  0  0  0  0  0  0  0  0
    5.7055   13.5565   24.8257 C   0  0  0  0  0  0  0  0  0  0  0  0
    8.7843   13.6801   21.9561 C   0  0  0  0  0  0  0  0  0  0  0  0
   10.5084   11.5136   24.0348 C   0  0  0  0  0  0  0  0  0  0  0  0
    9.7359   10.9146   25.2275 C   0  0  0  0  0  0  0  0  0  0  0  0
    8.7287   10.1589   23.2335 C   0  0  0  0  0  0  0  0  0  0  0  0
    9.5236   11.4068   22.8526 C   0  0  1  0  0  0  0  0  0  0  0  0
   12.3252   13.3637   21.6918 C   0  0  0  0  0  0  0  0  0  0  0  0
   12.1688   16.0084   19.9921 C   0  0  0  0  0  0  0  0  0  0  0  0
    9.9669   13.6017   21.0199 C   0  0  0  0  0  0  0  0  0  0  0  0
    6.6579   13.6078   23.8661 N   0  0  0  0  0  0  0  0  0  0  0  0
    8.4548   10.4578   24.6434 N   0  0  2  0  0  0  0  0  0  0  0  0
    8.6148   12.5918   22.8222 N   0  0  0  0  0  0  0  0  0  0  0  0
   11.0752   14.2025   21.6963 N   0  0  2  0  0  0  0  0  0  0  0  0
    8.0547   14.6730   21.9039 O   0  0  0  0  0  0  0  0  0  0  0  0
   10.0725   16.6261   21.4222 O   0  0  0  0  0  0  0  0  0  0  0  0
   12.2833   16.3205   22.5829 O   0  0  0  0  0  0  0  0  0  0  0  0
   11.3331   15.9218   21.5617 S   0  0  0  0  0  0  0  0  0  0  0  0
    4.6201   14.8859   24.8277 Cl  0  0  0  0  0  0  0  0  0  0  0  0
    6.4376   10.6788   26.4052 H   0  0  0  0  0  0  0  0  0  0  0  0
    4.8083   12.5382   26.5084 H   0  0  0  0  0  0  0  0  0  0  0  0
   10.8301   12.5433   24.2217 H   0  0  0  0  0  0  0  0  0  0  0  0
   11.4025   10.9120   23.8333 H   0  0  0  0  0  0  0  0  0  0  0  0
   10.2785   10.0512   25.6291 H   0  0  0  0  0  0  0  0  0  0  0  0
    9.6098   11.6362   26.0437 H   0  0  0  0  0  0  0  0  0  0  0  0
    7.8259   10.0033   22.6297 H   0  0  0  0  0  0  0  0  0  0  0  0
    9.3442    9.2541   23.1554 H   0  0  0  0  0  0  0  0  0  0  0  0
   10.0417   11.2787   21.9005 H   0  0  0  0  0  0  0  0  0  0  0  0
   13.1252   13.8940   22.2290 H   0  0  0  0  0  0  0  0  0  0  0  0
   12.1239   12.4033   22.1891 H   0  0  0  0  0  0  0  0  0  0  0  0
   12.6398   13.1803   20.6538 H   0  0  0  0  0  0  0  0  0  0  0  0
   12.3946   17.0546   19.7795 H   0  0  0  0  0  0  0  0  0  0  0  0
   13.0882   15.4247   20.0589 H   0  0  0  0  0  0  0  0  0  0  0  0
   11.5087   15.5965   19.2274 H   0  0  0  0  0  0  0  0  0  0  0  0
    9.7155   14.1440   20.1141 H   0  0  0  0  0  0  0  0  0  0  0  0
   10.1558   12.5553   20.8031 H   0  0  0  0  0  0  0  0  0  0  0  0
  1  2  2  0  0  0  0
  1  3  1  0  0  0  0
  2  5  1  0  0  0  0
  3  4  2  0  0  0  0
  3 15  1  0  0  0  0
  4 14  1  0  0  0  0
  4 16  1  0  0  0  0
  5 14  2  0  0  0  0
  5 22  1  0  0  0  0
  6 13  1  0  0  0  0
  6 16  1  0  0  0  0
  6 18  2  0  0  0  0
  7  8  1  0  0  0  0
  7 10  1  6  0  0  0
  8 15  1  0  0  0  0
  9 10  1  0  0  0  0
  9 15  1  0  0  0  0
 10 16  1  0  0  0  0
 11 17  1  0  0  0  0
 12 21  1  0  0  0  0
 13 17  1  0  0  0  0
 17 21  1  0  0  0  0
 19 21  2  0  0  0  0
 20 21  2  0  0  0  0
  1 23  1  0  0  0  0
  2 24  1  0  0  0  0
  7 25  1  0  0  0  0
  7 26  1  0  0  0  0
  8 27  1  0  0  0  0
  8 28  1  0  0  0  0
  9 29  1  0  0  0  0
  9 30  1  0  0  0  0
 10 31  1  0  0  0  0
 11 32  1  0  0  0  0
 11 33  1  0  0  0  0
 11 34  1  0  0  0  0
 12 35  1  0  0  0  0
 12 36  1  0  0  0  0
 12 37  1  0  0  0  0
 13 38  1  0  0  0  0
 13 39  1  0  0  0  0
M  END
> <idnumber>
Z2732435889

> <heavy_atoms>
22

> <LogS>
-3.257

> <LogP>
0.614

> <rotating_bonds>
2

> <PSA>
73.82

> <hb_acceptors>
5

> <hb_donors>
0

> <Collection>
HTS

> <link>
https://www.enaminestore.com/catalog/Z2732435889

> <ROCS_ShapeQuery>
x0446_0A_x1080_0A_x0929_0A_x0812_0A_x0719_0A_x1140_0A_x0528_0A_x0310_0A

> <ROCS_TanimotoCombo>
0.458 

> <ROCS_ShapeTanimoto>
0.252 

> <ROCS_ColorTanimoto>
0.207 

> <ROCS_RefTversky>
0.227 

> <ROCS_RefColorTversky>
0.230 

> <ROCS_RefTverskyCombo>
0.457 

> <ROCS_FitTversky>
1.734 

> <ROCS_FitColorTversky>
0.675 

> <ROCS_FitTverskyCombo>
2.409 

> <ROCS_ColorScore>
-8.236

> <ROCS_Overlap>
2684.972

> <ROCS_Rank>
337                 

$$$$
untitled-dbase-512817_29
  -OEChem-02092406493D

 42 46  0     0  0  0  0  0  0999 V2000
   11.7680    7.5998   22.4746 C   0  0  0  0  0  0  0  0  0  0  0  0
   10.7744    8.5483   22.6899 C   0  0  0  0  0  0  0  0  0  0  0  0
   12.2191   15.0737   23.7440 C   0  0  0  0  0  0  0  0  0  0  0  0
   13.1879   15.5275   22.8489 C   0  0  0  0  0  0  0  0  0  0  0  0
   11.6700   15.1399   21.0096 C   0  0  0  0  0  0  0  0  0  0  0  0
   13.0205    7.8380   23.0172 C   0  0  0  0  0  0  0  0  0  0  0  0
   12.3437    9.8344   23.9306 C   0  0  0  0  0  0  0  0  0  0  0  0
    8.2298   12.5908   24.1166 C   0  0  0  0  0  0  0  0  0  0  0  0
   11.0596    9.6899   23.4307 C   0  0  0  0  0  0  0  0  0  0  0  0
    7.0482   13.3357   24.3363 C   0  0  0  0  0  0  0  0  0  0  0  0
   10.7012   14.6861   21.9048 C   0  0  0  0  0  0  0  0  0  0  0  0
   10.9758   14.6529   23.2719 C   0  0  0  0  0  0  0  0  0  0  0  0
   12.9133   15.5606   21.4818 C   0  0  0  0  0  0  0  0  0  0  0  0
    5.9255   12.5537   24.3326 C   0  0  0  0  0  0  0  0  0  0  0  0
    9.5852   12.9187   24.0342 C   0  0  0  0  0  0  0  0  0  0  0  0
    7.9082   11.2405   23.9545 C   0  0  0  0  0  0  0  0  0  0  0  0
   10.0512   10.6913   23.6706 C   0  0  0  0  0  0  0  0  0  0  0  0
    6.7068   14.7600   24.5758 C   0  0  0  0  0  0  0  0  0  0  0  0
    4.6678   13.3013   24.5619 C   0  0  0  0  0  0  0  0  0  0  0  0
    5.1594   14.7691   24.3673 C   0  0  0  0  0  0  0  0  0  0  0  0
   13.3351    8.9347   23.7422 N   0  0  0  0  0  0  0  0  0  0  0  0
   10.5031   11.9542   23.8084 N   0  0  0  0  0  0  0  0  0  0  0  0
    8.7840   10.2421   23.7277 N   0  0  0  0  0  0  0  0  0  0  0  0
    9.4394   14.2595   21.4066 N   0  3  0  0  0  0  0  0  0  0  0  0
    9.2878   13.0554   21.0917 O   0  5  0  0  0  0  0  0  0  0  0  0
    8.5157   15.1003   21.2967 O   0  0  0  0  0  0  0  0  0  0  0  0
   10.0349   14.2084   24.1770 O   0  0  0  0  0  0  0  0  0  0  0  0
    6.2197   10.9291   24.0733 S   0  0  0  0  0  0  0  0  0  0  0  0
   14.1088   16.1210   20.3781 Cl  0  0  0  0  0  0  0  0  0  0  0  0
   11.5690    6.7018   21.9011 H   0  0  0  0  0  0  0  0  0  0  0  0
    9.7831    8.3848   22.2745 H   0  0  0  0  0  0  0  0  0  0  0  0
   12.4395   15.0505   24.8078 H   0  0  0  0  0  0  0  0  0  0  0  0
   14.1522   15.8522   23.2307 H   0  0  0  0  0  0  0  0  0  0  0  0
   11.4566   15.1649   19.9429 H   0  0  0  0  0  0  0  0  0  0  0  0
   13.8301    7.1288   22.8774 H   0  0  0  0  0  0  0  0  0  0  0  0
   12.6303   10.7022   24.5177 H   0  0  0  0  0  0  0  0  0  0  0  0
    6.9563   15.0457   25.6031 H   0  0  0  0  0  0  0  0  0  0  0  0
    7.2034   15.4397   23.8781 H   0  0  0  0  0  0  0  0  0  0  0  0
    3.8773   13.0503   23.8495 H   0  0  0  0  0  0  0  0  0  0  0  0
    4.3053   13.1503   25.5839 H   0  0  0  0  0  0  0  0  0  0  0  0
    4.6529   15.4695   25.0385 H   0  0  0  0  0  0  0  0  0  0  0  0
    4.9412   15.0833   23.3378 H   0  0  0  0  0  0  0  0  0  0  0  0
  1  2  2  0  0  0  0
  1  6  1  0  0  0  0
  2  9  1  0  0  0  0
  3  4  2  0  0  0  0
  3 12  1  0  0  0  0
  4 13  1  0  0  0  0
  5 11  1  0  0  0  0
  5 13  2  0  0  0  0
  6 21  2  0  0  0  0
  7  9  2  0  0  0  0
  7 21  1  0  0  0  0
  8 10  1  0  0  0  0
  8 15  2  0  0  0  0
  8 16  1  0  0  0  0
  9 17  1  0  0  0  0
 10 14  2  0  0  0  0
 10 18  1  0  0  0  0
 11 12  2  0  0  0  0
 11 24  1  0  0  0  0
 12 27  1  0  0  0  0
 13 29  1  0  0  0  0
 14 19  1  0  0  0  0
 14 28  1  0  0  0  0
 15 22  1  0  0  0  0
 15 27  1  0  0  0  0
 16 23  2  0  0  0  0
 16 28  1  0  0  0  0
 17 22  2  0  0  0  0
 17 23  1  0  0  0  0
 18 20  1  0  0  0  0
 19 20  1  0  0  0  0
 24 25  1  0  0  0  0
 24 26  2  0  0  0  0
  1 30  1  0  0  0  0
  2 31  1  0  0  0  0
  3 32  1  0  0  0  0
  4 33  1  0  0  0  0
  5 34  1  0  0  0  0
  6 35  1  0  0  0  0
  7 36  1  0  0  0  0
 18 37  1  0  0  0  0
 18 38  1  0  0  0  0
 19 39  1  0  0  0  0
 19 40  1  0  0  0  0
 20 41  1  0  0  0  0
 20 42  1  0  0  0  0
M  CHG  2  24   1  25  -1
M  END
> <idnumber>
Z86346310

> <heavy_atoms>
29

> <LogS>
-7.911

> <LogP>
4.864

> <rotating_bonds>
4

> <PSA>
91.04

> <hb_acceptors>
5

> <hb_donors>
0

> <Collection>
Legacy

> <link>
https://www.enaminestore.com/catalog/Z86346310

> <ROCS_ShapeQuery>
x0446_0A_x1080_0A_x0929_0A_x0812_0A_x0719_0A_x1140_0A_x0528_0A_x0310_0A

> <ROCS_TanimotoCombo>
0.458 

> <ROCS_ShapeTanimoto>
0.274 

> <ROCS_ColorTanimoto>
0.184 

> <ROCS_RefTversky>
0.250 

> <ROCS_RefColorTversky>
0.209 

> <ROCS_RefTverskyCombo>
0.459 

> <ROCS_FitTversky>
1.550 

> <ROCS_FitColorTversky>
0.606 

> <ROCS_FitTverskyCombo>
2.156 

> <ROCS_ColorScore>
-7.502

> <ROCS_Overlap>
2956.504

> <ROCS_Rank>
338                 

$$$$
untitled-dbase-532555_151
  -OEChem-02092406493D

 45 48  0     0  0  0  0  0  0999 V2000
   14.8704   17.1714   20.9285 C   0  0  0  0  0  0  0  0  0  0  0  0
   14.6877   16.0096   21.6784 C   0  0  0  0  0  0  0  0  0  0  0  0
   13.7770   17.7881   20.3202 C   0  0  0  0  0  0  0  0  0  0  0  0
    6.3739   11.0022   24.5892 C   0  0  0  0  0  0  0  0  0  0  0  0
   13.4117   15.4643   21.8199 C   0  0  0  0  0  0  0  0  0  0  0  0
   12.5009   17.2428   20.4618 C   0  0  0  0  0  0  0  0  0  0  0  0
    5.5489   11.9799   25.1434 C   0  0  0  0  0  0  0  0  0  0  0  0
    7.3632   13.5703   25.0361 C   0  0  0  0  0  0  0  0  0  0  0  0
    7.6975   11.3158   24.2592 C   0  0  0  0  0  0  0  0  0  0  0  0
    8.2027   12.5986   24.4792 C   0  0  0  0  0  0  0  0  0  0  0  0
   12.3183   16.0809   21.2116 C   0  0  0  0  0  0  0  0  0  0  0  0
    6.0425   13.2632   25.3665 C   0  0  0  0  0  0  0  0  0  0  0  0
   10.7000   14.2350   21.5206 C   0  0  0  0  0  0  0  0  0  0  0  0
    8.5860   10.2940   23.6664 C   0  0  0  0  0  0  0  0  0  0  0  0
   10.2904   12.0391   23.6441 C   0  0  0  0  0  0  0  0  0  0  0  0
   10.2096    9.2873   21.4207 C   0  0  0  0  0  0  0  0  0  0  0  0
   10.9923    8.5942   23.7126 C   0  0  0  0  0  0  0  0  0  0  0  0
   11.6854   13.1008   21.5868 C   0  0  0  0  0  0  0  0  0  0  0  0
   10.7945    9.7529   22.7463 C   0  0  0  0  0  0  0  0  0  0  0  0
    9.3922   14.1612   21.6125 N   0  0  0  0  0  0  0  0  0  0  0  0
    8.9382   15.4556   21.4966 N   0  0  0  0  0  0  0  0  0  0  0  0
    9.9478   16.3028   21.3380 N   0  0  0  0  0  0  0  0  0  0  0  0
    9.5232   12.9427   24.1668 N   0  0  0  0  0  0  0  0  0  0  0  0
   11.0479   15.5374   21.3532 N   0  0  0  0  0  0  0  0  0  0  0  0
    9.8866   10.7288   23.3551 N   0  0  0  0  0  0  0  0  0  0  0  0
    8.1513    9.1597   23.4851 O   0  0  0  0  0  0  0  0  0  0  0  0
   11.9400   12.5185   23.2742 S   0  0  0  0  0  0  0  0  0  0  0  0
    5.0241   14.4697   26.0515 Cl  0  0  0  0  0  0  0  0  0  0  0  0
   15.8634   17.5974   20.8194 H   0  0  0  0  0  0  0  0  0  0  0  0
   15.5387   15.5301   22.1532 H   0  0  0  0  0  0  0  0  0  0  0  0
   13.9199   18.6937   19.7376 H   0  0  0  0  0  0  0  0  0  0  0  0
    5.9696   10.0077   24.4222 H   0  0  0  0  0  0  0  0  0  0  0  0
   13.2830   14.5587   22.4078 H   0  0  0  0  0  0  0  0  0  0  0  0
   11.6573   17.7341   19.9830 H   0  0  0  0  0  0  0  0  0  0  0  0
    4.5226   11.7263   25.3962 H   0  0  0  0  0  0  0  0  0  0  0  0
    7.7495   14.5725   25.2122 H   0  0  0  0  0  0  0  0  0  0  0  0
    9.2473    8.7878   21.5731 H   0  0  0  0  0  0  0  0  0  0  0  0
   10.0531   10.1279   20.7353 H   0  0  0  0  0  0  0  0  0  0  0  0
   10.8840    8.5802   20.9254 H   0  0  0  0  0  0  0  0  0  0  0  0
   10.0429    8.0823   23.9045 H   0  0  0  0  0  0  0  0  0  0  0  0
   11.3860    8.9485   24.6709 H   0  0  0  0  0  0  0  0  0  0  0  0
   11.6908    7.8519   23.3102 H   0  0  0  0  0  0  0  0  0  0  0  0
   11.3407   12.2624   20.9713 H   0  0  0  0  0  0  0  0  0  0  0  0
   12.6501   13.4156   21.1737 H   0  0  0  0  0  0  0  0  0  0  0  0
   11.7552   10.2487   22.5697 H   0  0  0  0  0  0  0  0  0  0  0  0
  1  2  1  0  0  0  0
  1  3  2  0  0  0  0
  2  5  2  0  0  0  0
  3  6  1  0  0  0  0
  4  7  2  0  0  0  0
  4  9  1  0  0  0  0
  5 11  1  0  0  0  0
  6 11  2  0  0  0  0
  7 12  1  0  0  0  0
  8 10  1  0  0  0  0
  8 12  2  0  0  0  0
  9 10  2  0  0  0  0
  9 14  1  0  0  0  0
 10 23  1  0  0  0  0
 11 24  1  0  0  0  0
 12 28  1  0  0  0  0
 13 18  1  0  0  0  0
 13 20  2  0  0  0  0
 13 24  1  0  0  0  0
 14 25  1  0  0  0  0
 14 26  2  0  0  0  0
 15 23  2  0  0  0  0
 15 25  1  0  0  0  0
 15 27  1  0  0  0  0
 16 19  1  0  0  0  0
 17 19  1  0  0  0  0
 18 27  1  0  0  0  0
 19 25  1  0  0  0  0
 20 21  1  0  0  0  0
 21 22  2  0  0  0  0
 22 24  1  0  0  0  0
  1 29  1  0  0  0  0
  2 30  1  0  0  0  0
  3 31  1  0  0  0  0
  4 32  1  0  0  0  0
  5 33  1  0  0  0  0
  6 34  1  0  0  0  0
  7 35  1  0  0  0  0
  8 36  1  0  0  0  0
 16 37  1  0  0  0  0
 16 38  1  0  0  0  0
 16 39  1  0  0  0  0
 17 40  1  0  0  0  0
 17 41  1  0  0  0  0
 17 42  1  0  0  0  0
 18 43  1  0  0  0  0
 18 44  1  0  0  0  0
 19 45  1  0  0  0  0
M  END
> <idnumber>
Z92121650

> <heavy_atoms>
28

> <LogS>
-5.902

> <LogP>
3.569

> <rotating_bonds>
5

> <PSA>
76.27

> <hb_acceptors>
5

> <hb_donors>
0

> <Collection>
HTS

> <link>
https://www.enaminestore.com/catalog/Z92121650

> <ROCS_ShapeQuery>
x0446_0A_x1080_0A_x0929_0A_x0812_0A_x0719_0A_x1140_0A_x0528_0A_x0310_0A

> <ROCS_TanimotoCombo>
0.458 

> <ROCS_ShapeTanimoto>
0.275 

> <ROCS_ColorTanimoto>
0.183 

> <ROCS_RefTversky>
0.249 

> <ROCS_RefColorTversky>
0.207 

> <ROCS_RefTverskyCombo>
0.456 

> <ROCS_FitTversky>
1.607 

> <ROCS_FitColorTversky>
0.618 

> <ROCS_FitTverskyCombo>
2.225 

> <ROCS_ColorScore>
-7.407

> <ROCS_Overlap>
2946.761

> <ROCS_Rank>
339                 

$$$$
untitled-dbase-152135_28
  -OEChem-02092406493D

 43 46  0     0  0  0  0  0  0999 V2000
    8.2733   16.2471   20.7437 C   0  0  0  0  0  0  0  0  0  0  0  0
    9.6131   11.8667   23.8882 C   0  0  0  0  0  0  0  0  0  0  0  0
    8.2404   12.1496   24.1811 C   0  0  0  0  0  0  0  0  0  0  0  0
    7.4706   11.0032   24.1022 C   0  0  0  0  0  0  0  0  0  0  0  0
    7.6890   15.1699   20.1109 C   0  0  0  0  0  0  0  0  0  0  0  0
    9.8189   10.5320   23.5804 C   0  0  0  0  0  0  0  0  0  0  0  0
    9.8943   14.7929   21.0037 C   0  0  0  0  0  0  0  0  0  0  0  0
   12.0070   10.7547   23.2416 C   0  0  0  0  0  0  0  0  0  0  0  0
   10.7605   12.7686   23.8793 C   0  0  0  0  0  0  0  0  0  0  0  0
   12.1558   14.7391   22.0345 C   0  0  0  0  0  0  0  0  0  0  0  0
    7.6447   13.4723   24.5658 C   0  0  0  0  0  0  0  0  0  0  0  0
    5.9940   10.9359   24.3396 C   0  0  0  0  0  0  0  0  0  0  0  0
    6.1110   13.4672   24.4702 C   0  0  0  0  0  0  0  0  0  0  0  0
    5.5085   12.1930   25.0757 C   0  0  0  0  0  0  0  0  0  0  0  0
    6.3673   15.0569   19.4646 C   0  0  0  0  0  0  0  0  0  0  0  0
   13.2859   13.7284   22.2026 C   0  0  0  0  0  0  0  0  0  0  0  0
   13.1836   12.9045   23.4793 C   0  0  0  0  0  0  0  0  0  0  0  0
    9.5377   16.0327   21.2566 N   0  0  0  0  0  0  0  0  0  0  0  0
   10.9980    9.9387   23.2513 N   0  0  0  0  0  0  0  0  0  0  0  0
   11.9605   12.1189   23.5308 N   0  0  0  0  0  0  0  0  0  0  0  0
   11.0926   14.1613   21.3465 N   0  0  0  0  0  0  0  0  0  0  0  0
   10.6643   13.9611   24.1540 O   0  0  0  0  0  0  0  0  0  0  0  0
   12.2424   15.8853   22.4614 O   0  0  0  0  0  0  0  0  0  0  0  0
    8.3703    9.6302   23.6583 S   0  0  0  0  0  0  0  0  0  0  0  0
    8.7578   13.8293   20.1523 S   0  0  0  0  0  0  0  0  0  0  0  0
    7.8167   17.2207   20.8639 H   0  0  0  0  0  0  0  0  0  0  0  0
   13.0112   10.3818   22.9871 H   0  0  0  0  0  0  0  0  0  0  0  0
    7.9346   13.7403   25.5877 H   0  0  0  0  0  0  0  0  0  0  0  0
    8.0470   14.2422   23.8957 H   0  0  0  0  0  0  0  0  0  0  0  0
    5.4466   10.8338   23.3957 H   0  0  0  0  0  0  0  0  0  0  0  0
    5.7727   10.0507   24.9487 H   0  0  0  0  0  0  0  0  0  0  0  0
    5.7079   14.3403   24.9994 H   0  0  0  0  0  0  0  0  0  0  0  0
    5.8103   13.5627   23.4208 H   0  0  0  0  0  0  0  0  0  0  0  0
    4.4139   12.2525   25.0211 H   0  0  0  0  0  0  0  0  0  0  0  0
    5.7728   12.1203   26.1366 H   0  0  0  0  0  0  0  0  0  0  0  0
    6.4219   15.3281   18.3974 H   0  0  0  0  0  0  0  0  0  0  0  0
    5.9607   14.0330   19.5294 H   0  0  0  0  0  0  0  0  0  0  0  0
    5.6169   15.7128   19.9388 H   0  0  0  0  0  0  0  0  0  0  0  0
   14.2277   14.2903   22.2168 H   0  0  0  0  0  0  0  0  0  0  0  0
   13.2994   13.0690   21.3262 H   0  0  0  0  0  0  0  0  0  0  0  0
   13.2072   13.5401   24.3703 H   0  0  0  0  0  0  0  0  0  0  0  0
   14.0171   12.1978   23.5388 H   0  0  0  0  0  0  0  0  0  0  0  0
   11.1979   13.1886   21.0671 H   0  0  0  0  0  0  0  0  0  0  0  0
  1  5  2  0  0  0  0
  1 18  1  0  0  0  0
  2  3  1  0  0  0  0
  2  6  2  0  0  0  0
  2  9  1  0  0  0  0
  3  4  2  0  0  0  0
  3 11  1  0  0  0  0
  4 12  1  0  0  0  0
  4 24  1  0  0  0  0
  5 15  1  0  0  0  0
  5 25  1  0  0  0  0
  6 19  1  0  0  0  0
  6 24  1  0  0  0  0
  7 18  2  0  0  0  0
  7 21  1  0  0  0  0
  7 25  1  0  0  0  0
  8 19  2  0  0  0  0
  8 20  1  0  0  0  0
  9 20  1  0  0  0  0
  9 22  2  0  0  0  0
 10 16  1  0  0  0  0
 10 21  1  0  0  0  0
 10 23  2  0  0  0  0
 11 13  1  0  0  0  0
 12 14  1  0  0  0  0
 13 14  1  0  0  0  0
 16 17  1  0  0  0  0
 17 20  1  0  0  0  0
  1 26  1  0  0  0  0
  8 27  1  0  0  0  0
 11 28  1  0  0  0  0
 11 29  1  0  0  0  0
 12 30  1  0  0  0  0
 12 31  1  0  0  0  0
 13 32  1  0  0  0  0
 13 33  1  0  0  0  0
 14 34  1  0  0  0  0
 14 35  1  0  0  0  0
 15 36  1  0  0  0  0
 15 37  1  0  0  0  0
 15 38  1  0  0  0  0
 16 39  1  0  0  0  0
 16 40  1  0  0  0  0
 17 41  1  0  0  0  0
 17 42  1  0  0  0  0
 21 43  1  0  0  0  0
M  END
> <idnumber>
Z166861020

> <heavy_atoms>
25

> <LogS>
-5.551

> <LogP>
3.097

> <rotating_bonds>
4

> <PSA>
74.66

> <hb_acceptors>
4

> <hb_donors>
1

> <Collection>
Legacy

> <link>
https://www.enaminestore.com/catalog/Z166861020

> <ROCS_ShapeQuery>
x0446_0A_x1080_0A_x0929_0A_x0812_0A_x0719_0A_x1140_0A_x0528_0A_x0310_0A

> <ROCS_TanimotoCombo>
0.458 

> <ROCS_ShapeTanimoto>
0.257 

> <ROCS_ColorTanimoto>
0.201 

> <ROCS_RefTversky>
0.234 

> <ROCS_RefColorTversky>
0.216 

> <ROCS_RefTverskyCombo>
0.450 

> <ROCS_FitTversky>
1.646 

> <ROCS_FitColorTversky>
0.741 

> <ROCS_FitTverskyCombo>
2.386 

> <ROCS_ColorScore>
-7.728

> <ROCS_Overlap>
2762.772

> <ROCS_Rank>
340                 

$$$$
untitled-dbase-1070925_186
  -OEChem-02092406493D

 52 54  0     1  0  0  0  0  0999 V2000
   11.7880   16.3361   21.2803 C   0  0  0  0  0  0  0  0  0  0  0  0
    7.9828   12.1749   24.2597 C   0  0  0  0  0  0  0  0  0  0  0  0
    9.1872   12.0158   23.6242 C   0  0  0  0  0  0  0  0  0  0  0  0
    7.5415   10.8622   24.5324 C   0  0  0  0  0  0  0  0  0  0  0  0
   11.3049   17.6174   21.4512 C   0  0  0  0  0  0  0  0  0  0  0  0
   10.8358   15.3377   21.2533 C   0  0  0  0  0  0  0  0  0  0  0  0
    9.1662   16.8528   21.5429 C   0  0  0  0  0  0  0  0  0  0  0  0
   10.0758   13.0108   23.1131 C   0  0  0  0  0  0  0  0  0  0  0  0
    7.1861   13.3635   24.6410 C   0  0  0  0  0  0  0  0  0  0  0  0
    6.2669   10.5905   25.2559 C   0  0  2  0  0  0  0  0  0  0  0  0
    6.1700   12.9593   25.7348 C   0  0  1  0  0  0  0  0  0  0  0  0
   12.2592   18.7634   21.4935 C   0  0  0  0  0  0  0  0  0  0  0  0
    5.4211    9.5109   24.5926 C   0  0  0  0  0  0  0  0  0  0  0  0
    5.1590   14.0716   25.9744 C   0  0  0  0  0  0  0  0  0  0  0  0
   10.5323    9.9889   22.9909 C   0  0  0  0  0  0  0  0  0  0  0  0
    7.3234   18.4852   21.8583 C   0  0  0  0  0  0  0  0  0  0  0  0
    6.8204   16.0471   21.6325 C   0  0  0  0  0  0  0  0  0  0  0  0
   11.2651   13.9105   21.0715 C   0  0  0  0  0  0  0  0  0  0  0  0
    8.4084    9.9326   24.1251 N   0  0  0  0  0  0  0  0  0  0  0  0
    9.9955   17.9130   21.5863 N   0  0  0  0  0  0  0  0  0  0  0  0
    9.5115   15.5611   21.3822 N   0  0  0  0  0  0  0  0  0  0  0  0
    9.3930   10.6651   23.5673 N   0  0  0  0  0  0  0  0  0  0  0  0
   10.3702   12.9882   21.7327 N   0  0  0  0  0  0  0  0  0  0  0  0
    7.7876   17.1245   21.6809 N   0  0  0  0  0  0  0  0  0  0  0  0
   10.6008   13.8712   23.8644 O   0  0  0  0  0  0  0  0  0  0  0  0
    5.4409   11.7814   25.3289 O   0  0  0  0  0  0  0  0  0  0  0  0
   12.8456   16.1277   21.1742 H   0  0  0  0  0  0  0  0  0  0  0  0
    7.8288   14.1738   25.0014 H   0  0  0  0  0  0  0  0  0  0  0  0
    6.6556   13.7192   23.7490 H   0  0  0  0  0  0  0  0  0  0  0  0
    6.4936   10.2866   26.2853 H   0  0  0  0  0  0  0  0  0  0  0  0
    6.6863   12.7400   26.6786 H   0  0  0  0  0  0  0  0  0  0  0  0
   12.4218   19.1617   20.4847 H   0  0  0  0  0  0  0  0  0  0  0  0
   11.8811   19.5729   22.1309 H   0  0  0  0  0  0  0  0  0  0  0  0
   13.2288   18.4587   21.9082 H   0  0  0  0  0  0  0  0  0  0  0  0
    5.1868    9.7980   23.5674 H   0  0  0  0  0  0  0  0  0  0  0  0
    4.4902    9.3755   25.1433 H   0  0  0  0  0  0  0  0  0  0  0  0
    5.9651    8.5663   24.5797 H   0  0  0  0  0  0  0  0  0  0  0  0
    4.6335   14.3060   25.0480 H   0  0  0  0  0  0  0  0  0  0  0  0
    5.6670   14.9694   26.3283 H   0  0  0  0  0  0  0  0  0  0  0  0
    4.4304   13.7602   26.7239 H   0  0  0  0  0  0  0  0  0  0  0  0
   11.2840    9.8663   23.7751 H   0  0  0  0  0  0  0  0  0  0  0  0
   10.2203    9.0145   22.6047 H   0  0  0  0  0  0  0  0  0  0  0  0
   10.9308   10.5893   22.1683 H   0  0  0  0  0  0  0  0  0  0  0  0
    6.2269   18.4906   21.9462 H   0  0  0  0  0  0  0  0  0  0  0  0
    7.7665   18.9074   22.7723 H   0  0  0  0  0  0  0  0  0  0  0  0
    7.6246   19.0913   20.9911 H   0  0  0  0  0  0  0  0  0  0  0  0
    5.8074   16.4571   21.7579 H   0  0  0  0  0  0  0  0  0  0  0  0
    6.8908   15.5346   20.6617 H   0  0  0  0  0  0  0  0  0  0  0  0
    7.0286   15.3310   22.4411 H   0  0  0  0  0  0  0  0  0  0  0  0
   11.2943   13.6485   20.0083 H   0  0  0  0  0  0  0  0  0  0  0  0
   12.2705   13.7483   21.4742 H   0  0  0  0  0  0  0  0  0  0  0  0
    9.9783   12.2410   21.1689 H   0  0  0  0  0  0  0  0  0  0  0  0
  1  5  2  0  0  0  0
  1  6  1  0  0  0  0
  2  3  2  0  0  0  0
  2  4  1  0  0  0  0
  2  9  1  0  0  0  0
  3  8  1  0  0  0  0
  3 22  1  0  0  0  0
  4 10  1  0  0  0  0
  4 19  2  0  0  0  0
  5 12  1  0  0  0  0
  5 20  1  0  0  0  0
  6 18  1  0  0  0  0
  6 21  2  0  0  0  0
  7 20  2  0  0  0  0
  7 21  1  0  0  0  0
  7 24  1  0  0  0  0
  8 23  1  0  0  0  0
  8 25  2  0  0  0  0
  9 11  1  0  0  0  0
 10 13  1  6  0  0  0
 10 26  1  0  0  0  0
 11 14  1  6  0  0  0
 11 26  1  0  0  0  0
 15 22  1  0  0  0  0
 16 24  1  0  0  0  0
 17 24  1  0  0  0  0
 18 23  1  0  0  0  0
 19 22  1  0  0  0  0
  1 27  1  0  0  0  0
  9 28  1  0  0  0  0
  9 29  1  0  0  0  0
 10 30  1  0  0  0  0
 11 31  1  0  0  0  0
 12 32  1  0  0  0  0
 12 33  1  0  0  0  0
 12 34  1  0  0  0  0
 13 35  1  0  0  0  0
 13 36  1  0  0  0  0
 13 37  1  0  0  0  0
 14 38  1  0  0  0  0
 14 39  1  0  0  0  0
 14 40  1  0  0  0  0
 15 41  1  0  0  0  0
 15 42  1  0  0  0  0
 15 43  1  0  0  0  0
 16 44  1  0  0  0  0
 16 45  1  0  0  0  0
 16 46  1  0  0  0  0
 17 47  1  0  0  0  0
 17 48  1  0  0  0  0
 17 49  1  0  0  0  0
 18 50  1  0  0  0  0
 18 51  1  0  0  0  0
 23 52  1  0  0  0  0
M  END
> <idnumber>
Z4107123203

> <heavy_atoms>
26

> <LogS>
-2.14

> <LogP>
0.6

> <rotating_bonds>
4

> <PSA>
85.17

> <hb_acceptors>
6

> <hb_donors>
1

> <Collection>
HTS

> <link>
https://www.enaminestore.com/catalog/Z4107123203

> <ROCS_ShapeQuery>
x0446_0A_x1080_0A_x0929_0A_x0812_0A_x0719_0A_x1140_0A_x0528_0A_x0310_0A

> <ROCS_TanimotoCombo>
0.458 

> <ROCS_ShapeTanimoto>
0.252 

> <ROCS_ColorTanimoto>
0.207 

> <ROCS_RefTversky>
0.231 

> <ROCS_RefColorTversky>
0.221 

> <ROCS_RefTverskyCombo>
0.452 

> <ROCS_FitTversky>
1.566 

> <ROCS_FitColorTversky>
0.758 

> <ROCS_FitTverskyCombo>
2.324 

> <ROCS_ColorScore>
-7.913

> <ROCS_Overlap>
2726.275

> <ROCS_Rank>
341                 

$$$$
untitled-dbase-362978_3
  -OEChem-02092406493D

 49 52  0     0  0  0  0  0  0999 V2000
    6.4150   14.1051   21.1743 C   0  0  0  0  0  0  0  0  0  0  0  0
    6.3959   15.4916   21.2776 C   0  0  0  0  0  0  0  0  0  0  0  0
   12.3977   15.3705   21.2219 C   0  0  0  0  0  0  0  0  0  0  0  0
   13.6215   16.0300   21.1085 C   0  0  0  0  0  0  0  0  0  0  0  0
    7.6316   13.4332   21.1343 C   0  0  0  0  0  0  0  0  0  0  0  0
   10.1130   10.9329   23.2876 C   0  0  0  0  0  0  0  0  0  0  0  0
   14.4391   14.8466   23.0497 C   0  0  0  0  0  0  0  0  0  0  0  0
    7.6113   16.1543   21.3371 C   0  0  0  0  0  0  0  0  0  0  0  0
    8.3146   12.1981   24.2150 C   0  0  0  0  0  0  0  0  0  0  0  0
    9.6236   12.1662   23.7182 C   0  0  0  0  0  0  0  0  0  0  0  0
   12.1945   14.4492   22.2493 C   0  0  0  0  0  0  0  0  0  0  0  0
   14.6422   15.7681   22.0224 C   0  0  0  0  0  0  0  0  0  0  0  0
   13.2152   14.1872   23.1632 C   0  0  0  0  0  0  0  0  0  0  0  0
    8.7917   14.1880   21.2001 C   0  0  0  0  0  0  0  0  0  0  0  0
    9.2892    9.8154   23.3723 C   0  0  0  0  0  0  0  0  0  0  0  0
    7.4180   13.1491   24.7416 C   0  0  0  0  0  0  0  0  0  0  0  0
    7.6017   11.0097   24.2439 C   0  0  0  0  0  0  0  0  0  0  0  0
   10.4482   13.3580   23.6485 C   0  0  0  0  0  0  0  0  0  0  0  0
    9.8284    8.5000   22.9079 C   0  0  0  0  0  0  0  0  0  0  0  0
    7.6411   14.5917   24.9452 C   0  0  0  0  0  0  0  0  0  0  0  0
    5.2819   10.4074   24.9926 C   0  0  0  0  0  0  0  0  0  0  0  0
   10.1233   13.4957   21.1593 C   0  0  0  0  0  0  0  0  0  0  0  0
    8.8130   15.5360   21.3009 N   0  0  0  0  0  0  0  0  0  0  0  0
    8.0191    9.7958   23.8442 N   0  0  0  0  0  0  0  0  0  0  0  0
    6.2377   12.6182   25.0774 N   0  0  0  0  0  0  0  0  0  0  0  0
    6.3791   11.3175   24.7637 N   0  0  0  0  0  0  0  0  0  0  0  0
   10.9211   13.7656   22.3650 N   0  0  0  0  0  0  0  0  0  0  0  0
   10.7388   13.9820   24.6804 O   0  0  0  0  0  0  0  0  0  0  0  0
   15.8178   16.4009   21.9126 F   0  0  0  0  0  0  0  0  0  0  0  0
   13.0305   13.3048   24.1556 F   0  0  0  0  0  0  0  0  0  0  0  0
    5.4834   13.5494   21.1252 H   0  0  0  0  0  0  0  0  0  0  0  0
    5.4593   16.0362   21.3105 H   0  0  0  0  0  0  0  0  0  0  0  0
   11.6092   15.5834   20.5045 H   0  0  0  0  0  0  0  0  0  0  0  0
   13.7796   16.7481   20.3092 H   0  0  0  0  0  0  0  0  0  0  0  0
    7.6602   12.3519   21.0539 H   0  0  0  0  0  0  0  0  0  0  0  0
   11.1218   10.8477   22.8933 H   0  0  0  0  0  0  0  0  0  0  0  0
   15.2342   14.6420   23.7604 H   0  0  0  0  0  0  0  0  0  0  0  0
    7.6508   17.2355   21.4182 H   0  0  0  0  0  0  0  0  0  0  0  0
   10.3184    7.9786   23.7373 H   0  0  0  0  0  0  0  0  0  0  0  0
    9.0278    7.8620   22.5157 H   0  0  0  0  0  0  0  0  0  0  0  0
   10.5560    8.6356   22.0991 H   0  0  0  0  0  0  0  0  0  0  0  0
    7.3459   15.1713   24.0542 H   0  0  0  0  0  0  0  0  0  0  0  0
    7.0676   14.9843   25.8032 H   0  0  0  0  0  0  0  0  0  0  0  0
    8.6999   14.8229   25.1575 H   0  0  0  0  0  0  0  0  0  0  0  0
    5.3842   10.0031   26.0031 H   0  0  0  0  0  0  0  0  0  0  0  0
    4.3352   10.9451   24.8900 H   0  0  0  0  0  0  0  0  0  0  0  0
    5.3190    9.6032   24.2524 H   0  0  0  0  0  0  0  0  0  0  0  0
    9.9923   12.4112   21.0773 H   0  0  0  0  0  0  0  0  0  0  0  0
   10.7080   13.8192   20.2917 H   0  0  0  0  0  0  0  0  0  0  0  0
  1  2  1  0  0  0  0
  1  5  2  0  0  0  0
  2  8  2  0  0  0  0
  3  4  2  0  0  0  0
  3 11  1  0  0  0  0
  4 12  1  0  0  0  0
  5 14  1  0  0  0  0
  6 10  2  0  0  0  0
  6 15  1  0  0  0  0
  7 12  2  0  0  0  0
  7 13  1  0  0  0  0
  8 23  1  0  0  0  0
  9 10  1  0  0  0  0
  9 16  1  0  0  0  0
  9 17  2  0  0  0  0
 10 18  1  0  0  0  0
 11 13  2  0  0  0  0
 11 27  1  0  0  0  0
 12 29  1  0  0  0  0
 13 30  1  0  0  0  0
 14 22  1  0  0  0  0
 14 23  2  0  0  0  0
 15 19  1  0  0  0  0
 15 24  2  0  0  0  0
 16 20  1  0  0  0  0
 16 25  2  0  0  0  0
 17 24  1  0  0  0  0
 17 26  1  0  0  0  0
 18 27  1  0  0  0  0
 18 28  2  0  0  0  0
 21 26  1  0  0  0  0
 22 27  1  0  0  0  0
 25 26  1  0  0  0  0
  1 31  1  0  0  0  0
  2 32  1  0  0  0  0
  3 33  1  0  0  0  0
  4 34  1  0  0  0  0
  5 35  1  0  0  0  0
  6 36  1  0  0  0  0
  7 37  1  0  0  0  0
  8 38  1  0  0  0  0
 19 39  1  0  0  0  0
 19 40  1  0  0  0  0
 19 41  1  0  0  0  0
 20 42  1  0  0  0  0
 20 43  1  0  0  0  0
 20 44  1  0  0  0  0
 21 45  1  0  0  0  0
 21 46  1  0  0  0  0
 21 47  1  0  0  0  0
 22 48  1  0  0  0  0
 22 49  1  0  0  0  0
M  END
> <idnumber>
Z739042472

> <heavy_atoms>
30

> <LogS>
-4.86

> <LogP>
3.135

> <rotating_bonds>
4

> <PSA>
63.91

> <hb_acceptors>
4

> <hb_donors>
0

> <Collection>
HTS

> <link>
https://www.enaminestore.com/catalog/Z739042472

> <ROCS_ShapeQuery>
x0446_0A_x1080_0A_x0929_0A_x0812_0A_x0719_0A_x1140_0A_x0528_0A_x0310_0A

> <ROCS_TanimotoCombo>
0.458 

> <ROCS_ShapeTanimoto>
0.298 

> <ROCS_ColorTanimoto>
0.160 

> <ROCS_RefTversky>
0.268 

> <ROCS_RefColorTversky>
0.174 

> <ROCS_RefTverskyCombo>
0.442 

> <ROCS_FitTversky>
1.618 

> <ROCS_FitColorTversky>
0.657 

> <ROCS_FitTverskyCombo>
2.275 

> <ROCS_ColorScore>
-6.228

> <ROCS_Overlap>
3169.549

> <ROCS_Rank>
342                 

$$$$
untitled-dbase-637590_73
  -OEChem-02092406493D

 42 45  0     0  0  0  0  0  0999 V2000
   13.4527   15.5586   21.2126 C   0  0  0  0  0  0  0  0  0  0  0  0
   13.7595   15.6906   22.5636 C   0  0  0  0  0  0  0  0  0  0  0  0
   12.1469   15.2656   20.8181 C   0  0  0  0  0  0  0  0  0  0  0  0
   12.7616   15.5301   23.5254 C   0  0  0  0  0  0  0  0  0  0  0  0
    9.8103   14.8056   21.3936 C   0  0  0  0  0  0  0  0  0  0  0  0
   10.4250   15.0700   24.1009 C   0  0  0  0  0  0  0  0  0  0  0  0
   11.1300   15.1007   21.7726 C   0  0  0  0  0  0  0  0  0  0  0  0
   11.4419   15.2349   23.1465 C   0  0  0  0  0  0  0  0  0  0  0  0
    8.8125   14.6450   22.3553 C   0  0  0  0  0  0  0  0  0  0  0  0
    9.1193   14.7770   23.7064 C   0  0  0  0  0  0  0  0  0  0  0  0
    9.5131   10.7912   23.6987 C   0  0  0  0  0  0  0  0  0  0  0  0
    7.5482   11.0077   24.4064 C   0  0  0  0  0  0  0  0  0  0  0  0
    6.2421   13.3495   25.1593 C   0  0  0  0  0  0  0  0  0  0  0  0
    7.5103   13.4228   24.7305 C   0  0  0  0  0  0  0  0  0  0  0  0
    5.6495   11.9777   25.1879 C   0  0  0  0  0  0  0  0  0  0  0  0
    7.4554   14.3396   21.9239 C   0  0  0  0  0  0  0  0  0  0  0  0
    4.2241   11.8810   25.6680 C   0  0  0  0  0  0  0  0  0  0  0  0
    5.2005   15.1127   21.9657 C   0  0  0  0  0  0  0  0  0  0  0  0
   10.7320   10.1489   23.1938 C   0  0  0  0  0  0  0  0  0  0  0  0
    8.3925   10.0834   23.9945 N   0  0  0  0  0  0  0  0  0  0  0  0
    9.4390   12.1046   23.8946 N   0  0  0  0  0  0  0  0  0  0  0  0
    6.2601   10.8839   24.8354 N   0  0  0  0  0  0  0  0  0  0  0  0
    8.1713   12.2566   24.3522 N   0  0  0  0  0  0  0  0  0  0  0  0
    7.1388   13.3363   21.2732 O   0  0  0  0  0  0  0  0  0  0  0  0
    8.1576   14.6231   24.6603 O   0  0  0  0  0  0  0  0  0  0  0  0
    6.5722   15.3016   22.3294 O   0  0  0  0  0  0  0  0  0  0  0  0
   10.6405    8.7839   23.0483 F   0  0  0  0  0  0  0  0  0  0  0  0
   11.1387   10.5901   21.9558 F   0  0  0  0  0  0  0  0  0  0  0  0
   11.8269   10.3362   24.0029 F   0  0  0  0  0  0  0  0  0  0  0  0
   14.2299   15.6842   20.4643 H   0  0  0  0  0  0  0  0  0  0  0  0
   14.7765   15.9184   22.8698 H   0  0  0  0  0  0  0  0  0  0  0  0
   11.9298   15.1675   19.7565 H   0  0  0  0  0  0  0  0  0  0  0  0
   13.0244   15.6381   24.5756 H   0  0  0  0  0  0  0  0  0  0  0  0
    9.5593   14.7000   20.3392 H   0  0  0  0  0  0  0  0  0  0  0  0
   10.6489   15.1700   25.1617 H   0  0  0  0  0  0  0  0  0  0  0  0
    5.6593   14.2058   25.4707 H   0  0  0  0  0  0  0  0  0  0  0  0
    3.5554   11.9818   24.8192 H   0  0  0  0  0  0  0  0  0  0  0  0
    4.0351   12.6742   26.3846 H   0  0  0  0  0  0  0  0  0  0  0  0
    4.0741   10.9178   26.1455 H   0  0  0  0  0  0  0  0  0  0  0  0
    4.6037   15.9448   22.3472 H   0  0  0  0  0  0  0  0  0  0  0  0
    4.8386   14.1695   22.3826 H   0  0  0  0  0  0  0  0  0  0  0  0
    5.1227   15.0810   20.8763 H   0  0  0  0  0  0  0  0  0  0  0  0
  1  2  1  0  0  0  0
  1  3  2  0  0  0  0
  2  4  2  0  0  0  0
  3  7  1  0  0  0  0
  4  8  1  0  0  0  0
  5  7  2  0  0  0  0
  5  9  1  0  0  0  0
  6  8  2  0  0  0  0
  6 10  1  0  0  0  0
  7  8  1  0  0  0  0
  9 10  2  0  0  0  0
  9 16  1  0  0  0  0
 10 25  1  0  0  0  0
 11 19  1  0  0  0  0
 11 20  1  0  0  0  0
 11 21  2  0  0  0  0
 12 20  2  0  0  0  0
 12 22  1  0  0  0  0
 12 23  1  0  0  0  0
 13 14  2  0  0  0  0
 13 15  1  0  0  0  0
 14 23  1  0  0  0  0
 14 25  1  0  0  0  0
 15 17  1  0  0  0  0
 15 22  2  0  0  0  0
 16 24  2  0  0  0  0
 16 26  1  0  0  0  0
 18 26  1  0  0  0  0
 19 27  1  0  0  0  0
 19 28  1  0  0  0  0
 19 29  1  0  0  0  0
 21 23  1  0  0  0  0
  1 30  1  0  0  0  0
  2 31  1  0  0  0  0
  3 32  1  0  0  0  0
  4 33  1  0  0  0  0
  5 34  1  0  0  0  0
  6 35  1  0  0  0  0
 13 36  1  0  0  0  0
 17 37  1  0  0  0  0
 17 38  1  0  0  0  0
 17 39  1  0  0  0  0
 18 40  1  0  0  0  0
 18 41  1  0  0  0  0
 18 42  1  0  0  0  0
M  END
> <idnumber>
Z354273506

> <heavy_atoms>
29

> <LogS>
-6.82

> <LogP>
3.722

> <rotating_bonds>
5

> <PSA>
78.61

> <hb_acceptors>
4

> <hb_donors>
0

> <Collection>
Legacy

> <link>
https://www.enaminestore.com/catalog/Z354273506

> <ROCS_ShapeQuery>
x0446_0A_x1080_0A_x0929_0A_x0812_0A_x0719_0A_x1140_0A_x0528_0A_x0310_0A

> <ROCS_TanimotoCombo>
0.458 

> <ROCS_ShapeTanimoto>
0.299 

> <ROCS_ColorTanimoto>
0.159 

> <ROCS_RefTversky>
0.268 

> <ROCS_RefColorTversky>
0.177 

> <ROCS_RefTverskyCombo>
0.445 

> <ROCS_FitTversky>
1.639 

> <ROCS_FitColorTversky>
0.607 

> <ROCS_FitTverskyCombo>
2.246 

> <ROCS_ColorScore>
-6.351

> <ROCS_Overlap>
3167.462

> <ROCS_Rank>
343                 

$$$$
untitled-dbase-325190_7
  -OEChem-02092406493D

 39 43  0     0  0  0  0  0  0999 V2000
   13.0822   15.9079   21.9715 C   0  0  0  0  0  0  0  0  0  0  0  0
   13.2227   14.6978   22.6578 C   0  0  0  0  0  0  0  0  0  0  0  0
    7.0546   15.7486   24.1766 C   0  0  0  0  0  0  0  0  0  0  0  0
    6.2320   14.9829   22.0379 C   0  0  0  0  0  0  0  0  0  0  0  0
   11.8298   16.3403   21.5162 C   0  0  0  0  0  0  0  0  0  0  0  0
   12.1205   13.8750   22.9151 C   0  0  0  0  0  0  0  0  0  0  0  0
    6.9406   17.0708   23.7471 C   0  0  0  0  0  0  0  0  0  0  0  0
    6.1179   16.3051   21.6084 C   0  0  0  0  0  0  0  0  0  0  0  0
    5.7482   12.7375   24.3916 C   0  0  0  0  0  0  0  0  0  0  0  0
    9.6942   10.4480   23.6832 C   0  0  0  0  0  0  0  0  0  0  0  0
    7.9431   12.4624   23.6422 C   0  0  0  0  0  0  0  0  0  0  0  0
    6.7004   14.7046   23.3219 C   0  0  0  0  0  0  0  0  0  0  0  0
    6.8186   13.3380   23.7650 C   0  0  0  0  0  0  0  0  0  0  0  0
   10.7169   15.5247   21.7676 C   0  0  0  0  0  0  0  0  0  0  0  0
   10.8875   14.3288   22.4515 C   0  0  0  0  0  0  0  0  0  0  0  0
    6.4722   17.3490   22.4630 C   0  0  0  0  0  0  0  0  0  0  0  0
    9.2194   12.6220   23.0931 C   0  0  0  0  0  0  0  0  0  0  0  0
    7.6633   11.2182   24.1924 C   0  0  0  0  0  0  0  0  0  0  0  0
    5.8748   18.8515   20.7191 C   0  0  0  0  0  0  0  0  0  0  0  0
   10.1019   11.6004   23.1162 N   0  0  0  0  0  0  0  0  0  0  0  0
    8.5038   10.1663   24.2423 N   0  0  0  0  0  0  0  0  0  0  0  0
    9.3936   15.6822   21.4503 N   0  0  0  0  0  0  0  0  0  0  0  0
    8.7311   14.6270   21.9116 N   0  0  0  0  0  0  0  0  0  0  0  0
    9.6226   13.8190   22.5090 N   0  0  0  0  0  0  0  0  0  0  0  0
    6.3605   18.6391   22.0437 O   0  0  0  0  0  0  0  0  0  0  0  0
    6.0877   11.1205   24.8343 S   0  0  0  0  0  0  0  0  0  0  0  0
   13.9589   16.5237   21.7872 H   0  0  0  0  0  0  0  0  0  0  0  0
   14.2080   14.3894   22.9992 H   0  0  0  0  0  0  0  0  0  0  0  0
    7.4212   15.5480   25.1805 H   0  0  0  0  0  0  0  0  0  0  0  0
    5.9523   14.1803   21.3595 H   0  0  0  0  0  0  0  0  0  0  0  0
   11.7302   17.2810   20.9847 H   0  0  0  0  0  0  0  0  0  0  0  0
   12.2301   12.9371   23.4470 H   0  0  0  0  0  0  0  0  0  0  0  0
    7.2178   17.8801   24.4170 H   0  0  0  0  0  0  0  0  0  0  0  0
    5.7531   16.5149   20.6066 H   0  0  0  0  0  0  0  0  0  0  0  0
    4.7789   13.1622   24.6159 H   0  0  0  0  0  0  0  0  0  0  0  0
   10.4212    9.6436   23.6895 H   0  0  0  0  0  0  0  0  0  0  0  0
    5.8348   19.9238   20.5125 H   0  0  0  0  0  0  0  0  0  0  0  0
    4.8784   18.4133   20.6207 H   0  0  0  0  0  0  0  0  0  0  0  0
    6.5535   18.3713   20.0103 H   0  0  0  0  0  0  0  0  0  0  0  0
  1  2  1  0  0  0  0
  1  5  2  0  0  0  0
  2  6  2  0  0  0  0
  3  7  2  0  0  0  0
  3 12  1  0  0  0  0
  4  8  1  0  0  0  0
  4 12  2  0  0  0  0
  5 14  1  0  0  0  0
  6 15  1  0  0  0  0
  7 16  1  0  0  0  0
  8 16  2  0  0  0  0
  9 13  2  0  0  0  0
  9 26  1  0  0  0  0
 10 20  1  0  0  0  0
 10 21  2  0  0  0  0
 11 13  1  0  0  0  0
 11 17  1  0  0  0  0
 11 18  2  0  0  0  0
 12 13  1  0  0  0  0
 14 15  2  0  0  0  0
 14 22  1  0  0  0  0
 15 24  1  0  0  0  0
 16 25  1  0  0  0  0
 17 20  2  0  0  0  0
 17 24  1  0  0  0  0
 18 21  1  0  0  0  0
 18 26  1  0  0  0  0
 19 25  1  0  0  0  0
 22 23  2  0  0  0  0
 23 24  1  0  0  0  0
  1 27  1  0  0  0  0
  2 28  1  0  0  0  0
  3 29  1  0  0  0  0
  4 30  1  0  0  0  0
  5 31  1  0  0  0  0
  6 32  1  0  0  0  0
  7 33  1  0  0  0  0
  8 34  1  0  0  0  0
  9 35  1  0  0  0  0
 10 36  1  0  0  0  0
 19 37  1  0  0  0  0
 19 38  1  0  0  0  0
 19 39  1  0  0  0  0
M  END
> <idnumber>
Z31204144

> <heavy_atoms>
26

> <LogS>
-6.82

> <LogP>
4.638

> <rotating_bonds>
3

> <PSA>
65.72

> <hb_acceptors>
5

> <hb_donors>
0

> <Collection>
HTS

> <link>
https://www.enaminestore.com/catalog/Z31204144

> <ROCS_ShapeQuery>
x0446_0A_x1080_0A_x0929_0A_x0812_0A_x0719_0A_x1140_0A_x0528_0A_x0310_0A

> <ROCS_TanimotoCombo>
0.458 

> <ROCS_ShapeTanimoto>
0.271 

> <ROCS_ColorTanimoto>
0.187 

> <ROCS_RefTversky>
0.246 

> <ROCS_RefColorTversky>
0.209 

> <ROCS_RefTverskyCombo>
0.455 

> <ROCS_FitTversky>
1.617 

> <ROCS_FitColorTversky>
0.639 

> <ROCS_FitTverskyCombo>
2.256 

> <ROCS_ColorScore>
-7.491

> <ROCS_Overlap>
2906.288

> <ROCS_Rank>
344                 

$$$$
untitled-dbase-1106315_59
  -OEChem-02092406493D

 44 47  0     0  0  0  0  0  0999 V2000
    3.0303   13.7141   27.2275 C   0  0  0  0  0  0  0  0  0  0  0  0
    1.9740   13.9111   26.3383 C   0  0  0  0  0  0  0  0  0  0  0  0
   13.5751   14.6924   22.1319 C   0  0  0  0  0  0  0  0  0  0  0  0
    4.2722   13.2921   26.7528 C   0  0  0  0  0  0  0  0  0  0  0  0
   12.4943   15.1759   21.3946 C   0  0  0  0  0  0  0  0  0  0  0  0
    2.1594   13.6859   24.9742 C   0  0  0  0  0  0  0  0  0  0  0  0
   13.3550   14.0271   23.3379 C   0  0  0  0  0  0  0  0  0  0  0  0
    7.9634   12.5642   24.1677 C   0  0  0  0  0  0  0  0  0  0  0  0
    4.4576   13.0669   25.3888 C   0  0  0  0  0  0  0  0  0  0  0  0
   11.1932   14.9943   21.8635 C   0  0  0  0  0  0  0  0  0  0  0  0
    6.8474   13.3773   24.5415 C   0  0  0  0  0  0  0  0  0  0  0  0
   10.9730   14.3291   23.0696 C   0  0  0  0  0  0  0  0  0  0  0  0
    3.4012   13.2638   24.4995 C   0  0  0  0  0  0  0  0  0  0  0  0
   12.0539   13.8455   23.8068 C   0  0  0  0  0  0  0  0  0  0  0  0
    5.7605   12.6302   24.9407 C   0  0  0  0  0  0  0  0  0  0  0  0
    9.2499   12.8647   23.7089 C   0  0  0  0  0  0  0  0  0  0  0  0
    7.6606   11.2157   24.3050 C   0  0  0  0  0  0  0  0  0  0  0  0
    9.6901   10.6073   23.6063 C   0  0  0  0  0  0  0  0  0  0  0  0
   10.0814   15.5101   21.0765 C   0  0  0  0  0  0  0  0  0  0  0  0
    6.8551   14.8631   24.5052 C   0  0  0  0  0  0  0  0  0  0  0  0
   10.6771    9.5347   23.2848 C   0  0  0  0  0  0  0  0  0  0  0  0
   10.1199   11.8716   23.4263 N   0  0  0  0  0  0  0  0  0  0  0  0
    8.4879   10.1862   24.0380 N   0  0  0  0  0  0  0  0  0  0  0  0
   10.3818   16.1635   19.8860 N   0  0  0  0  0  0  0  0  0  0  0  0
    8.9063   15.3875   21.4606 O   0  0  0  0  0  0  0  0  0  0  0  0
    9.6836   14.1552   23.5266 O   0  0  0  0  0  0  0  0  0  0  0  0
    6.0741   10.9503   24.8678 S   0  0  0  0  0  0  0  0  0  0  0  0
    3.5735   12.9997   22.7987 Cl  0  0  0  0  0  0  0  0  0  0  0  0
   11.8137   13.0183   25.3020 Cl  0  0  0  0  0  0  0  0  0  0  0  0
    2.8854   13.8898   28.2894 H   0  0  0  0  0  0  0  0  0  0  0  0
    1.0068   14.2395   26.7075 H   0  0  0  0  0  0  0  0  0  0  0  0
   14.5883   14.8337   21.7671 H   0  0  0  0  0  0  0  0  0  0  0  0
    5.0847   13.1450   27.4608 H   0  0  0  0  0  0  0  0  0  0  0  0
   12.6780   15.6937   20.4566 H   0  0  0  0  0  0  0  0  0  0  0  0
    1.3253   13.8437   24.2951 H   0  0  0  0  0  0  0  0  0  0  0  0
   14.2081   13.6568   23.9007 H   0  0  0  0  0  0  0  0  0  0  0  0
    6.5163   15.2281   23.5259 H   0  0  0  0  0  0  0  0  0  0  0  0
    6.1978   15.2890   25.2770 H   0  0  0  0  0  0  0  0  0  0  0  0
    7.8609   15.2661   24.6931 H   0  0  0  0  0  0  0  0  0  0  0  0
   11.2692    9.2836   24.1728 H   0  0  0  0  0  0  0  0  0  0  0  0
   10.1746    8.6254   22.9318 H   0  0  0  0  0  0  0  0  0  0  0  0
   11.3612    9.8508   22.4870 H   0  0  0  0  0  0  0  0  0  0  0  0
   11.3511   16.2609   19.6039 H   0  0  0  0  0  0  0  0  0  0  0  0
    9.6513   16.5450   19.2937 H   0  0  0  0  0  0  0  0  0  0  0  0
  1  2  1  0  0  0  0
  1  4  2  0  0  0  0
  2  6  2  0  0  0  0
  3  5  2  0  0  0  0
  3  7  1  0  0  0  0
  4  9  1  0  0  0  0
  5 10  1  0  0  0  0
  6 13  1  0  0  0  0
  7 14  2  0  0  0  0
  8 11  1  0  0  0  0
  8 16  1  0  0  0  0
  8 17  2  0  0  0  0
  9 13  2  0  0  0  0
  9 15  1  0  0  0  0
 10 12  2  0  0  0  0
 10 19  1  0  0  0  0
 11 15  2  0  0  0  0
 11 20  1  0  0  0  0
 12 14  1  0  0  0  0
 12 26  1  0  0  0  0
 13 28  1  0  0  0  0
 14 29  1  0  0  0  0
 15 27  1  0  0  0  0
 16 22  2  0  0  0  0
 16 26  1  0  0  0  0
 17 23  1  0  0  0  0
 17 27  1  0  0  0  0
 18 21  1  0  0  0  0
 18 22  1  0  0  0  0
 18 23  2  0  0  0  0
 19 24  1  0  0  0  0
 19 25  2  0  0  0  0
  1 30  1  0  0  0  0
  2 31  1  0  0  0  0
  3 32  1  0  0  0  0
  4 33  1  0  0  0  0
  5 34  1  0  0  0  0
  6 35  1  0  0  0  0
  7 36  1  0  0  0  0
 20 37  1  0  0  0  0
 20 38  1  0  0  0  0
 20 39  1  0  0  0  0
 21 40  1  0  0  0  0
 21 41  1  0  0  0  0
 21 42  1  0  0  0  0
 24 43  1  0  0  0  0
 24 44  1  0  0  0  0
M  END
> <idnumber>
Z4967399033

> <heavy_atoms>
29

> <LogS>
-8.358

> <LogP>
5.338

> <rotating_bonds>
4

> <PSA>
78.1

> <hb_acceptors>
3

> <hb_donors>
1

> <Collection>
Functional

> <link>
https://www.enaminestore.com/catalog/Z4967399033

> <ROCS_ShapeQuery>
x0446_0A_x1080_0A_x0929_0A_x0812_0A_x0719_0A_x1140_0A_x0528_0A_x0310_0A

> <ROCS_TanimotoCombo>
0.458 

> <ROCS_ShapeTanimoto>
0.264 

> <ROCS_ColorTanimoto>
0.194 

> <ROCS_RefTversky>
0.242 

> <ROCS_RefColorTversky>
0.210 

> <ROCS_RefTverskyCombo>
0.452 

> <ROCS_FitTversky>
1.528 

> <ROCS_FitColorTversky>
0.720 

> <ROCS_FitTverskyCombo>
2.248 

> <ROCS_ColorScore>
-7.516

> <ROCS_Overlap>
2860.622

> <ROCS_Rank>
345                 

$$$$
untitled-dbase-1093025_47
  -OEChem-02092406493D

 43 46  0     1  0  0  0  0  0999 V2000
   11.4612   14.3784   21.8575 C   0  0  0  0  0  0  0  0  0  0  0  0
   11.5995   14.3336   23.2195 C   0  0  0  0  0  0  0  0  0  0  0  0
   12.1011   15.6053   23.5465 C   0  0  0  0  0  0  0  0  0  0  0  0
    5.4349   15.8972   21.9136 C   0  0  0  0  0  0  0  0  0  0  0  0
    5.0960   13.8844   23.2054 C   0  0  0  0  0  0  0  0  0  0  0  0
    4.6813   14.8330   22.2123 C   0  0  0  0  0  0  0  0  0  0  0  0
    6.2596   14.0790   23.8375 C   0  0  0  0  0  0  0  0  0  0  0  0
    6.7200   16.1146   22.6093 C   0  0  0  0  0  0  0  0  0  0  0  0
   11.2797   13.1891   24.0828 C   0  0  0  0  0  0  0  0  0  0  0  0
    6.7158   13.1214   24.8638 C   0  0  0  0  0  0  0  0  0  0  0  0
    8.1839   10.4223   22.9122 C   0  0  0  0  0  0  0  0  0  0  0  0
   10.3367   10.9089   24.0749 C   0  0  0  0  0  0  0  0  0  0  0  0
    8.0702   10.9814   25.2177 C   0  0  0  0  0  0  0  0  0  0  0  0
    9.1674   12.7063   22.7503 C   0  0  0  0  0  0  0  0  0  0  0  0
    8.9610   10.2336   24.2154 C   0  0  1  0  0  0  0  0  0  0  0  0
    7.8782   11.9134   23.0147 C   0  0  2  0  0  0  0  0  0  0  0  0
   12.4444   16.1310   24.8785 C   0  0  0  0  0  0  0  0  0  0  0  0
   12.2615   16.3796   22.4697 N   0  0  0  0  0  0  0  0  0  0  0  0
   10.2562   12.3247   23.6763 N   0  0  0  0  0  0  0  0  0  0  0  0
    7.4883   12.0667   24.4216 N   0  0  0  0  0  0  0  0  0  0  0  0
    7.4185   17.0873   22.3431 O   0  0  0  0  0  0  0  0  0  0  0  0
   11.9452   13.0773   25.1112 O   0  0  0  0  0  0  0  0  0  0  0  0
    6.3921   13.3090   26.0360 O   0  0  0  0  0  0  0  0  0  0  0  0
   11.8530   15.5944   21.3982 O   0  0  0  0  0  0  0  0  0  0  0  0
    7.0865   15.1905   23.5519 O   0  0  0  0  0  0  0  0  0  0  0  0
    3.4792   14.6066   21.5778 O   0  0  0  0  0  0  0  0  0  0  0  0
   11.1209   13.6802   21.1068 H   0  0  0  0  0  0  0  0  0  0  0  0
    5.1323   16.6204   21.1647 H   0  0  0  0  0  0  0  0  0  0  0  0
    4.4627   13.0318   23.4250 H   0  0  0  0  0  0  0  0  0  0  0  0
    8.7638   10.1560   22.0228 H   0  0  0  0  0  0  0  0  0  0  0  0
    7.2604    9.8310   22.9171 H   0  0  0  0  0  0  0  0  0  0  0  0
   10.8925   10.8273   25.0159 H   0  0  0  0  0  0  0  0  0  0  0  0
   10.9285   10.3991   23.3049 H   0  0  0  0  0  0  0  0  0  0  0  0
    7.2482   10.3486   25.5695 H   0  0  0  0  0  0  0  0  0  0  0  0
    8.6184   11.3779   26.0775 H   0  0  0  0  0  0  0  0  0  0  0  0
    9.5315   12.5136   21.7340 H   0  0  0  0  0  0  0  0  0  0  0  0
    8.9641   13.7789   22.8281 H   0  0  0  0  0  0  0  0  0  0  0  0
    9.0774    9.1779   24.4783 H   0  0  0  0  0  0  0  0  0  0  0  0
    7.0752   12.2338   22.3439 H   0  0  0  0  0  0  0  0  0  0  0  0
   13.4983   15.9234   25.1318 H   0  0  0  0  0  0  0  0  0  0  0  0
   12.2953   17.2234   24.9471 H   0  0  0  0  0  0  0  0  0  0  0  0
   11.8182   15.6905   25.6750 H   0  0  0  0  0  0  0  0  0  0  0  0
    3.3095   15.3050   20.9366 H   0  0  0  0  0  0  0  0  0  0  0  0
  1  2  2  0  0  0  0
  1 24  1  0  0  0  0
  2  3  1  0  0  0  0
  2  9  1  0  0  0  0
  3 17  1  0  0  0  0
  3 18  2  0  0  0  0
  4  6  2  0  0  0  0
  4  8  1  0  0  0  0
  5  6  1  0  0  0  0
  5  7  2  0  0  0  0
  6 26  1  0  0  0  0
  7 10  1  0  0  0  0
  7 25  1  0  0  0  0
  8 21  2  0  0  0  0
  8 25  1  0  0  0  0
  9 19  1  0  0  0  0
  9 22  2  0  0  0  0
 10 20  1  0  0  0  0
 10 23  2  0  0  0  0
 11 15  1  0  0  0  0
 11 16  1  0  0  0  0
 12 15  1  0  0  0  0
 12 19  1  0  0  0  0
 13 15  1  0  0  0  0
 13 20  1  0  0  0  0
 14 16  1  0  0  0  0
 14 19  1  0  0  0  0
 16 20  1  0  0  0  0
 18 24  1  0  0  0  0
  1 27  1  0  0  0  0
  4 28  1  0  0  0  0
  5 29  1  0  0  0  0
 11 30  1  0  0  0  0
 11 31  1  0  0  0  0
 12 32  1  0  0  0  0
 12 33  1  0  0  0  0
 13 34  1  0  0  0  0
 13 35  1  0  0  0  0
 14 36  1  0  0  0  0
 14 37  1  0  0  0  0
 15 38  1  0  0  0  0
 16 39  1  0  0  0  0
 17 40  1  0  0  0  0
 17 41  1  0  0  0  0
 17 42  1  0  0  0  0
 26 43  1  0  0  0  0
M  END
> <idnumber>
Z4522001182

> <heavy_atoms>
26

> <LogS>
-2.638

> <LogP>
-0.781

> <rotating_bonds>
2

> <PSA>
113.18

> <hb_acceptors>
5

> <hb_donors>
1

> <Collection>
Premium

> <link>
https://www.enaminestore.com/catalog/Z4522001182

> <ROCS_ShapeQuery>
x0446_0A_x1080_0A_x0929_0A_x0812_0A_x0719_0A_x1140_0A_x0528_0A_x0310_0A

> <ROCS_TanimotoCombo>
0.458 

> <ROCS_ShapeTanimoto>
0.262 

> <ROCS_ColorTanimoto>
0.197 

> <ROCS_RefTversky>
0.238 

> <ROCS_RefColorTversky>
0.233 

> <ROCS_RefTverskyCombo>
0.471 

> <ROCS_FitTversky>
1.593 

> <ROCS_FitColorTversky>
0.558 

> <ROCS_FitTverskyCombo>
2.151 

> <ROCS_ColorScore>
-8.384

> <ROCS_Overlap>
2817.802

> <ROCS_Rank>
346                 

$$$$
untitled-dbase-1061686_30
  -OEChem-02092406493D

 43 46  0     1  0  0  0  0  0999 V2000
   15.7744   12.0078   24.6075 C   0  0  0  0  0  0  0  0  0  0  0  0
   15.5014   13.2971   25.0644 C   0  0  0  0  0  0  0  0  0  0  0  0
   14.9520   11.4195   23.6467 C   0  0  0  0  0  0  0  0  0  0  0  0
   14.4057   13.9981   24.5605 C   0  0  0  0  0  0  0  0  0  0  0  0
   13.8564   12.1205   23.1428 C   0  0  0  0  0  0  0  0  0  0  0  0
   13.5832   13.4098   23.5997 C   0  0  0  0  0  0  0  0  0  0  0  0
   11.3841   15.4946   21.4291 C   0  0  0  0  0  0  0  0  0  0  0  0
   12.4990   14.9657   21.9580 C   0  0  0  0  0  0  0  0  0  0  0  0
   10.1190   15.1550   22.0846 C   0  0  0  0  0  0  0  0  0  0  0  0
   10.1952   14.3720   23.3574 C   0  0  0  0  0  0  0  0  0  0  0  0
    9.4219   11.2392   22.5664 C   0  0  0  0  0  0  0  0  0  0  0  0
    9.0474   14.0467   24.2373 C   0  0  0  0  0  0  0  0  0  0  0  0
    6.9578   11.5973   22.6294 C   0  0  0  0  0  0  0  0  0  0  0  0
    6.6484   11.3504   24.1187 C   0  0  0  0  0  0  0  0  0  0  0  0
    8.9556   10.8025   25.0083 C   0  0  0  0  0  0  0  0  0  0  0  0
    8.3172   12.2952   22.6277 C   0  0  1  0  0  0  0  0  0  0  0  0
    7.8741   11.8792   24.8749 C   0  0  1  0  0  0  0  0  0  0  0  0
   13.8197   15.3848   21.3594 C   0  0  0  0  0  0  0  0  0  0  0  0
   11.3131   13.8994   23.8081 N   0  0  0  0  0  0  0  0  0  0  0  0
    9.6090   10.5058   23.7323 N   0  0  0  0  0  0  0  0  0  0  0  0
   12.4607   14.1278   23.0831 N   0  0  0  0  0  0  0  0  0  0  0  0
    8.4035   12.8679   23.9515 N   0  0  0  0  0  0  0  0  0  0  0  0
    9.0274   15.4928   21.6580 O   0  0  0  0  0  0  0  0  0  0  0  0
    9.9832   10.9608   21.5068 O   0  0  0  0  0  0  0  0  0  0  0  0
    8.7903   14.8532   25.1196 O   0  0  0  0  0  0  0  0  0  0  0  0
   16.6275   11.4619   25.0001 H   0  0  0  0  0  0  0  0  0  0  0  0
   16.1416   13.7548   25.8124 H   0  0  0  0  0  0  0  0  0  0  0  0
   15.1648   10.4154   23.2910 H   0  0  0  0  0  0  0  0  0  0  0  0
   14.2015   15.0021   24.9232 H   0  0  0  0  0  0  0  0  0  0  0  0
   13.2225   11.6520   22.3941 H   0  0  0  0  0  0  0  0  0  0  0  0
   11.3767   16.1600   20.5755 H   0  0  0  0  0  0  0  0  0  0  0  0
    6.9595   10.6573   22.0674 H   0  0  0  0  0  0  0  0  0  0  0  0
    6.1887   12.2497   22.2007 H   0  0  0  0  0  0  0  0  0  0  0  0
    5.7562   11.9225   24.3999 H   0  0  0  0  0  0  0  0  0  0  0  0
    6.4445   10.2939   24.3202 H   0  0  0  0  0  0  0  0  0  0  0  0
    9.7480   11.1397   25.6855 H   0  0  0  0  0  0  0  0  0  0  0  0
    8.5524    9.8646   25.4029 H   0  0  0  0  0  0  0  0  0  0  0  0
    8.4533   13.0379   21.8373 H   0  0  0  0  0  0  0  0  0  0  0  0
    7.6112   12.2992   25.8495 H   0  0  0  0  0  0  0  0  0  0  0  0
   14.1848   16.2623   21.8831 H   0  0  0  0  0  0  0  0  0  0  0  0
   13.6773   15.6134   20.3078 H   0  0  0  0  0  0  0  0  0  0  0  0
   14.5303   14.5705   21.4604 H   0  0  0  0  0  0  0  0  0  0  0  0
   10.2406    9.7117   23.6966 H   0  0  0  0  0  0  0  0  0  0  0  0
  1  2  1  0  0  0  0
  1  3  2  0  0  0  0
  2  4  2  0  0  0  0
  3  5  1  0  0  0  0
  4  6  1  0  0  0  0
  5  6  2  0  0  0  0
  6 21  1  0  0  0  0
  7  8  2  0  0  0  0
  7  9  1  0  0  0  0
  8 18  1  0  0  0  0
  8 21  1  0  0  0  0
  9 10  1  0  0  0  0
  9 23  2  0  0  0  0
 10 12  1  0  0  0  0
 10 19  2  0  0  0  0
 11 16  1  0  0  0  0
 11 20  1  0  0  0  0
 11 24  2  0  0  0  0
 12 22  1  0  0  0  0
 12 25  2  0  0  0  0
 13 14  1  0  0  0  0
 13 16  1  0  0  0  0
 14 17  1  0  0  0  0
 15 17  1  0  0  0  0
 15 20  1  0  0  0  0
 16 22  1  0  0  0  0
 17 22  1  0  0  0  0
 19 21  1  0  0  0  0
  1 26  1  0  0  0  0
  2 27  1  0  0  0  0
  3 28  1  0  0  0  0
  4 29  1  0  0  0  0
  5 30  1  0  0  0  0
  7 31  1  0  0  0  0
 13 32  1  0  0  0  0
 13 33  1  0  0  0  0
 14 34  1  0  0  0  0
 14 35  1  0  0  0  0
 15 36  1  0  0  0  0
 15 37  1  0  0  0  0
 16 38  1  0  0  0  0
 17 39  1  0  0  0  0
 18 40  1  0  0  0  0
 18 41  1  0  0  0  0
 18 42  1  0  0  0  0
 20 43  1  0  0  0  0
M  END
> <idnumber>
Z3857245815

> <heavy_atoms>
25

> <LogS>
-3.092

> <LogP>
0.141

> <rotating_bonds>
2

> <PSA>
82.08

> <hb_acceptors>
5

> <hb_donors>
1

> <Collection>
Advanced

> <link>
https://www.enaminestore.com/catalog/Z3857245815

> <ROCS_ShapeQuery>
x0446_0A_x1080_0A_x0929_0A_x0812_0A_x0719_0A_x1140_0A_x0528_0A_x0310_0A

> <ROCS_TanimotoCombo>
0.458 

> <ROCS_ShapeTanimoto>
0.252 

> <ROCS_ColorTanimoto>
0.206 

> <ROCS_RefTversky>
0.231 

> <ROCS_RefColorTversky>
0.238 

> <ROCS_RefTverskyCombo>
0.468 

> <ROCS_FitTversky>
1.579 

> <ROCS_FitColorTversky>
0.608 

> <ROCS_FitTverskyCombo>
2.186 

> <ROCS_ColorScore>
-8.552

> <ROCS_Overlap>
2725.853

> <ROCS_Rank>
347                 

$$$$
untitled-dbase-229763_96
  -OEChem-02092406493D

 52 56  0     1  0  0  0  0  0999 V2000
   12.1168   16.1503   21.9511 C   0  0  0  0  0  0  0  0  0  0  0  0
   10.7587   16.0351   21.6551 C   0  0  0  0  0  0  0  0  0  0  0  0
   12.7692   15.1292   22.6422 C   0  0  0  0  0  0  0  0  0  0  0  0
   10.0527   14.8988   22.0502 C   0  0  0  0  0  0  0  0  0  0  0  0
   12.0632   13.9930   23.0374 C   0  0  0  0  0  0  0  0  0  0  0  0
    3.0484   14.6525   20.2056 C   0  0  0  0  0  0  0  0  0  0  0  0
   10.7050   13.8777   22.7414 C   0  0  0  0  0  0  0  0  0  0  0  0
    3.3279   13.4192   19.6657 C   0  0  0  0  0  0  0  0  0  0  0  0
    3.8109   13.4865   21.8148 C   0  0  0  0  0  0  0  0  0  0  0  0
    6.2163   12.1436   24.2052 C   0  0  0  0  0  0  0  0  0  0  0  0
    9.7763    9.7264   23.8998 C   0  0  0  0  0  0  0  0  0  0  0  0
    9.9321   11.4803   22.1178 C   0  0  0  0  0  0  0  0  0  0  0  0
   10.5416   12.0432   24.4847 C   0  0  0  0  0  0  0  0  0  0  0  0
    7.6879   10.6617   22.8744 C   0  0  0  0  0  0  0  0  0  0  0  0
    8.2915   11.2336   25.2426 C   0  0  0  0  0  0  0  0  0  0  0  0
    8.4380   12.9893   23.4510 C   0  0  0  0  0  0  0  0  0  0  0  0
    9.1429   10.2531   22.6047 C   0  0  2  0  0  0  0  0  0  0  0  0
    9.7479   10.8200   24.9763 C   0  0  1  0  0  0  0  0  0  0  0  0
    9.9277   12.6255   23.1773 C   0  0  0  0  0  0  0  0  0  0  0  0
    7.6465   11.7622   23.9474 C   0  0  0  0  0  0  0  0  0  0  0  0
    4.2599   11.3074   20.6659 C   0  0  0  0  0  0  0  0  0  0  0  0
    4.2828   13.0061   23.1557 C   0  0  0  0  0  0  0  0  0  0  0  0
    3.3516   14.6879   21.5437 N   0  0  0  0  0  0  0  0  0  0  0  0
    3.8160   12.6832   20.7084 N   0  0  0  0  0  0  0  0  0  0  0  0
    5.6661   12.0440   25.2936 O   0  0  0  0  0  0  0  0  0  0  0  0
    5.6529   12.6055   23.0528 O   0  0  0  0  0  0  0  0  0  0  0  0
    3.1707   12.7823   18.1063 Cl  0  0  0  0  0  0  0  0  0  0  0  0
   12.6667   17.0345   21.6421 H   0  0  0  0  0  0  0  0  0  0  0  0
   10.2509   16.8295   21.1160 H   0  0  0  0  0  0  0  0  0  0  0  0
   13.8268   15.2181   22.8718 H   0  0  0  0  0  0  0  0  0  0  0  0
    8.9946   14.8177   21.8154 H   0  0  0  0  0  0  0  0  0  0  0  0
   12.5797   13.2025   23.5755 H   0  0  0  0  0  0  0  0  0  0  0  0
    2.6448   15.5187   19.7015 H   0  0  0  0  0  0  0  0  0  0  0  0
    9.2326    8.8405   24.2502 H   0  0  0  0  0  0  0  0  0  0  0  0
   10.8100    9.4117   23.7115 H   0  0  0  0  0  0  0  0  0  0  0  0
   10.9656   11.1859   21.8895 H   0  0  0  0  0  0  0  0  0  0  0  0
    9.5032   11.8423   21.1735 H   0  0  0  0  0  0  0  0  0  0  0  0
   10.5525   12.8132   25.2678 H   0  0  0  0  0  0  0  0  0  0  0  0
   11.5898   11.7610   24.3170 H   0  0  0  0  0  0  0  0  0  0  0  0
    7.2190   11.0135   21.9459 H   0  0  0  0  0  0  0  0  0  0  0  0
    7.1073    9.7878   23.1983 H   0  0  0  0  0  0  0  0  0  0  0  0
    7.7269   10.3748   25.6293 H   0  0  0  0  0  0  0  0  0  0  0  0
    8.2567   12.0007   26.0273 H   0  0  0  0  0  0  0  0  0  0  0  0
    8.3809   13.7977   24.1939 H   0  0  0  0  0  0  0  0  0  0  0  0
    7.9771   13.3945   22.5388 H   0  0  0  0  0  0  0  0  0  0  0  0
    9.1692    9.4710   21.8375 H   0  0  0  0  0  0  0  0  0  0  0  0
   10.1969   10.4388   25.9004 H   0  0  0  0  0  0  0  0  0  0  0  0
    5.3272   11.3044   20.4293 H   0  0  0  0  0  0  0  0  0  0  0  0
    4.0824   10.8373   21.6373 H   0  0  0  0  0  0  0  0  0  0  0  0
    3.6957   10.7691   19.8992 H   0  0  0  0  0  0  0  0  0  0  0  0
    4.1978   13.7979   23.9077 H   0  0  0  0  0  0  0  0  0  0  0  0
    3.6839   12.1541   23.4951 H   0  0  0  0  0  0  0  0  0  0  0  0
  1  2  1  0  0  0  0
  1  3  2  0  0  0  0
  2  4  2  0  0  0  0
  3  5  1  0  0  0  0
  4  7  1  0  0  0  0
  5  7  2  0  0  0  0
  6  8  2  0  0  0  0
  6 23  1  0  0  0  0
  7 19  1  0  0  0  0
  8 24  1  0  0  0  0
  8 27  1  0  0  0  0
  9 22  1  0  0  0  0
  9 23  2  0  0  0  0
  9 24  1  0  0  0  0
 10 20  1  0  0  0  0
 10 25  2  0  0  0  0
 10 26  1  0  0  0  0
 11 17  1  0  0  0  0
 11 18  1  0  0  0  0
 12 17  1  0  0  0  0
 12 19  1  0  0  0  0
 13 18  1  0  0  0  0
 13 19  1  0  0  0  0
 14 17  1  0  0  0  0
 14 20  1  0  0  0  0
 15 18  1  0  0  0  0
 15 20  1  0  0  0  0
 16 19  1  0  0  0  0
 16 20  1  0  0  0  0
 21 24  1  0  0  0  0
 22 26  1  0  0  0  0
  1 28  1  0  0  0  0
  2 29  1  0  0  0  0
  3 30  1  0  0  0  0
  4 31  1  0  0  0  0
  5 32  1  0  0  0  0
  6 33  1  0  0  0  0
 11 34  1  0  0  0  0
 11 35  1  0  0  0  0
 12 36  1  0  0  0  0
 12 37  1  0  0  0  0
 13 38  1  0  0  0  0
 13 39  1  0  0  0  0
 14 40  1  0  0  0  0
 14 41  1  0  0  0  0
 15 42  1  0  0  0  0
 15 43  1  0  0  0  0
 16 44  1  0  0  0  0
 16 45  1  0  0  0  0
 17 46  1  0  0  0  0
 18 47  1  0  0  0  0
 21 48  1  0  0  0  0
 21 49  1  0  0  0  0
 21 50  1  0  0  0  0
 22 51  1  0  0  0  0
 22 52  1  0  0  0  0
M  END
> <idnumber>
Z167834794

> <heavy_atoms>
27

> <LogS>
-5.3

> <LogP>
4.62

> <rotating_bonds>
5

> <PSA>
44.12

> <hb_acceptors>
2

> <hb_donors>
0

> <Collection>
Legacy

> <link>
https://www.enaminestore.com/catalog/Z167834794

> <ROCS_ShapeQuery>
x0446_0A_x1080_0A_x0929_0A_x0812_0A_x0719_0A_x1140_0A_x0528_0A_x0310_0A

> <ROCS_TanimotoCombo>
0.458 

> <ROCS_ShapeTanimoto>
0.273 

> <ROCS_ColorTanimoto>
0.185 

> <ROCS_RefTversky>
0.247 

> <ROCS_RefColorTversky>
0.212 

> <ROCS_RefTverskyCombo>
0.459 

> <ROCS_FitTversky>
1.622 

> <ROCS_FitColorTversky>
0.596 

> <ROCS_FitTverskyCombo>
2.218 

> <ROCS_ColorScore>
-7.601

> <ROCS_Overlap>
2920.465

> <ROCS_Rank>
348                 

$$$$
untitled-dbase-324450_21
  -OEChem-02092406493D

 37 40  0     0  0  0  0  0  0999 V2000
   13.0985   14.6274   22.3168 C   0  0  0  0  0  0  0  0  0  0  0  0
   12.6879   15.1607   21.0989 C   0  0  0  0  0  0  0  0  0  0  0  0
   11.9488    7.7604   22.6852 C   0  0  0  0  0  0  0  0  0  0  0  0
   10.8377    8.6368   22.5193 C   0  0  0  0  0  0  0  0  0  0  0  0
   12.1527   14.2877   23.2794 C   0  0  0  0  0  0  0  0  0  0  0  0
   11.3310   15.3423   20.8723 C   0  0  0  0  0  0  0  0  0  0  0  0
   12.6747    8.0539   23.8186 C   0  0  0  0  0  0  0  0  0  0  0  0
    8.0300   12.5869   24.0801 C   0  0  0  0  0  0  0  0  0  0  0  0
    6.8798   13.4140   24.2785 C   0  0  0  0  0  0  0  0  0  0  0  0
   10.7565    9.5667   23.5326 C   0  0  0  0  0  0  0  0  0  0  0  0
    5.7143   12.6843   24.3678 C   0  0  0  0  0  0  0  0  0  0  0  0
    9.3922   12.8682   23.9352 C   0  0  0  0  0  0  0  0  0  0  0  0
    7.6717   11.2461   24.0281 C   0  0  0  0  0  0  0  0  0  0  0  0
   10.8093   14.4916   22.9977 C   0  0  0  0  0  0  0  0  0  0  0  0
    9.7887   10.6101   23.7270 C   0  0  0  0  0  0  0  0  0  0  0  0
    6.9254   14.8950   24.3789 C   0  0  0  0  0  0  0  0  0  0  0  0
    4.3296   13.1658   24.5724 C   0  0  0  0  0  0  0  0  0  0  0  0
   10.2782   11.8651   23.7569 N   0  0  0  0  0  0  0  0  0  0  0  0
    8.5117   10.2072   23.8527 N   0  0  0  0  0  0  0  0  0  0  0  0
   10.4415   15.0067   21.8166 N   0  3  0  0  0  0  0  0  0  0  0  0
    9.1913   15.1878   21.5735 O   0  5  0  0  0  0  0  0  0  0  0  0
    9.8859   14.1499   23.9632 O   0  0  0  0  0  0  0  0  0  0  0  0
   12.0165    9.3812   24.6772 S   0  0  0  0  0  0  0  0  0  0  0  0
    5.9950   11.0041   24.2133 S   0  0  0  0  0  0  0  0  0  0  0  0
   14.1554   14.4762   22.5155 H   0  0  0  0  0  0  0  0  0  0  0  0
   13.4151   15.4293   20.3401 H   0  0  0  0  0  0  0  0  0  0  0  0
   12.2029    6.9552   22.0083 H   0  0  0  0  0  0  0  0  0  0  0  0
   10.1367    8.5801   21.6956 H   0  0  0  0  0  0  0  0  0  0  0  0
   12.4682   13.8716   24.2310 H   0  0  0  0  0  0  0  0  0  0  0  0
   10.9283   15.7491   19.9567 H   0  0  0  0  0  0  0  0  0  0  0  0
   13.5597    7.5521   24.1837 H   0  0  0  0  0  0  0  0  0  0  0  0
    6.8141   15.3550   23.3870 H   0  0  0  0  0  0  0  0  0  0  0  0
    6.1255   15.2815   25.0277 H   0  0  0  0  0  0  0  0  0  0  0  0
    7.8747   15.2421   24.8132 H   0  0  0  0  0  0  0  0  0  0  0  0
    3.8373   13.3680   23.6088 H   0  0  0  0  0  0  0  0  0  0  0  0
    3.7167   12.4306   25.1182 H   0  0  0  0  0  0  0  0  0  0  0  0
    4.3020   14.0926   25.1679 H   0  0  0  0  0  0  0  0  0  0  0  0
  1  2  1  0  0  0  0
  1  5  2  0  0  0  0
  2  6  2  0  0  0  0
  3  4  1  0  0  0  0
  3  7  2  0  0  0  0
  4 10  2  0  0  0  0
  5 14  1  0  0  0  0
  6 20  1  0  0  0  0
  7 23  1  0  0  0  0
  8  9  1  0  0  0  0
  8 12  1  0  0  0  0
  8 13  2  0  0  0  0
  9 11  2  0  0  0  0
  9 16  1  0  0  0  0
 10 15  1  0  0  0  0
 10 23  1  0  0  0  0
 11 17  1  0  0  0  0
 11 24  1  0  0  0  0
 12 18  2  0  0  0  0
 12 22  1  0  0  0  0
 13 19  1  0  0  0  0
 13 24  1  0  0  0  0
 14 20  2  0  0  0  0
 14 22  1  0  0  0  0
 15 18  1  0  0  0  0
 15 19  2  0  0  0  0
 20 21  1  0  0  0  0
  1 25  1  0  0  0  0
  2 26  1  0  0  0  0
  3 27  1  0  0  0  0
  4 28  1  0  0  0  0
  5 29  1  0  0  0  0
  6 30  1  0  0  0  0
  7 31  1  0  0  0  0
 16 32  1  0  0  0  0
 16 33  1  0  0  0  0
 16 34  1  0  0  0  0
 17 35  1  0  0  0  0
 17 36  1  0  0  0  0
 17 37  1  0  0  0  0
M  CHG  2  20   1  21  -1
M  END
> <idnumber>
Z31168656

> <heavy_atoms>
24

> <LogS>
-6.86

> <LogP>
2.549

> <rotating_bonds>
3

> <PSA>
61.95

> <hb_acceptors>
3

> <hb_donors>
0

> <Collection>
Legacy

> <link>
https://www.enaminestore.com/catalog/Z31168656

> <ROCS_ShapeQuery>
x0446_0A_x1080_0A_x0929_0A_x0812_0A_x0719_0A_x1140_0A_x0528_0A_x0310_0A

> <ROCS_TanimotoCombo>
0.458 

> <ROCS_ShapeTanimoto>
0.255 

> <ROCS_ColorTanimoto>
0.203 

> <ROCS_RefTversky>
0.232 

> <ROCS_RefColorTversky>
0.218 

> <ROCS_RefTverskyCombo>
0.450 

> <ROCS_FitTversky>
1.642 

> <ROCS_FitColorTversky>
0.747 

> <ROCS_FitTverskyCombo>
2.389 

> <ROCS_ColorScore>
-7.798

> <ROCS_Overlap>
2740.753

> <ROCS_Rank>
349                 

$$$$
untitled-dbase-878618_63
  -OEChem-02092406493D

 47 49  0     1  0  0  0  0  0999 V2000
    6.1736   11.2040   25.0252 C   0  0  0  0  0  0  0  0  0  0  0  0
    7.3913   10.9766   24.3707 C   0  0  0  0  0  0  0  0  0  0  0  0
    8.0807   12.1601   24.4740 C   0  0  0  0  0  0  0  0  0  0  0  0
    8.0026    9.8712   23.6843 C   0  0  0  0  0  0  0  0  0  0  0  0
    9.8930   11.4756   23.3750 C   0  0  0  0  0  0  0  0  0  0  0  0
   11.1875   14.1898   21.4285 C   0  0  0  0  0  0  0  0  0  0  0  0
   11.9359   16.2396   22.4828 C   0  0  0  0  0  0  0  0  0  0  0  0
   11.1395   15.7068   21.2942 C   0  0  2  0  0  0  0  0  0  0  0  0
   11.4832   13.9836   22.9079 C   0  0  1  0  0  0  0  0  0  0  0  0
    7.7786   15.2173   24.2549 C   0  0  0  0  0  0  0  0  0  0  0  0
    8.7907   14.4350   26.4329 C   0  0  0  0  0  0  0  0  0  0  0  0
    6.3900   15.0600   26.3091 C   0  0  0  0  0  0  0  0  0  0  0  0
   11.4970   10.8026   21.6334 C   0  0  0  0  0  0  0  0  0  0  0  0
   12.0689   12.6166   23.2157 C   0  0  0  0  0  0  0  0  0  0  0  0
    7.5395   14.3760   25.5284 C   0  0  0  0  0  0  0  0  0  0  0  0
    6.0890   12.4480   25.5136 N   0  0  0  0  0  0  0  0  0  0  0  0
    9.3118   12.4708   24.0074 N   0  0  0  0  0  0  0  0  0  0  0  0
    7.2660   13.0061   25.1629 N   0  0  0  0  0  0  0  0  0  0  0  0
    9.2757   10.2151   23.2101 N   0  0  0  0  0  0  0  0  0  0  0  0
   12.4416   15.0552   23.1806 N   0  0  0  0  0  0  0  0  0  0  0  0
   11.1549   11.5934   22.8250 N   0  0  3  0  0  0  0  0  0  0  0  0
    7.4680    8.7783   23.5414 O   0  0  0  0  0  0  0  0  0  0  0  0
    9.7953   16.1618   21.3935 O   0  0  0  0  0  0  0  0  0  0  0  0
    5.3431   10.5285   25.1715 H   0  0  0  0  0  0  0  0  0  0  0  0
   10.2528   13.7035   21.1309 H   0  0  0  0  0  0  0  0  0  0  0  0
   12.0027   13.7902   20.8121 H   0  0  0  0  0  0  0  0  0  0  0  0
   12.7741   16.8614   22.1519 H   0  0  0  0  0  0  0  0  0  0  0  0
   11.3176   16.8398   23.1593 H   0  0  0  0  0  0  0  0  0  0  0  0
   11.5488   16.0354   20.3340 H   0  0  0  0  0  0  0  0  0  0  0  0
   10.5807   14.1378   23.5091 H   0  0  0  0  0  0  0  0  0  0  0  0
    6.9042   15.1922   23.5946 H   0  0  0  0  0  0  0  0  0  0  0  0
    7.9756   16.2701   24.4839 H   0  0  0  0  0  0  0  0  0  0  0  0
    8.6373   14.8375   23.6890 H   0  0  0  0  0  0  0  0  0  0  0  0
    8.6672   13.8509   27.3510 H   0  0  0  0  0  0  0  0  0  0  0  0
    9.6712   14.0353   25.9165 H   0  0  0  0  0  0  0  0  0  0  0  0
    9.0142   15.4671   26.7269 H   0  0  0  0  0  0  0  0  0  0  0  0
    6.1623   14.5145   27.2329 H   0  0  0  0  0  0  0  0  0  0  0  0
    6.6519   16.0841   26.5991 H   0  0  0  0  0  0  0  0  0  0  0  0
    5.4658   15.0930   25.7206 H   0  0  0  0  0  0  0  0  0  0  0  0
   11.2457   11.3750   20.7282 H   0  0  0  0  0  0  0  0  0  0  0  0
   12.5740   10.5792   21.6385 H   0  0  0  0  0  0  0  0  0  0  0  0
   10.9273    9.8616   21.6419 H   0  0  0  0  0  0  0  0  0  0  0  0
   13.0019   12.5243   22.6581 H   0  0  0  0  0  0  0  0  0  0  0  0
   12.2526   12.5707   24.2899 H   0  0  0  0  0  0  0  0  0  0  0  0
    9.7958    9.5010   22.7083 H   0  0  0  0  0  0  0  0  0  0  0  0
   13.3457   14.8020   22.7797 H   0  0  0  0  0  0  0  0  0  0  0  0
    9.8200   17.1278   21.3022 H   0  0  0  0  0  0  0  0  0  0  0  0
  1  2  1  0  0  0  0
  1 16  2  0  0  0  0
  2  3  2  0  0  0  0
  2  4  1  0  0  0  0
  3 17  1  0  0  0  0
  3 18  1  0  0  0  0
  4 19  1  0  0  0  0
  4 22  2  0  0  0  0
  5 17  2  0  0  0  0
  5 19  1  0  0  0  0
  5 21  1  0  0  0  0
  6  8  1  0  0  0  0
  6  9  1  0  0  0  0
  7  8  1  0  0  0  0
  7 20  1  0  0  0  0
  8 23  1  1  0  0  0
  9 14  1  6  0  0  0
  9 20  1  0  0  0  0
 10 15  1  0  0  0  0
 11 15  1  0  0  0  0
 12 15  1  0  0  0  0
 13 21  1  0  0  0  0
 14 21  1  0  0  0  0
 15 18  1  0  0  0  0
 16 18  1  0  0  0  0
  1 24  1  0  0  0  0
  6 25  1  0  0  0  0
  6 26  1  0  0  0  0
  7 27  1  0  0  0  0
  7 28  1  0  0  0  0
  8 29  1  0  0  0  0
  9 30  1  0  0  0  0
 10 31  1  0  0  0  0
 10 32  1  0  0  0  0
 10 33  1  0  0  0  0
 11 34  1  0  0  0  0
 11 35  1  0  0  0  0
 11 36  1  0  0  0  0
 12 37  1  0  0  0  0
 12 38  1  0  0  0  0
 12 39  1  0  0  0  0
 13 40  1  0  0  0  0
 13 41  1  0  0  0  0
 13 42  1  0  0  0  0
 14 43  1  0  0  0  0
 14 44  1  0  0  0  0
 19 45  1  0  0  0  0
 20 46  1  0  0  0  0
 23 47  1  0  0  0  0
M  END
> <idnumber>
Z2242847454

> <heavy_atoms>
23

> <LogS>
-2.487

> <LogP>
-0.113

> <rotating_bonds>
4

> <PSA>
94.78

> <hb_acceptors>
6

> <hb_donors>
3

> <Collection>
HTS

> <link>
https://www.enaminestore.com/catalog/Z2242847454

> <ROCS_ShapeQuery>
x0446_0A_x1080_0A_x0929_0A_x0812_0A_x0719_0A_x1140_0A_x0528_0A_x0310_0A

> <ROCS_TanimotoCombo>
0.458 

> <ROCS_ShapeTanimoto>
0.260 

> <ROCS_ColorTanimoto>
0.198 

> <ROCS_RefTversky>
0.235 

> <ROCS_RefColorTversky>
0.226 

> <ROCS_RefTverskyCombo>
0.461 

> <ROCS_FitTversky>
1.713 

> <ROCS_FitColorTversky>
0.612 

> <ROCS_FitTverskyCombo>
2.325 

> <ROCS_ColorScore>
-8.130

> <ROCS_Overlap>
2772.310

> <ROCS_Rank>
350                 

$$$$
untitled-dbase-1181500_53
  -OEChem-02092406493D

 41 43  0     0  0  0  0  0  0999 V2000
   13.0884   15.3306   22.9371 C   0  0  0  0  0  0  0  0  0  0  0  0
   12.3635   16.3873   22.3862 C   0  0  0  0  0  0  0  0  0  0  0  0
   12.5302   14.0533   22.9876 C   0  0  0  0  0  0  0  0  0  0  0  0
   11.0803   16.1667   21.8858 C   0  0  0  0  0  0  0  0  0  0  0  0
    7.3373   11.0763   24.3676 C   0  0  0  0  0  0  0  0  0  0  0  0
   11.2471   13.8327   22.4872 C   0  0  0  0  0  0  0  0  0  0  0  0
   10.5221   14.8893   21.9363 C   0  0  0  0  0  0  0  0  0  0  0  0
    6.1546   10.9939   25.1089 C   0  0  0  0  0  0  0  0  0  0  0  0
    7.7144   12.3999   24.4295 C   0  0  0  0  0  0  0  0  0  0  0  0
    8.1448   10.1407   23.6335 C   0  0  0  0  0  0  0  0  0  0  0  0
    9.5592   12.1421   23.1845 C   0  0  0  0  0  0  0  0  0  0  0  0
    5.3184    9.8131   25.3759 C   0  0  0  0  0  0  0  0  0  0  0  0
    5.7204   15.8727   22.0002 C   0  0  0  0  0  0  0  0  0  0  0  0
    6.9466   15.3438   19.8755 C   0  0  0  0  0  0  0  0  0  0  0  0
    8.2115   15.4423   22.0430 C   0  0  0  0  0  0  0  0  0  0  0  0
    6.8780   15.0878   21.3794 C   0  0  0  0  0  0  0  0  0  0  0  0
    5.8043   12.1832   25.6077 N   0  0  0  0  0  0  0  0  0  0  0  0
    8.8042   12.9767   23.8615 N   0  0  0  0  0  0  0  0  0  0  0  0
    9.2563   10.7703   23.0640 N   0  0  0  0  0  0  0  0  0  0  0  0
   10.7008   12.5494   22.5439 N   0  0  0  0  0  0  0  0  0  0  0  0
    7.8830    8.9484   23.5277 O   0  0  0  0  0  0  0  0  0  0  0  0
    6.7879   13.0684   25.1789 O   0  0  0  0  0  0  0  0  0  0  0  0
    9.2669   14.6949   21.4423 O   0  0  0  0  0  0  0  0  0  0  0  0
   14.0872   15.5026   23.3274 H   0  0  0  0  0  0  0  0  0  0  0  0
   12.7983   17.3816   22.3466 H   0  0  0  0  0  0  0  0  0  0  0  0
   13.1048   13.2372   23.4188 H   0  0  0  0  0  0  0  0  0  0  0  0
   10.5209   16.9941   21.4573 H   0  0  0  0  0  0  0  0  0  0  0  0
    5.6358    9.2959   26.2981 H   0  0  0  0  0  0  0  0  0  0  0  0
    4.2509   10.0742   25.4933 H   0  0  0  0  0  0  0  0  0  0  0  0
    5.3589    9.0769   24.5525 H   0  0  0  0  0  0  0  0  0  0  0  0
    5.8659   16.9498   21.8642 H   0  0  0  0  0  0  0  0  0  0  0  0
    5.6389   15.6758   23.0747 H   0  0  0  0  0  0  0  0  0  0  0  0
    4.7665   15.6068   21.5333 H   0  0  0  0  0  0  0  0  0  0  0  0
    7.1457   16.4008   19.6692 H   0  0  0  0  0  0  0  0  0  0  0  0
    5.9988   15.0826   19.3930 H   0  0  0  0  0  0  0  0  0  0  0  0
    7.7403   14.7522   19.4065 H   0  0  0  0  0  0  0  0  0  0  0  0
    8.4344   16.5066   21.9137 H   0  0  0  0  0  0  0  0  0  0  0  0
    8.1917   15.2175   23.1150 H   0  0  0  0  0  0  0  0  0  0  0  0
    6.6777   14.0216   21.5461 H   0  0  0  0  0  0  0  0  0  0  0  0
    9.8944   10.1951   22.5220 H   0  0  0  0  0  0  0  0  0  0  0  0
   11.1914   11.8147   22.0606 H   0  0  0  0  0  0  0  0  0  0  0  0
  1  2  1  0  0  0  0
  1  3  2  0  0  0  0
  2  4  2  0  0  0  0
  3  6  1  0  0  0  0
  4  7  1  0  0  0  0
  5  8  1  0  0  0  0
  5  9  2  0  0  0  0
  5 10  1  0  0  0  0
  6  7  2  0  0  0  0
  6 20  1  0  0  0  0
  7 23  1  0  0  0  0
  8 12  1  0  0  0  0
  8 17  2  0  0  0  0
  9 18  1  0  0  0  0
  9 22  1  0  0  0  0
 10 19  1  0  0  0  0
 10 21  2  0  0  0  0
 11 18  2  0  0  0  0
 11 19  1  0  0  0  0
 11 20  1  0  0  0  0
 13 16  1  0  0  0  0
 14 16  1  0  0  0  0
 15 16  1  0  0  0  0
 15 23  1  0  0  0  0
 17 22  1  0  0  0  0
  1 24  1  0  0  0  0
  2 25  1  0  0  0  0
  3 26  1  0  0  0  0
  4 27  1  0  0  0  0
 12 28  1  0  0  0  0
 12 29  1  0  0  0  0
 12 30  1  0  0  0  0
 13 31  1  0  0  0  0
 13 32  1  0  0  0  0
 13 33  1  0  0  0  0
 14 34  1  0  0  0  0
 14 35  1  0  0  0  0
 14 36  1  0  0  0  0
 15 37  1  0  0  0  0
 15 38  1  0  0  0  0
 16 39  1  0  0  0  0
 19 40  1  0  0  0  0
 20 41  1  0  0  0  0
M  END
> <idnumber>
Z8802630440

> <heavy_atoms>
23

> <LogS>
-4.863

> <LogP>
3.385

> <rotating_bonds>
5

> <PSA>
88.75

> <hb_acceptors>
5

> <hb_donors>
2

> <Collection>
Advanced

> <link>
https://www.enaminestore.com/catalog/Z8802630440

> <ROCS_ShapeQuery>
x0446_0A_x1080_0A_x0929_0A_x0812_0A_x0719_0A_x1140_0A_x0528_0A_x0310_0A

> <ROCS_TanimotoCombo>
0.458 

> <ROCS_ShapeTanimoto>
0.264 

> <ROCS_ColorTanimoto>
0.194 

> <ROCS_RefTversky>
0.238 

> <ROCS_RefColorTversky>
0.214 

> <ROCS_RefTverskyCombo>
0.451 

> <ROCS_FitTversky>
1.730 

> <ROCS_FitColorTversky>
0.672 

> <ROCS_FitTverskyCombo>
2.403 

> <ROCS_ColorScore>
-7.658

> <ROCS_Overlap>
2808.693

> <ROCS_Rank>
351                 

$$$$
untitled-dbase-1154101_17
  -OEChem-02092406493D

 42 47  0     1  0  0  0  0  0999 V2000
    6.2501   13.9842   20.6569 C   0  0  0  0  0  0  0  0  0  0  0  0
    6.0744   16.0036   21.9713 C   0  0  0  0  0  0  0  0  0  0  0  0
    6.8464   14.9670   21.4468 C   0  0  0  0  0  0  0  0  0  0  0  0
    4.8817   14.0379   20.3914 C   0  0  0  0  0  0  0  0  0  0  0  0
    4.7060   16.0574   21.7059 C   0  0  0  0  0  0  0  0  0  0  0  0
    4.1097   15.0745   20.9160 C   0  0  0  0  0  0  0  0  0  0  0  0
   10.2025   15.4561   21.7789 C   0  0  0  0  0  0  0  0  0  0  0  0
    8.9006   13.9226   22.3366 C   0  0  0  0  0  0  0  0  0  0  0  0
    7.8887   12.8268   24.3590 C   0  0  0  0  0  0  0  0  0  0  0  0
    8.9522    9.1909   24.1522 C   0  0  0  0  0  0  0  0  0  0  0  0
   12.8906   15.4599   21.5249 C   0  0  0  0  0  0  0  0  0  0  0  0
   12.1204   17.1717   22.7511 C   0  0  0  0  0  0  0  0  0  0  0  0
   11.5656   16.2875   21.5906 C   0  0  0  0  0  0  0  0  0  0  0  0
    8.2683   12.6885   22.8574 C   0  0  2  0  0  0  0  0  0  0  0  0
    8.0975   10.3538   24.5803 C   0  0  2  0  0  0  0  0  0  0  0  0
    8.5142   10.2302   23.1541 C   0  0  1  0  0  0  0  0  0  0  0  0
    8.6871   11.6819   24.9962 C   0  0  1  0  0  0  0  0  0  0  0  0
    9.2804   11.5167   22.9145 C   0  0  2  0  0  0  0  0  0  0  0  0
   10.1735   14.2383   22.3960 N   0  0  0  0  0  0  0  0  0  0  0  0
    9.0275   15.9137   21.3414 N   0  0  0  0  0  0  0  0  0  0  0  0
    8.2119   14.9143   21.7105 N   0  0  0  0  0  0  0  0  0  0  0  0
    9.8978   11.7626   24.2051 O   0  0  0  0  0  0  0  0  0  0  0  0
    4.3087   13.0951   19.6320 F   0  0  0  0  0  0  0  0  0  0  0  0
    3.9653   17.0540   22.2083 F   0  0  0  0  0  0  0  0  0  0  0  0
    2.7962   15.1266   20.6603 F   0  0  0  0  0  0  0  0  0  0  0  0
   13.2082   15.8125   23.2815 S   0  0  0  0  0  0  0  0  0  0  0  0
    6.8396   13.1709   20.2410 H   0  0  0  0  0  0  0  0  0  0  0  0
    6.5259   16.7760   22.5891 H   0  0  0  0  0  0  0  0  0  0  0  0
    8.2105   13.7919   24.7676 H   0  0  0  0  0  0  0  0  0  0  0  0
    6.8110   12.7203   24.5204 H   0  0  0  0  0  0  0  0  0  0  0  0
    9.9906    9.1636   24.4571 H   0  0  0  0  0  0  0  0  0  0  0  0
    8.4821    8.2161   24.0993 H   0  0  0  0  0  0  0  0  0  0  0  0
   12.7612   14.3897   21.3155 H   0  0  0  0  0  0  0  0  0  0  0  0
   13.6400   15.8541   20.8285 H   0  0  0  0  0  0  0  0  0  0  0  0
   12.6393   18.0812   22.4242 H   0  0  0  0  0  0  0  0  0  0  0  0
   11.3827   17.4570   23.5139 H   0  0  0  0  0  0  0  0  0  0  0  0
   11.4455   16.9112   20.6201 H   0  0  0  0  0  0  0  0  0  0  0  0
    7.3956   12.4470   22.2411 H   0  0  0  0  0  0  0  0  0  0  0  0
    7.0661   10.1934   24.8532 H   0  0  0  0  0  0  0  0  0  0  0  0
    7.7833    9.9762   22.4019 H   0  0  0  0  0  0  0  0  0  0  0  0
    8.8843   11.7833   26.0653 H   0  0  0  0  0  0  0  0  0  0  0  0
   10.0201   11.4656   22.1116 H   0  0  0  0  0  0  0  0  0  0  0  0
  1  3  2  0  0  0  0
  1  4  1  0  0  0  0
  2  3  1  0  0  0  0
  2  5  2  0  0  0  0
  3 21  1  0  0  0  0
  4  6  2  0  0  0  0
  4 23  1  0  0  0  0
  5  6  1  0  0  0  0
  5 24  1  0  0  0  0
  6 25  1  0  0  0  0
  7 13  1  0  0  0  0
  7 19  1  0  0  0  0
  7 20  2  0  0  0  0
  8 14  1  1  0  0  0
  8 19  2  0  0  0  0
  8 21  1  0  0  0  0
  9 14  1  0  0  0  0
  9 17  1  0  0  0  0
 10 15  1  1  0  0  0
 10 16  1  1  0  0  0
 11 13  1  0  0  0  0
 11 26  1  0  0  0  0
 12 13  1  0  0  0  0
 12 26  1  0  0  0  0
 14 18  1  0  0  0  0
 15 16  1  0  0  0  0
 15 17  1  0  0  0  0
 16 18  1  0  0  0  0
 17 22  1  1  0  0  0
 18 22  1  1  0  0  0
 20 21  1  0  0  0  0
  1 27  1  0  0  0  0
  2 28  1  0  0  0  0
  9 29  1  0  0  0  0
  9 30  1  0  0  0  0
 10 31  1  0  0  0  0
 10 32  1  0  0  0  0
 11 33  1  0  0  0  0
 11 34  1  0  0  0  0
 12 35  1  0  0  0  0
 12 36  1  0  0  0  0
 13 37  1  0  0  0  0
 14 38  1  0  0  0  0
 15 39  1  0  0  0  0
 16 40  1  0  0  0  0
 17 41  1  0  0  0  0
 18 42  1  0  0  0  0
M  END
> <idnumber>
Z7371448141

> <heavy_atoms>
26

> <LogS>
-4.728

> <LogP>
1.205

> <rotating_bonds>
3

> <PSA>
39.94

> <hb_acceptors>
3

> <hb_donors>
0

> <Collection>
Advanced

> <link>
https://www.enaminestore.com/catalog/Z7371448141

> <ROCS_ShapeQuery>
x0446_0A_x1080_0A_x0929_0A_x0812_0A_x0719_0A_x1140_0A_x0528_0A_x0310_0A

> <ROCS_TanimotoCombo>
0.458 

> <ROCS_ShapeTanimoto>
0.241 

> <ROCS_ColorTanimoto>
0.217 

> <ROCS_RefTversky>
0.223 

> <ROCS_RefColorTversky>
0.295 

> <ROCS_RefTverskyCombo>
0.518 

> <ROCS_FitTversky>
1.483 

> <ROCS_FitColorTversky>
0.451 

> <ROCS_FitTverskyCombo>
1.934 

> <ROCS_ColorScore>
-10.759

> <ROCS_Overlap>
2640.543

> <ROCS_Rank>
352                 

$$$$
untitled-dbase-324154_10
  -OEChem-02092406493D

 45 49  0     0  0  0  0  0  0999 V2000
   13.0131   14.2563   23.0322 C   0  0  0  0  0  0  0  0  0  0  0  0
   13.0778   15.0008   21.8579 C   0  0  0  0  0  0  0  0  0  0  0  0
   11.9396   16.2384   20.0763 C   0  0  0  0  0  0  0  0  0  0  0  0
   11.7775   13.9946   23.6111 C   0  0  0  0  0  0  0  0  0  0  0  0
   10.7621   16.7039   19.5090 C   0  0  0  0  0  0  0  0  0  0  0  0
   11.9034   15.4865   21.2584 C   0  0  0  0  0  0  0  0  0  0  0  0
    7.8724   12.4642   24.3719 C   0  0  0  0  0  0  0  0  0  0  0  0
    6.7678   13.1803   24.9441 C   0  0  0  0  0  0  0  0  0  0  0  0
   10.6454   15.2248   21.8406 C   0  0  0  0  0  0  0  0  0  0  0  0
   10.6100   14.4776   23.0148 C   0  0  0  0  0  0  0  0  0  0  0  0
    5.8039   12.3217   25.4402 C   0  0  0  0  0  0  0  0  0  0  0  0
    9.5796   16.3973   20.1511 C   0  0  0  0  0  0  0  0  0  0  0  0
    9.0672   12.8729   23.7676 C   0  0  0  0  0  0  0  0  0  0  0  0
    7.6731   11.0914   24.4602 C   0  0  0  0  0  0  0  0  0  0  0  0
    9.6202   10.6601   23.4601 C   0  0  0  0  0  0  0  0  0  0  0  0
    6.6289   14.6706   25.0505 C   0  0  0  0  0  0  0  0  0  0  0  0
    4.5192   12.7452   26.0813 C   0  0  0  0  0  0  0  0  0  0  0  0
    5.1862   15.0915   25.3701 C   0  0  0  0  0  0  0  0  0  0  0  0
    4.5781   14.2267   26.4828 C   0  0  0  0  0  0  0  0  0  0  0  0
    8.2886   16.8772   19.5766 C   0  0  0  0  0  0  0  0  0  0  0  0
   10.6144    9.6754   22.9405 C   0  0  0  0  0  0  0  0  0  0  0  0
    9.5011   15.6752   21.2923 N   0  0  0  0  0  0  0  0  0  0  0  0
    9.9469   11.9578   23.3083 N   0  0  0  0  0  0  0  0  0  0  0  0
    8.5152   10.1367   24.0191 N   0  0  0  0  0  0  0  0  0  0  0  0
    9.4030   14.1964   23.6198 O   0  0  0  0  0  0  0  0  0  0  0  0
    6.2005   10.6836   25.2134 S   0  0  0  0  0  0  0  0  0  0  0  0
   13.9226   13.8829   23.4926 H   0  0  0  0  0  0  0  0  0  0  0  0
   14.0502   15.2000   21.4129 H   0  0  0  0  0  0  0  0  0  0  0  0
   12.8861   16.4651   19.5909 H   0  0  0  0  0  0  0  0  0  0  0  0
   11.7252   13.4135   24.5279 H   0  0  0  0  0  0  0  0  0  0  0  0
   10.7818   17.2867   18.5948 H   0  0  0  0  0  0  0  0  0  0  0  0
    7.2961   15.0272   25.8448 H   0  0  0  0  0  0  0  0  0  0  0  0
    6.9387   15.1535   24.1174 H   0  0  0  0  0  0  0  0  0  0  0  0
    3.7003   12.5959   25.3666 H   0  0  0  0  0  0  0  0  0  0  0  0
    4.3005   12.1368   26.9662 H   0  0  0  0  0  0  0  0  0  0  0  0
    5.1706   16.1469   25.6644 H   0  0  0  0  0  0  0  0  0  0  0  0
    4.5683   15.0011   24.4675 H   0  0  0  0  0  0  0  0  0  0  0  0
    3.5695   14.5804   26.7243 H   0  0  0  0  0  0  0  0  0  0  0  0
    5.1825   14.3373   27.3924 H   0  0  0  0  0  0  0  0  0  0  0  0
    7.8833   16.1355   18.8780 H   0  0  0  0  0  0  0  0  0  0  0  0
    7.5456   17.0571   20.3639 H   0  0  0  0  0  0  0  0  0  0  0  0
    8.4203   17.8258   19.0405 H   0  0  0  0  0  0  0  0  0  0  0  0
   11.3359    9.4135   23.7235 H   0  0  0  0  0  0  0  0  0  0  0  0
   10.1219    8.7565   22.5984 H   0  0  0  0  0  0  0  0  0  0  0  0
   11.1636   10.0812   22.0814 H   0  0  0  0  0  0  0  0  0  0  0  0
  1  2  2  0  0  0  0
  1  4  1  0  0  0  0
  2  6  1  0  0  0  0
  3  5  2  0  0  0  0
  3  6  1  0  0  0  0
  4 10  2  0  0  0  0
  5 12  1  0  0  0  0
  6  9  2  0  0  0  0
  7  8  1  0  0  0  0
  7 13  2  0  0  0  0
  7 14  1  0  0  0  0
  8 11  2  0  0  0  0
  8 16  1  0  0  0  0
  9 10  1  0  0  0  0
  9 22  1  0  0  0  0
 10 25  1  0  0  0  0
 11 17  1  0  0  0  0
 11 26  1  0  0  0  0
 12 20  1  0  0  0  0
 12 22  2  0  0  0  0
 13 23  1  0  0  0  0
 13 25  1  0  0  0  0
 14 24  2  0  0  0  0
 14 26  1  0  0  0  0
 15 21  1  0  0  0  0
 15 23  2  0  0  0  0
 15 24  1  0  0  0  0
 16 18  1  0  0  0  0
 17 19  1  0  0  0  0
 18 19  1  0  0  0  0
  1 27  1  0  0  0  0
  2 28  1  0  0  0  0
  3 29  1  0  0  0  0
  4 30  1  0  0  0  0
  5 31  1  0  0  0  0
 16 32  1  0  0  0  0
 16 33  1  0  0  0  0
 17 34  1  0  0  0  0
 17 35  1  0  0  0  0
 18 36  1  0  0  0  0
 18 37  1  0  0  0  0
 19 38  1  0  0  0  0
 19 39  1  0  0  0  0
 20 40  1  0  0  0  0
 20 41  1  0  0  0  0
 20 42  1  0  0  0  0
 21 43  1  0  0  0  0
 21 44  1  0  0  0  0
 21 45  1  0  0  0  0
M  END
> <idnumber>
Z31146715

> <heavy_atoms>
26

> <LogS>
-6.51

> <LogP>
5.441

> <rotating_bonds>
2

> <PSA>
47.9

> <hb_acceptors>
3

> <hb_donors>
0

> <Collection>
Legacy

> <link>
https://www.enaminestore.com/catalog/Z31146715

> <ROCS_ShapeQuery>
x0446_0A_x1080_0A_x0929_0A_x0812_0A_x0719_0A_x1140_0A_x0528_0A_x0310_0A

> <ROCS_TanimotoCombo>
0.458 

> <ROCS_ShapeTanimoto>
0.264 

> <ROCS_ColorTanimoto>
0.193 

> <ROCS_RefTversky>
0.240 

> <ROCS_RefColorTversky>
0.209 

> <ROCS_RefTverskyCombo>
0.450 

> <ROCS_FitTversky>
1.603 

> <ROCS_FitColorTversky>
0.717 

> <ROCS_FitTverskyCombo>
2.320 

> <ROCS_ColorScore>
-7.494

> <ROCS_Overlap>
2841.739

> <ROCS_Rank>
353                 

$$$$
untitled-dbase-622430_0
  -OEChem-02092406493D

 35 39  0     0  0  0  0  0  0999 V2000
    5.7541   13.6282   24.2574 C   0  0  0  0  0  0  0  0  0  0  0  0
   13.2255   16.0499   21.8489 C   0  0  0  0  0  0  0  0  0  0  0  0
   13.3533   14.8316   22.5230 C   0  0  0  0  0  0  0  0  0  0  0  0
    5.3904   12.3799   24.7683 C   0  0  0  0  0  0  0  0  0  0  0  0
    7.0134   13.8207   23.6816 C   0  0  0  0  0  0  0  0  0  0  0  0
   11.9736   16.5139   21.4240 C   0  0  0  0  0  0  0  0  0  0  0  0
   12.2385   14.0318   22.7981 C   0  0  0  0  0  0  0  0  0  0  0  0
    6.2847   11.3120   24.7158 C   0  0  0  0  0  0  0  0  0  0  0  0
    7.9122   12.7544   23.6100 C   0  0  0  0  0  0  0  0  0  0  0  0
   10.8482   15.7216   21.6935 C   0  0  0  0  0  0  0  0  0  0  0  0
   11.0063   14.5168   22.3647 C   0  0  0  0  0  0  0  0  0  0  0  0
    7.5394   11.5135   24.1409 C   0  0  0  0  0  0  0  0  0  0  0  0
   10.3990    9.4808   23.6661 C   0  0  0  0  0  0  0  0  0  0  0  0
    9.4674    8.6363   24.2943 C   0  0  0  0  0  0  0  0  0  0  0  0
    9.7509   10.6899   23.5317 C   0  0  0  0  0  0  0  0  0  0  0  0
    9.2805   12.8614   23.0145 C   0  0  0  0  0  0  0  0  0  0  0  0
    9.6350    7.2231   24.6789 C   0  0  0  0  0  0  0  0  0  0  0  0
    9.5223   15.9113   21.4061 N   0  0  0  0  0  0  0  0  0  0  0  0
    8.3085    9.2466   24.5480 N   0  0  0  0  0  0  0  0  0  0  0  0
    8.8462   14.8677   21.8739 N   0  0  0  0  0  0  0  0  0  0  0  0
   10.1363   11.8779   22.9991 N   0  0  0  0  0  0  0  0  0  0  0  0
    9.7318   14.0352   22.4459 N   0  0  0  0  0  0  0  0  0  0  0  0
    8.5001   10.4963   24.0773 N   0  0  0  0  0  0  0  0  0  0  0  0
   11.9722    9.0769   23.1856 Cl  0  0  0  0  0  0  0  0  0  0  0  0
    5.0525   14.4564   24.3080 H   0  0  0  0  0  0  0  0  0  0  0  0
   14.1115   16.6476   21.6506 H   0  0  0  0  0  0  0  0  0  0  0  0
   14.3386   14.4987   22.8400 H   0  0  0  0  0  0  0  0  0  0  0  0
    4.4089   12.2435   25.2135 H   0  0  0  0  0  0  0  0  0  0  0  0
    7.2695   14.8017   23.2920 H   0  0  0  0  0  0  0  0  0  0  0  0
   11.8840   17.4606   20.9014 H   0  0  0  0  0  0  0  0  0  0  0  0
   12.3348   13.0871   23.3205 H   0  0  0  0  0  0  0  0  0  0  0  0
    5.9862   10.3527   25.1273 H   0  0  0  0  0  0  0  0  0  0  0  0
   10.0355    7.1327   25.7027 H   0  0  0  0  0  0  0  0  0  0  0  0
    8.6819    6.6667   24.6433 H   0  0  0  0  0  0  0  0  0  0  0  0
   10.3240    6.6871   24.0026 H   0  0  0  0  0  0  0  0  0  0  0  0
  1  4  1  0  0  0  0
  1  5  2  0  0  0  0
  2  3  1  0  0  0  0
  2  6  2  0  0  0  0
  3  7  2  0  0  0  0
  4  8  2  0  0  0  0
  5  9  1  0  0  0  0
  6 10  1  0  0  0  0
  7 11  1  0  0  0  0
  8 12  1  0  0  0  0
  9 12  2  0  0  0  0
  9 16  1  0  0  0  0
 10 11  2  0  0  0  0
 10 18  1  0  0  0  0
 11 22  1  0  0  0  0
 12 23  1  0  0  0  0
 13 14  1  0  0  0  0
 13 15  2  0  0  0  0
 13 24  1  0  0  0  0
 14 17  1  0  0  0  0
 14 19  2  0  0  0  0
 15 21  1  0  0  0  0
 15 23  1  0  0  0  0
 16 21  2  0  0  0  0
 16 22  1  0  0  0  0
 18 20  2  0  0  0  0
 19 23  1  0  0  0  0
 20 22  1  0  0  0  0
  1 25  1  0  0  0  0
  2 26  1  0  0  0  0
  3 27  1  0  0  0  0
  4 28  1  0  0  0  0
  5 29  1  0  0  0  0
  6 30  1  0  0  0  0
  7 31  1  0  0  0  0
  8 32  1  0  0  0  0
 17 33  1  0  0  0  0
 17 34  1  0  0  0  0
 17 35  1  0  0  0  0
M  END
> <idnumber>
Z196118330

> <heavy_atoms>
24

> <LogS>
-5.73

> <LogP>
4.513

> <rotating_bonds>
1

> <PSA>
60.9

> <hb_acceptors>
4

> <hb_donors>
0

> <Collection>
HTS

> <link>
https://www.enaminestore.com/catalog/Z196118330

> <ROCS_ShapeQuery>
x0446_0A_x1080_0A_x0929_0A_x0812_0A_x0719_0A_x1140_0A_x0528_0A_x0310_0A

> <ROCS_TanimotoCombo>
0.458 

> <ROCS_ShapeTanimoto>
0.275 

> <ROCS_ColorTanimoto>
0.183 

> <ROCS_RefTversky>
0.247 

> <ROCS_RefColorTversky>
0.201 

> <ROCS_RefTverskyCombo>
0.448 

> <ROCS_FitTversky>
1.691 

> <ROCS_FitColorTversky>
0.668 

> <ROCS_FitTverskyCombo>
2.358 

> <ROCS_ColorScore>
-7.199

> <ROCS_Overlap>
2920.973

> <ROCS_Rank>
354                 

$$$$
untitled-dbase-1174564_27
  -OEChem-02092406493D

 34 37  0     0  0  0  0  0  0999 V2000
   13.0826   15.9167   21.9607 C   0  0  0  0  0  0  0  0  0  0  0  0
   13.2280   14.7049   22.6428 C   0  0  0  0  0  0  0  0  0  0  0  0
   11.8275   16.3482   21.5116 C   0  0  0  0  0  0  0  0  0  0  0  0
   12.1283   13.8793   22.9020 C   0  0  0  0  0  0  0  0  0  0  0  0
    6.2986   11.2235   24.7249 C   0  0  0  0  0  0  0  0  0  0  0  0
    5.6666   12.4322   24.5414 C   0  0  0  0  0  0  0  0  0  0  0  0
   10.7171   15.5298   21.7651 C   0  0  0  0  0  0  0  0  0  0  0  0
    7.6284   11.2240   24.2072 C   0  0  0  0  0  0  0  0  0  0  0  0
   10.8926   14.3322   22.4447 C   0  0  0  0  0  0  0  0  0  0  0  0
    7.9656   12.4521   23.6397 C   0  0  0  0  0  0  0  0  0  0  0  0
    9.2302   12.6204   23.0878 C   0  0  0  0  0  0  0  0  0  0  0  0
    9.6884   10.4472   23.6815 C   0  0  0  0  0  0  0  0  0  0  0  0
   10.6518    9.3621   23.6918 C   0  0  0  0  0  0  0  0  0  0  0  0
   13.6545    9.9573   22.8853 C   0  0  0  0  0  0  0  0  0  0  0  0
   13.0109    9.0885   23.9449 C   0  0  0  0  0  0  0  0  0  0  0  0
    8.4968   10.1782   24.2408 N   0  0  0  0  0  0  0  0  0  0  0  0
    9.3923   15.6859   21.4534 N   0  0  0  0  0  0  0  0  0  0  0  0
   10.1033   11.5941   23.1127 N   0  0  0  0  0  0  0  0  0  0  0  0
    8.7336   14.6281   21.9143 N   0  0  0  0  0  0  0  0  0  0  0  0
    9.6289   13.8200   22.5057 N   0  0  0  0  0  0  0  0  0  0  0  0
   10.4753    8.2596   23.1523 O   0  0  0  0  0  0  0  0  0  0  0  0
   11.7902    9.7020   24.3727 O   0  0  0  0  0  0  0  0  0  0  0  0
    6.6669   13.5686   23.7486 S   0  0  0  0  0  0  0  0  0  0  0  0
   13.9574   16.5346   21.7747 H   0  0  0  0  0  0  0  0  0  0  0  0
   14.2152   14.3973   22.9793 H   0  0  0  0  0  0  0  0  0  0  0  0
   11.7241   17.2903   20.9834 H   0  0  0  0  0  0  0  0  0  0  0  0
   12.2418   12.9400   23.4306 H   0  0  0  0  0  0  0  0  0  0  0  0
    5.8276   10.3775   25.2092 H   0  0  0  0  0  0  0  0  0  0  0  0
    4.6625   12.7013   24.8372 H   0  0  0  0  0  0  0  0  0  0  0  0
   12.9968   10.0673   22.0186 H   0  0  0  0  0  0  0  0  0  0  0  0
   13.8807   10.9509   23.2859 H   0  0  0  0  0  0  0  0  0  0  0  0
   14.6042    9.5235   22.5552 H   0  0  0  0  0  0  0  0  0  0  0  0
   13.6738    8.9825   24.8088 H   0  0  0  0  0  0  0  0  0  0  0  0
   12.7848    8.0965   23.5428 H   0  0  0  0  0  0  0  0  0  0  0  0
  1  2  1  0  0  0  0
  1  3  2  0  0  0  0
  2  4  2  0  0  0  0
  3  7  1  0  0  0  0
  4  9  1  0  0  0  0
  5  6  2  0  0  0  0
  5  8  1  0  0  0  0
  6 23  1  0  0  0  0
  7  9  2  0  0  0  0
  7 17  1  0  0  0  0
  8 10  2  0  0  0  0
  8 16  1  0  0  0  0
  9 20  1  0  0  0  0
 10 11  1  0  0  0  0
 10 23  1  0  0  0  0
 11 18  2  0  0  0  0
 11 20  1  0  0  0  0
 12 13  1  0  0  0  0
 12 16  2  0  0  0  0
 12 18  1  0  0  0  0
 13 21  2  0  0  0  0
 13 22  1  0  0  0  0
 14 15  1  0  0  0  0
 15 22  1  0  0  0  0
 17 19  2  0  0  0  0
 19 20  1  0  0  0  0
  1 24  1  0  0  0  0
  2 25  1  0  0  0  0
  3 26  1  0  0  0  0
  4 27  1  0  0  0  0
  5 28  1  0  0  0  0
  6 29  1  0  0  0  0
 14 30  1  0  0  0  0
 14 31  1  0  0  0  0
 14 32  1  0  0  0  0
 15 33  1  0  0  0  0
 15 34  1  0  0  0  0
M  END
> <idnumber>
Z8645208818

> <heavy_atoms>
23

> <LogS>
-3.588

> <LogP>
2.722

> <rotating_bonds>
4

> <PSA>
82.79

> <hb_acceptors>
5

> <hb_donors>
0

> <Collection>
Advanced

> <link>
https://www.enaminestore.com/catalog/Z8645208818

> <ROCS_ShapeQuery>
x0446_0A_x1080_0A_x0929_0A_x0812_0A_x0719_0A_x1140_0A_x0528_0A_x0310_0A

> <ROCS_TanimotoCombo>
0.458 

> <ROCS_ShapeTanimoto>
0.266 

> <ROCS_ColorTanimoto>
0.191 

> <ROCS_RefTversky>
0.240 

> <ROCS_RefColorTversky>
0.209 

> <ROCS_RefTverskyCombo>
0.449 

> <ROCS_FitTversky>
1.715 

> <ROCS_FitColorTversky>
0.694 

> <ROCS_FitTverskyCombo>
2.409 

> <ROCS_ColorScore>
-7.482

> <ROCS_Overlap>
2831.658

> <ROCS_Rank>
355                 

$$$$
untitled-dbase-329405_79
  -OEChem-02092406493D

 42 45  0     0  0  0  0  0  0999 V2000
    6.1200   14.8444   25.2127 C   0  0  0  0  0  0  0  0  0  0  0  0
    6.0378   15.5903   24.0369 C   0  0  0  0  0  0  0  0  0  0  0  0
   12.8796   16.4442   22.9017 C   0  0  0  0  0  0  0  0  0  0  0  0
    6.7538   13.6018   25.2075 C   0  0  0  0  0  0  0  0  0  0  0  0
    6.5892   15.0936   22.8559 C   0  0  0  0  0  0  0  0  0  0  0  0
   13.0906   15.0735   23.0513 C   0  0  0  0  0  0  0  0  0  0  0  0
   11.7380   16.9068   22.2472 C   0  0  0  0  0  0  0  0  0  0  0  0
   11.0184   14.6280   21.8917 C   0  0  0  0  0  0  0  0  0  0  0  0
    7.3052   13.1050   24.0264 C   0  0  0  0  0  0  0  0  0  0  0  0
   12.1600   14.1654   22.5463 C   0  0  0  0  0  0  0  0  0  0  0  0
   10.8074   15.9987   21.7421 C   0  0  0  0  0  0  0  0  0  0  0  0
    7.2229   13.8509   22.8506 C   0  0  0  0  0  0  0  0  0  0  0  0
    7.9564   11.8177   24.0422 C   0  0  0  0  0  0  0  0  0  0  0  0
    9.4823   10.2668   23.8607 C   0  0  0  0  0  0  0  0  0  0  0  0
   10.7782    9.7772   23.5815 C   0  0  0  0  0  0  0  0  0  0  0  0
   11.7348   10.6312   23.1926 C   0  0  0  0  0  0  0  0  0  0  0  0
   11.3300   12.0473   23.0901 C   0  0  0  0  0  0  0  0  0  0  0  0
    9.5387   17.8642   20.9899 C   0  0  0  0  0  0  0  0  0  0  0  0
    6.8988   12.6092   20.8483 C   0  0  0  0  0  0  0  0  0  0  0  0
    7.4013   10.6716   24.3661 N   0  0  0  0  0  0  0  0  0  0  0  0
    8.3656    9.6899   24.2517 N   0  0  0  0  0  0  0  0  0  0  0  0
   10.1684   12.5627   23.3289 N   0  0  0  0  0  0  0  0  0  0  0  0
    9.2661   11.6214   23.7157 N   0  0  0  0  0  0  0  0  0  0  0  0
   12.3700   12.8098   22.6926 O   0  0  0  0  0  0  0  0  0  0  0  0
    9.6926   16.4504   21.1055 O   0  0  0  0  0  0  0  0  0  0  0  0
    7.7526   13.3896   21.6816 O   0  0  0  0  0  0  0  0  0  0  0  0
    5.6898   15.2308   26.1322 H   0  0  0  0  0  0  0  0  0  0  0  0
    5.5448   16.5580   24.0411 H   0  0  0  0  0  0  0  0  0  0  0  0
   13.6042   17.1512   23.2950 H   0  0  0  0  0  0  0  0  0  0  0  0
    6.8095   13.0339   26.1329 H   0  0  0  0  0  0  0  0  0  0  0  0
    6.5219   15.6800   21.9436 H   0  0  0  0  0  0  0  0  0  0  0  0
   13.9819   14.7190   23.5617 H   0  0  0  0  0  0  0  0  0  0  0  0
   11.5782   17.9756   22.1346 H   0  0  0  0  0  0  0  0  0  0  0  0
   10.2934   13.9202   21.4977 H   0  0  0  0  0  0  0  0  0  0  0  0
   10.9861    8.7181   23.6839 H   0  0  0  0  0  0  0  0  0  0  0  0
   12.7453   10.3206   22.9635 H   0  0  0  0  0  0  0  0  0  0  0  0
    8.6086   18.0883   20.4619 H   0  0  0  0  0  0  0  0  0  0  0  0
   10.3892   18.2808   20.4445 H   0  0  0  0  0  0  0  0  0  0  0  0
    9.5011   18.3007   21.9908 H   0  0  0  0  0  0  0  0  0  0  0  0
    7.4430   12.3054   19.9507 H   0  0  0  0  0  0  0  0  0  0  0  0
    6.0199   13.1976   20.5729 H   0  0  0  0  0  0  0  0  0  0  0  0
    6.5818   11.7198   21.3980 H   0  0  0  0  0  0  0  0  0  0  0  0
  1  2  1  0  0  0  0
  1  4  2  0  0  0  0
  2  5  2  0  0  0  0
  3  6  1  0  0  0  0
  3  7  2  0  0  0  0
  4  9  1  0  0  0  0
  5 12  1  0  0  0  0
  6 10  2  0  0  0  0
  7 11  1  0  0  0  0
  8 10  1  0  0  0  0
  8 11  2  0  0  0  0
  9 12  2  0  0  0  0
  9 13  1  0  0  0  0
 10 24  1  0  0  0  0
 11 25  1  0  0  0  0
 12 26  1  0  0  0  0
 13 20  2  0  0  0  0
 13 23  1  0  0  0  0
 14 15  1  0  0  0  0
 14 21  2  0  0  0  0
 14 23  1  0  0  0  0
 15 16  2  0  0  0  0
 16 17  1  0  0  0  0
 17 22  2  0  0  0  0
 17 24  1  0  0  0  0
 18 25  1  0  0  0  0
 19 26  1  0  0  0  0
 20 21  1  0  0  0  0
 22 23  1  0  0  0  0
  1 27  1  0  0  0  0
  2 28  1  0  0  0  0
  3 29  1  0  0  0  0
  4 30  1  0  0  0  0
  5 31  1  0  0  0  0
  6 32  1  0  0  0  0
  7 33  1  0  0  0  0
  8 34  1  0  0  0  0
 15 35  1  0  0  0  0
 16 36  1  0  0  0  0
 18 37  1  0  0  0  0
 18 38  1  0  0  0  0
 18 39  1  0  0  0  0
 19 40  1  0  0  0  0
 19 41  1  0  0  0  0
 19 42  1  0  0  0  0
M  END
> <idnumber>
Z1037335646

> <heavy_atoms>
26

> <LogS>
-5.81

> <LogP>
3.028

> <rotating_bonds>
5

> <PSA>
70.77

> <hb_acceptors>
5

> <hb_donors>
0

> <Collection>
HTS

> <link>
https://www.enaminestore.com/catalog/Z1037335646

> <ROCS_ShapeQuery>
x0446_0A_x1080_0A_x0929_0A_x0812_0A_x0719_0A_x1140_0A_x0528_0A_x0310_0A

> <ROCS_TanimotoCombo>
0.458 

> <ROCS_ShapeTanimoto>
0.287 

> <ROCS_ColorTanimoto>
0.171 

> <ROCS_RefTversky>
0.257 

> <ROCS_RefColorTversky>
0.193 

> <ROCS_RefTverskyCombo>
0.450 

> <ROCS_FitTversky>
1.697 

> <ROCS_FitColorTversky>
0.593 

> <ROCS_FitTverskyCombo>
2.290 

> <ROCS_ColorScore>
-6.929

> <ROCS_Overlap>
3034.953

> <ROCS_Rank>
356                 

$$$$
untitled-dbase-962966_74
  -OEChem-02092406493D

 49 53  0     1  0  0  0  0  0999 V2000
    5.2178   16.5316   23.6765 C   0  0  0  0  0  0  0  0  0  0  0  0
    4.7415   15.4375   22.9542 C   0  0  0  0  0  0  0  0  0  0  0  0
    6.2237   16.3556   24.6267 C   0  0  0  0  0  0  0  0  0  0  0  0
    5.2710   14.1674   23.1822 C   0  0  0  0  0  0  0  0  0  0  0  0
    6.7531   15.0854   24.8547 C   0  0  0  0  0  0  0  0  0  0  0  0
   12.1735   16.6868   22.2204 C   0  0  0  0  0  0  0  0  0  0  0  0
   13.0351   15.7896   22.8562 C   0  0  0  0  0  0  0  0  0  0  0  0
    6.2768   13.9913   24.1325 C   0  0  0  0  0  0  0  0  0  0  0  0
   11.4618   13.9646   22.5065 C   0  0  0  0  0  0  0  0  0  0  0  0
   10.9755   16.1956   21.7437 C   0  0  0  0  0  0  0  0  0  0  0  0
   10.6292   14.8709   21.8828 C   0  0  0  0  0  0  0  0  0  0  0  0
   12.6813   14.4363   22.9983 C   0  0  0  0  0  0  0  0  0  0  0  0
    9.9477   11.9713   22.1828 C   0  0  0  0  0  0  0  0  0  0  0  0
    7.8947    9.6262   24.0133 C   0  0  0  0  0  0  0  0  0  0  0  0
    8.7525   10.1964   25.1506 C   0  0  0  0  0  0  0  0  0  0  0  0
    6.7915   11.7393   23.0725 C   0  0  0  0  0  0  0  0  0  0  0  0
    8.2925   12.7114   25.0062 C   0  0  0  0  0  0  0  0  0  0  0  0
    9.0274   15.8962   20.8509 C   0  0  0  0  0  0  0  0  0  0  0  0
    7.9226   10.7004   22.9268 C   0  0  1  0  0  0  0  0  0  0  0  0
    9.2406   11.5543   24.6363 C   0  0  2  0  0  0  0  0  0  0  0  0
    6.8602   12.5927   24.3843 C   0  0  0  0  0  0  0  0  0  0  0  0
    9.1709   11.3943   23.1893 N   0  0  0  0  0  0  0  0  0  0  0  0
   11.1008   12.6017   22.6465 N   0  0  0  0  0  0  0  0  0  0  0  0
    9.6024   11.9169   21.0007 O   0  0  0  0  0  0  0  0  0  0  0  0
   10.0166   16.9157   21.1005 O   0  0  0  0  0  0  0  0  0  0  0  0
    9.4101   14.5960   21.3443 O   0  0  0  0  0  0  0  0  0  0  0  0
    6.0311   11.9416   25.3605 O   0  0  0  0  0  0  0  0  0  0  0  0
   13.5308   13.6003   23.6132 F   0  0  0  0  0  0  0  0  0  0  0  0
    4.8064   17.5208   23.4978 H   0  0  0  0  0  0  0  0  0  0  0  0
    3.9591   15.5746   22.2135 H   0  0  0  0  0  0  0  0  0  0  0  0
    6.5955   17.2074   25.1885 H   0  0  0  0  0  0  0  0  0  0  0  0
    4.8936   13.3206   22.6149 H   0  0  0  0  0  0  0  0  0  0  0  0
    7.5365   14.9577   25.5972 H   0  0  0  0  0  0  0  0  0  0  0  0
   12.4417   17.7313   22.1103 H   0  0  0  0  0  0  0  0  0  0  0  0
   13.9876   16.1386   23.2454 H   0  0  0  0  0  0  0  0  0  0  0  0
    8.3577    8.7022   23.6447 H   0  0  0  0  0  0  0  0  0  0  0  0
    6.8820    9.3738   24.3433 H   0  0  0  0  0  0  0  0  0  0  0  0
    8.1969   10.2704   26.0919 H   0  0  0  0  0  0  0  0  0  0  0  0
    9.6074    9.5309   25.3274 H   0  0  0  0  0  0  0  0  0  0  0  0
    6.8311   12.4053   22.1979 H   0  0  0  0  0  0  0  0  0  0  0  0
    5.8247   11.2188   23.0259 H   0  0  0  0  0  0  0  0  0  0  0  0
    8.2157   12.7730   26.0995 H   0  0  0  0  0  0  0  0  0  0  0  0
    8.7592   13.6480   24.6704 H   0  0  0  0  0  0  0  0  0  0  0  0
    8.0888   16.1923   21.3334 H   0  0  0  0  0  0  0  0  0  0  0  0
    8.8599   15.8263   19.7696 H   0  0  0  0  0  0  0  0  0  0  0  0
    7.8926   10.2469   21.9262 H   0  0  0  0  0  0  0  0  0  0  0  0
   10.2605   11.7780   24.9682 H   0  0  0  0  0  0  0  0  0  0  0  0
   11.8339   12.0220   23.1447 H   0  0  0  0  0  0  0  0  0  0  0  0
    6.0616   12.4921   26.1576 H   0  0  0  0  0  0  0  0  0  0  0  0
  1  2  1  0  0  0  0
  1  3  2  0  0  0  0
  2  4  2  0  0  0  0
  3  5  1  0  0  0  0
  4  8  1  0  0  0  0
  5  8  2  0  0  0  0
  6  7  2  0  0  0  0
  6 10  1  0  0  0  0
  7 12  1  0  0  0  0
  8 21  1  0  0  0  0
  9 11  1  0  0  0  0
  9 12  2  0  0  0  0
  9 23  1  0  0  0  0
 10 11  2  0  0  0  0
 10 25  1  0  0  0  0
 11 26  1  0  0  0  0
 12 28  1  0  0  0  0
 13 22  1  0  0  0  0
 13 23  1  0  0  0  0
 13 24  2  0  0  0  0
 14 15  1  0  0  0  0
 14 19  1  0  0  0  0
 15 20  1  0  0  0  0
 16 19  1  0  0  0  0
 16 21  1  0  0  0  0
 17 20  1  0  0  0  0
 17 21  1  0  0  0  0
 18 25  1  0  0  0  0
 18 26  1  0  0  0  0
 19 22  1  0  0  0  0
 20 22  1  0  0  0  0
 21 27  1  0  0  0  0
  1 29  1  0  0  0  0
  2 30  1  0  0  0  0
  3 31  1  0  0  0  0
  4 32  1  0  0  0  0
  5 33  1  0  0  0  0
  6 34  1  0  0  0  0
  7 35  1  0  0  0  0
 14 36  1  0  0  0  0
 14 37  1  0  0  0  0
 15 38  1  0  0  0  0
 15 39  1  0  0  0  0
 16 40  1  0  0  0  0
 16 41  1  0  0  0  0
 17 42  1  0  0  0  0
 17 43  1  0  0  0  0
 18 44  1  0  0  0  0
 18 45  1  0  0  0  0
 19 46  1  0  0  0  0
 20 47  1  0  0  0  0
 23 48  1  0  0  0  0
 27 49  1  0  0  0  0
M  END
> <idnumber>
Z2843848731

> <heavy_atoms>
28

> <LogS>
-4.943

> <LogP>
1.885

> <rotating_bonds>
2

> <PSA>
71.03

> <hb_acceptors>
4

> <hb_donors>
2

> <Collection>
Advanced

> <link>
https://www.enaminestore.com/catalog/Z2843848731

> <ROCS_ShapeQuery>
x0446_0A_x1080_0A_x0929_0A_x0812_0A_x0719_0A_x1140_0A_x0528_0A_x0310_0A

> <ROCS_TanimotoCombo>
0.458 

> <ROCS_ShapeTanimoto>
0.269 

> <ROCS_ColorTanimoto>
0.189 

> <ROCS_RefTversky>
0.245 

> <ROCS_RefColorTversky>
0.229 

> <ROCS_RefTverskyCombo>
0.474 

> <ROCS_FitTversky>
1.549 

> <ROCS_FitColorTversky>
0.518 

> <ROCS_FitTverskyCombo>
2.067 

> <ROCS_ColorScore>
-8.267

> <ROCS_Overlap>
2901.229

> <ROCS_Rank>
357                 

$$$$
untitled-dbase-325882_17
  -OEChem-02092406493D

 40 43  0     0  0  0  0  0  0999 V2000
   13.1582   14.6147   22.3290 C   0  0  0  0  0  0  0  0  0  0  0  0
   12.2086   14.2673   23.2898 C   0  0  0  0  0  0  0  0  0  0  0  0
   11.3953   15.3684   20.8590 C   0  0  0  0  0  0  0  0  0  0  0  0
    8.0589   12.5756   24.0902 C   0  0  0  0  0  0  0  0  0  0  0  0
   12.7516   15.1653   21.1136 C   0  0  0  0  0  0  0  0  0  0  0  0
    6.9126   13.3784   24.2923 C   0  0  0  0  0  0  0  0  0  0  0  0
   10.8523   14.4704   23.0351 C   0  0  0  0  0  0  0  0  0  0  0  0
   10.4456   15.0209   21.8197 C   0  0  0  0  0  0  0  0  0  0  0  0
    5.7623   12.6418   24.3714 C   0  0  0  0  0  0  0  0  0  0  0  0
    9.4223   12.8449   23.9490 C   0  0  0  0  0  0  0  0  0  0  0  0
    7.6832   11.2311   24.0271 C   0  0  0  0  0  0  0  0  0  0  0  0
    9.7951   10.5821   23.7216 C   0  0  0  0  0  0  0  0  0  0  0  0
   13.7420   15.5294   20.1129 C   0  0  0  0  0  0  0  0  0  0  0  0
    6.6311   14.8274   24.4459 C   0  0  0  0  0  0  0  0  0  0  0  0
    4.5404   13.4508   24.5850 C   0  0  0  0  0  0  0  0  0  0  0  0
    5.0795   14.8826   24.2798 C   0  0  0  0  0  0  0  0  0  0  0  0
   10.7928    9.4911   23.5137 C   0  0  0  0  0  0  0  0  0  0  0  0
    8.5786   16.4893   21.9363 C   0  0  0  0  0  0  0  0  0  0  0  0
   10.2970   11.8329   23.7627 N   0  0  0  0  0  0  0  0  0  0  0  0
    8.5145   10.1869   23.8433 N   0  0  0  0  0  0  0  0  0  0  0  0
   13.4464   16.0195   19.0194 O   0  0  0  0  0  0  0  0  0  0  0  0
    9.9232   14.1227   23.9933 O   0  0  0  0  0  0  0  0  0  0  0  0
    9.1243   15.2265   21.5600 O   0  0  0  0  0  0  0  0  0  0  0  0
    5.9887   10.9936   24.2128 S   0  0  0  0  0  0  0  0  0  0  0  0
   14.2124   14.4521   22.5383 H   0  0  0  0  0  0  0  0  0  0  0  0
   12.5317   13.8385   24.2344 H   0  0  0  0  0  0  0  0  0  0  0  0
   11.0751   15.7997   19.9133 H   0  0  0  0  0  0  0  0  0  0  0  0
   14.8107   15.3503   20.3619 H   0  0  0  0  0  0  0  0  0  0  0  0
    6.9217   15.1698   25.4445 H   0  0  0  0  0  0  0  0  0  0  0  0
    7.1309   15.4404   23.6909 H   0  0  0  0  0  0  0  0  0  0  0  0
    3.7201   13.1847   23.9129 H   0  0  0  0  0  0  0  0  0  0  0  0
    4.2037   13.3810   25.6243 H   0  0  0  0  0  0  0  0  0  0  0  0
    4.6198   15.6443   24.9170 H   0  0  0  0  0  0  0  0  0  0  0  0
    4.8422   15.1378   23.2383 H   0  0  0  0  0  0  0  0  0  0  0  0
   11.1691    9.1308   24.4784 H   0  0  0  0  0  0  0  0  0  0  0  0
   10.3493    8.6452   22.9738 H   0  0  0  0  0  0  0  0  0  0  0  0
   11.6438    9.8403   22.9153 H   0  0  0  0  0  0  0  0  0  0  0  0
    7.5184   16.5219   21.6735 H   0  0  0  0  0  0  0  0  0  0  0  0
    9.1174   17.2883   21.4208 H   0  0  0  0  0  0  0  0  0  0  0  0
    8.6881   16.6164   23.0159 H   0  0  0  0  0  0  0  0  0  0  0  0
  1  2  2  0  0  0  0
  1  5  1  0  0  0  0
  2  7  1  0  0  0  0
  3  5  2  0  0  0  0
  3  8  1  0  0  0  0
  4  6  1  0  0  0  0
  4 10  2  0  0  0  0
  4 11  1  0  0  0  0
  5 13  1  0  0  0  0
  6  9  2  0  0  0  0
  6 14  1  0  0  0  0
  7  8  2  0  0  0  0
  7 22  1  0  0  0  0
  8 23  1  0  0  0  0
  9 15  1  0  0  0  0
  9 24  1  0  0  0  0
 10 19  1  0  0  0  0
 10 22  1  0  0  0  0
 11 20  2  0  0  0  0
 11 24  1  0  0  0  0
 12 17  1  0  0  0  0
 12 19  2  0  0  0  0
 12 20  1  0  0  0  0
 13 21  2  0  0  0  0
 14 16  1  0  0  0  0
 15 16  1  0  0  0  0
 18 23  1  0  0  0  0
  1 25  1  0  0  0  0
  2 26  1  0  0  0  0
  3 27  1  0  0  0  0
 13 28  1  0  0  0  0
 14 29  1  0  0  0  0
 14 30  1  0  0  0  0
 15 31  1  0  0  0  0
 15 32  1  0  0  0  0
 16 33  1  0  0  0  0
 16 34  1  0  0  0  0
 17 35  1  0  0  0  0
 17 36  1  0  0  0  0
 17 37  1  0  0  0  0
 18 38  1  0  0  0  0
 18 39  1  0  0  0  0
 18 40  1  0  0  0  0
M  END
> <idnumber>
Z31204932

> <heavy_atoms>
24

> <LogS>
-5.145

> <LogP>
3.783

> <rotating_bonds>
4

> <PSA>
61.31

> <hb_acceptors>
4

> <hb_donors>
0

> <Collection>
Functional

> <link>
https://www.enaminestore.com/catalog/Z31204932

> <ROCS_ShapeQuery>
x0446_0A_x1080_0A_x0929_0A_x0812_0A_x0719_0A_x1140_0A_x0528_0A_x0310_0A

> <ROCS_TanimotoCombo>
0.458 

> <ROCS_ShapeTanimoto>
0.253 

> <ROCS_ColorTanimoto>
0.205 

> <ROCS_RefTversky>
0.230 

> <ROCS_RefColorTversky>
0.220 

> <ROCS_RefTverskyCombo>
0.450 

> <ROCS_FitTversky>
1.631 

> <ROCS_FitColorTversky>
0.750 

> <ROCS_FitTverskyCombo>
2.381 

> <ROCS_ColorScore>
-7.857

> <ROCS_Overlap>
2722.687

> <ROCS_Rank>
358                 

$$$$
untitled-dbase-163133_0
  -OEChem-02092406493D

 42 45  0     0  0  0  0  0  0999 V2000
   12.3506   15.2336   21.8043 C   0  0  0  0  0  0  0  0  0  0  0  0
   12.2183   14.8440   23.1391 C   0  0  0  0  0  0  0  0  0  0  0  0
    9.7757   10.0877   23.6820 C   0  0  0  0  0  0  0  0  0  0  0  0
    8.4245    9.8778   23.9164 C   0  0  0  0  0  0  0  0  0  0  0  0
    6.2054   10.7837   24.4228 C   0  0  0  0  0  0  0  0  0  0  0  0
   11.2261   15.5363   21.0263 C   0  0  0  0  0  0  0  0  0  0  0  0
   10.9614   14.7427   23.7445 C   0  0  0  0  0  0  0  0  0  0  0  0
    5.3873   11.8792   24.6835 C   0  0  0  0  0  0  0  0  0  0  0  0
   10.2357   11.3884   23.7216 C   0  0  0  0  0  0  0  0  0  0  0  0
    7.5781   10.9628   24.1813 C   0  0  0  0  0  0  0  0  0  0  0  0
    7.3007   13.3333   24.4637 C   0  0  0  0  0  0  0  0  0  0  0  0
    9.9554   15.4397   21.6183 C   0  0  0  0  0  0  0  0  0  0  0  0
    8.1420   12.2557   24.2006 C   0  0  0  0  0  0  0  0  0  0  0  0
    9.8556   15.0489   22.9507 C   0  0  0  0  0  0  0  0  0  0  0  0
    5.9360   13.1554   24.7038 C   0  0  0  0  0  0  0  0  0  0  0  0
    7.8669   15.4388   22.0631 C   0  0  0  0  0  0  0  0  0  0  0  0
    7.8861   14.7156   24.4874 C   0  0  0  0  0  0  0  0  0  0  0  0
    5.7151   15.9223   20.8964 C   0  0  0  0  0  0  0  0  0  0  0  0
    4.2457   15.9411   21.2764 C   0  0  0  0  0  0  0  0  0  0  0  0
    9.4530   12.4625   23.9734 N   0  0  0  0  0  0  0  0  0  0  0  0
    8.7100   15.6777   21.0837 N   0  0  0  0  0  0  0  0  0  0  0  0
    8.5087   15.0571   23.2083 N   0  0  0  0  0  0  0  0  0  0  0  0
    6.5156   15.5269   22.0533 N   0  0  0  0  0  0  0  0  0  0  0  0
    3.8429   14.6353   21.6694 O   0  0  0  0  0  0  0  0  0  0  0  0
    4.8950   14.4943   25.0300 Cl  0  0  0  0  0  0  0  0  0  0  0  0
   13.3412   15.3032   21.3620 H   0  0  0  0  0  0  0  0  0  0  0  0
   13.1087   14.6154   23.7196 H   0  0  0  0  0  0  0  0  0  0  0  0
   10.4444    9.2604   23.4757 H   0  0  0  0  0  0  0  0  0  0  0  0
    8.0350    8.8626   23.8912 H   0  0  0  0  0  0  0  0  0  0  0  0
    5.7660    9.7887   24.4091 H   0  0  0  0  0  0  0  0  0  0  0  0
   11.3392   15.8380   19.9901 H   0  0  0  0  0  0  0  0  0  0  0  0
   10.8600   14.4406   24.7807 H   0  0  0  0  0  0  0  0  0  0  0  0
    4.3283   11.7193   24.8677 H   0  0  0  0  0  0  0  0  0  0  0  0
   11.2825   11.6135   23.5460 H   0  0  0  0  0  0  0  0  0  0  0  0
    7.1191   15.4706   24.7052 H   0  0  0  0  0  0  0  0  0  0  0  0
    8.6470   14.8139   25.2730 H   0  0  0  0  0  0  0  0  0  0  0  0
    5.9066   15.2104   20.0872 H   0  0  0  0  0  0  0  0  0  0  0  0
    6.0397   16.9186   20.5813 H   0  0  0  0  0  0  0  0  0  0  0  0
    3.6395   16.2366   20.4144 H   0  0  0  0  0  0  0  0  0  0  0  0
    4.0525   16.6329   22.1027 H   0  0  0  0  0  0  0  0  0  0  0  0
    5.9835   15.3073   22.9065 H   0  0  0  0  0  0  0  0  0  0  0  0
    2.9024   14.6914   21.9029 H   0  0  0  0  0  0  0  0  0  0  0  0
  1  2  1  0  0  0  0
  1  6  2  0  0  0  0
  2  7  2  0  0  0  0
  3  4  2  0  0  0  0
  3  9  1  0  0  0  0
  4 10  1  0  0  0  0
  5  8  1  0  0  0  0
  5 10  2  0  0  0  0
  6 12  1  0  0  0  0
  7 14  1  0  0  0  0
  8 15  2  0  0  0  0
  9 20  2  0  0  0  0
 10 13  1  0  0  0  0
 11 13  2  0  0  0  0
 11 15  1  0  0  0  0
 11 17  1  0  0  0  0
 12 14  2  0  0  0  0
 12 21  1  0  0  0  0
 13 20  1  0  0  0  0
 14 22  1  0  0  0  0
 15 25  1  0  0  0  0
 16 21  2  0  0  0  0
 16 22  1  0  0  0  0
 16 23  1  0  0  0  0
 17 22  1  0  0  0  0
 18 19  1  0  0  0  0
 18 23  1  0  0  0  0
 19 24  1  0  0  0  0
  1 26  1  0  0  0  0
  2 27  1  0  0  0  0
  3 28  1  0  0  0  0
  4 29  1  0  0  0  0
  5 30  1  0  0  0  0
  6 31  1  0  0  0  0
  7 32  1  0  0  0  0
  8 33  1  0  0  0  0
  9 34  1  0  0  0  0
 17 35  1  0  0  0  0
 17 36  1  0  0  0  0
 18 37  1  0  0  0  0
 18 38  1  0  0  0  0
 19 39  1  0  0  0  0
 19 40  1  0  0  0  0
 23 41  1  0  0  0  0
 24 42  1  0  0  0  0
M  END
> <idnumber>
Z729207998

> <heavy_atoms>
25

> <LogS>
-4.693

> <LogP>
3.52

> <rotating_bonds>
5

> <PSA>
62.97

> <hb_acceptors>
4

> <hb_donors>
2

> <Collection>
HTS

> <link>
https://www.enaminestore.com/catalog/Z729207998

> <ROCS_ShapeQuery>
x0446_0A_x1080_0A_x0929_0A_x0812_0A_x0719_0A_x1140_0A_x0528_0A_x0310_0A

> <ROCS_TanimotoCombo>
0.457 

> <ROCS_ShapeTanimoto>
0.260 

> <ROCS_ColorTanimoto>
0.197 

> <ROCS_RefTversky>
0.237 

> <ROCS_RefColorTversky>
0.217 

> <ROCS_RefTverskyCombo>
0.454 

> <ROCS_FitTversky>
1.622 

> <ROCS_FitColorTversky>
0.682 

> <ROCS_FitTverskyCombo>
2.305 

> <ROCS_ColorScore>
-7.771

> <ROCS_Overlap>
2799.661

> <ROCS_Rank>
359                 

$$$$
untitled-dbase-412227_25
  -OEChem-02092406493D

 41 44  0     0  0  0  0  0  0999 V2000
    6.7798   17.6285   24.6120 C   0  0  0  0  0  0  0  0  0  0  0  0
    6.0828   16.9923   23.5849 C   0  0  0  0  0  0  0  0  0  0  0  0
    7.5151   16.8749   25.5271 C   0  0  0  0  0  0  0  0  0  0  0  0
   13.1591   14.6108   22.3511 C   0  0  0  0  0  0  0  0  0  0  0  0
   12.7630   15.1562   21.1300 C   0  0  0  0  0  0  0  0  0  0  0  0
    6.1209   15.6025   23.4728 C   0  0  0  0  0  0  0  0  0  0  0  0
    7.5531   15.4850   25.4150 C   0  0  0  0  0  0  0  0  0  0  0  0
   12.2013   14.2687   23.3057 C   0  0  0  0  0  0  0  0  0  0  0  0
   11.4091   15.3597   20.8635 C   0  0  0  0  0  0  0  0  0  0  0  0
    5.7246   12.6904   24.3477 C   0  0  0  0  0  0  0  0  0  0  0  0
    9.7917   10.5938   23.7337 C   0  0  0  0  0  0  0  0  0  0  0  0
    8.0421   12.5799   24.0805 C   0  0  0  0  0  0  0  0  0  0  0  0
    6.8560   14.8488   24.3879 C   0  0  0  0  0  0  0  0  0  0  0  0
    6.8954   13.4132   24.2724 C   0  0  0  0  0  0  0  0  0  0  0  0
   10.8473   14.4722   23.0392 C   0  0  0  0  0  0  0  0  0  0  0  0
   10.4512   15.0177   21.8181 C   0  0  0  0  0  0  0  0  0  0  0  0
    9.4074   12.8534   23.9492 C   0  0  0  0  0  0  0  0  0  0  0  0
    7.6760   11.2416   24.0187 C   0  0  0  0  0  0  0  0  0  0  0  0
    7.5557   16.5400   20.3171 C   0  0  0  0  0  0  0  0  0  0  0  0
    8.7263   16.5628   21.2767 C   0  0  0  0  0  0  0  0  0  0  0  0
   10.2887   11.8455   23.7741 N   0  0  0  0  0  0  0  0  0  0  0  0
    8.5110   10.1983   23.8458 N   0  0  0  0  0  0  0  0  0  0  0  0
    9.9104   14.1309   23.9917 O   0  0  0  0  0  0  0  0  0  0  0  0
    9.1321   15.2224   21.5464 O   0  0  0  0  0  0  0  0  0  0  0  0
    5.9962   11.0092   24.1876 S   0  0  0  0  0  0  0  0  0  0  0  0
    6.7512   18.7107   24.6989 H   0  0  0  0  0  0  0  0  0  0  0  0
    5.5114   17.5789   22.8717 H   0  0  0  0  0  0  0  0  0  0  0  0
    8.0587   17.3705   26.3259 H   0  0  0  0  0  0  0  0  0  0  0  0
   14.2136   14.4521   22.5586 H   0  0  0  0  0  0  0  0  0  0  0  0
   13.5086   15.4226   20.3869 H   0  0  0  0  0  0  0  0  0  0  0  0
    5.5721   15.1212   22.6666 H   0  0  0  0  0  0  0  0  0  0  0  0
    8.1309   14.9118   26.1363 H   0  0  0  0  0  0  0  0  0  0  0  0
   12.5165   13.8440   24.2550 H   0  0  0  0  0  0  0  0  0  0  0  0
   11.1075   15.7866   19.9109 H   0  0  0  0  0  0  0  0  0  0  0  0
    4.7175   13.0601   24.4890 H   0  0  0  0  0  0  0  0  0  0  0  0
   10.5197    9.8025   23.5922 H   0  0  0  0  0  0  0  0  0  0  0  0
    7.8342   16.0632   19.3732 H   0  0  0  0  0  0  0  0  0  0  0  0
    6.7106   15.9964   20.7519 H   0  0  0  0  0  0  0  0  0  0  0  0
    7.2071   17.5572   20.1096 H   0  0  0  0  0  0  0  0  0  0  0  0
    8.4411   17.0409   22.2186 H   0  0  0  0  0  0  0  0  0  0  0  0
    9.5701   17.1056   20.8404 H   0  0  0  0  0  0  0  0  0  0  0  0
  1  2  1  0  0  0  0
  1  3  2  0  0  0  0
  2  6  2  0  0  0  0
  3  7  1  0  0  0  0
  4  5  1  0  0  0  0
  4  8  2  0  0  0  0
  5  9  2  0  0  0  0
  6 13  1  0  0  0  0
  7 13  2  0  0  0  0
  8 15  1  0  0  0  0
  9 16  1  0  0  0  0
 10 14  2  0  0  0  0
 10 25  1  0  0  0  0
 11 21  2  0  0  0  0
 11 22  1  0  0  0  0
 12 14  1  0  0  0  0
 12 17  2  0  0  0  0
 12 18  1  0  0  0  0
 13 14  1  0  0  0  0
 15 16  2  0  0  0  0
 15 23  1  0  0  0  0
 16 24  1  0  0  0  0
 17 21  1  0  0  0  0
 17 23  1  0  0  0  0
 18 22  2  0  0  0  0
 18 25  1  0  0  0  0
 19 20  1  0  0  0  0
 20 24  1  0  0  0  0
  1 26  1  0  0  0  0
  2 27  1  0  0  0  0
  3 28  1  0  0  0  0
  4 29  1  0  0  0  0
  5 30  1  0  0  0  0
  6 31  1  0  0  0  0
  7 32  1  0  0  0  0
  8 33  1  0  0  0  0
  9 34  1  0  0  0  0
 10 35  1  0  0  0  0
 11 36  1  0  0  0  0
 19 37  1  0  0  0  0
 19 38  1  0  0  0  0
 19 39  1  0  0  0  0
 20 40  1  0  0  0  0
 20 41  1  0  0  0  0
M  END
> <idnumber>
Z52587525

> <heavy_atoms>
25

> <LogS>
-7.3

> <LogP>
4.97

> <rotating_bonds>
5

> <PSA>
44.24

> <hb_acceptors>
3

> <hb_donors>
0

> <Collection>
Legacy

> <link>
https://www.enaminestore.com/catalog/Z52587525

> <ROCS_ShapeQuery>
x0446_0A_x1080_0A_x0929_0A_x0812_0A_x0719_0A_x1140_0A_x0528_0A_x0310_0A

> <ROCS_TanimotoCombo>
0.457 

> <ROCS_ShapeTanimoto>
0.248 

> <ROCS_ColorTanimoto>
0.209 

> <ROCS_RefTversky>
0.228 

> <ROCS_RefColorTversky>
0.219 

> <ROCS_RefTverskyCombo>
0.447 

> <ROCS_FitTversky>
1.572 

> <ROCS_FitColorTversky>
0.824 

> <ROCS_FitTverskyCombo>
2.396 

> <ROCS_ColorScore>
-7.819

> <ROCS_Overlap>
2693.193

> <ROCS_Rank>
360                 

$$$$
untitled-dbase-669407_145
  -OEChem-02092406493D

 44 48  0     1  0  0  0  0  0999 V2000
   13.4066   15.7061   23.1620 C   0  0  0  0  0  0  0  0  0  0  0  0
   12.1121   10.6239   22.3567 C   0  0  0  0  0  0  0  0  0  0  0  0
   11.7356    9.3532   22.7650 C   0  0  0  0  0  0  0  0  0  0  0  0
   13.6327   15.4896   21.7987 C   0  0  0  0  0  0  0  0  0  0  0  0
   12.1118   15.6610   23.6982 C   0  0  0  0  0  0  0  0  0  0  0  0
   11.2529   11.6979   22.5806 C   0  0  0  0  0  0  0  0  0  0  0  0
   10.5049    9.1721   23.3929 C   0  0  0  0  0  0  0  0  0  0  0  0
   12.5777   15.2205   20.9207 C   0  0  0  0  0  0  0  0  0  0  0  0
   11.0442   15.3923   22.8292 C   0  0  0  0  0  0  0  0  0  0  0  0
   10.0213   11.5203   23.2081 C   0  0  0  0  0  0  0  0  0  0  0  0
    9.6436   10.2441   23.6189 C   0  0  0  0  0  0  0  0  0  0  0  0
   11.3067   15.1833   21.4865 C   0  0  0  0  0  0  0  0  0  0  0  0
    9.6450   15.2578   22.9173 C   0  0  0  0  0  0  0  0  0  0  0  0
    8.0104   12.3836   24.0250 C   0  0  0  0  0  0  0  0  0  0  0  0
    7.6305   11.1091   24.4490 C   0  0  0  0  0  0  0  0  0  0  0  0
    7.3935   14.8407   23.9019 C   0  0  0  0  0  0  0  0  0  0  0  0
    5.7568   13.1774   24.6434 C   0  0  0  0  0  0  0  0  0  0  0  0
    5.7220   12.0371   25.6403 C   0  0  0  0  0  0  0  0  0  0  0  0
    6.1138    9.5668   25.6125 C   0  0  0  0  0  0  0  0  0  0  0  0
    8.7823   15.3807   24.1361 C   0  0  0  0  0  0  0  0  0  0  0  0
    9.2032   12.5614   23.4139 N   0  0  0  0  0  0  0  0  0  0  0  0
    8.4633   10.0580   24.2252 N   0  0  0  0  0  0  0  0  0  0  0  0
    9.0839   14.9891   21.7346 N   0  0  0  0  0  0  0  0  0  0  0  0
    7.1181   13.4997   24.2062 N   0  0  0  0  0  0  0  0  0  0  0  0
    6.4143   10.8891   25.0908 N   0  0  2  0  0  0  0  0  0  0  0  0
    6.5381   15.6202   23.4638 O   0  0  0  0  0  0  0  0  0  0  0  0
   10.1383   14.9427   20.8308 O   0  0  0  0  0  0  0  0  0  0  0  0
   14.2491   15.9130   23.8172 H   0  0  0  0  0  0  0  0  0  0  0  0
   13.0675   10.7817   21.8661 H   0  0  0  0  0  0  0  0  0  0  0  0
   12.3935    8.5061   22.5976 H   0  0  0  0  0  0  0  0  0  0  0  0
   14.6486   15.5311   21.4136 H   0  0  0  0  0  0  0  0  0  0  0  0
   11.9510   15.8313   24.7579 H   0  0  0  0  0  0  0  0  0  0  0  0
   11.5571   12.6906   22.2549 H   0  0  0  0  0  0  0  0  0  0  0  0
   10.2194    8.1713   23.7103 H   0  0  0  0  0  0  0  0  0  0  0  0
   12.7426   15.0524   19.8634 H   0  0  0  0  0  0  0  0  0  0  0  0
    5.1794   12.9278   23.7472 H   0  0  0  0  0  0  0  0  0  0  0  0
    5.2899   14.0502   25.1030 H   0  0  0  0  0  0  0  0  0  0  0  0
    6.1911   12.3386   26.5842 H   0  0  0  0  0  0  0  0  0  0  0  0
    4.6789   11.7882   25.8615 H   0  0  0  0  0  0  0  0  0  0  0  0
    5.1196    9.5750   26.0832 H   0  0  0  0  0  0  0  0  0  0  0  0
    6.1236    8.8371   24.7894 H   0  0  0  0  0  0  0  0  0  0  0  0
    6.8709    9.2868   26.3598 H   0  0  0  0  0  0  0  0  0  0  0  0
    9.2258   14.8379   24.9710 H   0  0  0  0  0  0  0  0  0  0  0  0
    8.6949   16.4210   24.4487 H   0  0  0  0  0  0  0  0  0  0  0  0
  1  4  1  0  0  0  0
  1  5  2  0  0  0  0
  2  3  1  0  0  0  0
  2  6  2  0  0  0  0
  3  7  2  0  0  0  0
  4  8  2  0  0  0  0
  5  9  1  0  0  0  0
  6 10  1  0  0  0  0
  7 11  1  0  0  0  0
  8 12  1  0  0  0  0
  9 12  2  0  0  0  0
  9 13  1  0  0  0  0
 10 11  1  0  0  0  0
 10 21  2  0  0  0  0
 11 22  2  0  0  0  0
 12 27  1  0  0  0  0
 13 20  1  0  0  0  0
 13 23  2  0  0  0  0
 14 15  2  0  0  0  0
 14 21  1  0  0  0  0
 14 24  1  0  0  0  0
 15 22  1  0  0  0  0
 15 25  1  0  0  0  0
 16 20  1  0  0  0  0
 16 24  1  0  0  0  0
 16 26  2  0  0  0  0
 17 18  1  0  0  0  0
 17 24  1  0  0  0  0
 18 25  1  0  0  0  0
 19 25  1  0  0  0  0
 23 27  1  0  0  0  0
  1 28  1  0  0  0  0
  2 29  1  0  0  0  0
  3 30  1  0  0  0  0
  4 31  1  0  0  0  0
  5 32  1  0  0  0  0
  6 33  1  0  0  0  0
  7 34  1  0  0  0  0
  8 35  1  0  0  0  0
 17 36  1  0  0  0  0
 17 37  1  0  0  0  0
 18 38  1  0  0  0  0
 18 39  1  0  0  0  0
 19 40  1  0  0  0  0
 19 41  1  0  0  0  0
 19 42  1  0  0  0  0
 20 43  1  0  0  0  0
 20 44  1  0  0  0  0
M  END
> <idnumber>
Z240671082

> <heavy_atoms>
27

> <LogS>
-4.41

> <LogP>
2.526

> <rotating_bonds>
2

> <PSA>
75.36

> <hb_acceptors>
5

> <hb_donors>
0

> <Collection>
HTS

> <link>
https://www.enaminestore.com/catalog/Z240671082

> <ROCS_ShapeQuery>
x0446_0A_x1080_0A_x0929_0A_x0812_0A_x0719_0A_x1140_0A_x0528_0A_x0310_0A

> <ROCS_TanimotoCombo>
0.457 

> <ROCS_ShapeTanimoto>
0.284 

> <ROCS_ColorTanimoto>
0.173 

> <ROCS_RefTversky>
0.256 

> <ROCS_RefColorTversky>
0.191 

> <ROCS_RefTverskyCombo>
0.446 

> <ROCS_FitTversky>
1.640 

> <ROCS_FitColorTversky>
0.653 

> <ROCS_FitTverskyCombo>
2.293 

> <ROCS_ColorScore>
-6.818

> <ROCS_Overlap>
3027.490

> <ROCS_Rank>
361                 

$$$$
untitled-dbase-715925_7
  -OEChem-02092406493D

 49 52  0     1  0  0  0  0  0999 V2000
   13.9990   15.9561   20.5905 C   0  0  0  0  0  0  0  0  0  0  0  0
   13.1294   15.2784   22.7730 C   0  0  0  0  0  0  0  0  0  0  0  0
   12.0555   14.9737   23.6094 C   0  0  0  0  0  0  0  0  0  0  0  0
   11.5940   15.7053   20.9571 C   0  0  0  0  0  0  0  0  0  0  0  0
   12.8986   15.6442   21.4468 C   0  0  0  0  0  0  0  0  0  0  0  0
   10.7508   15.0348   23.1196 C   0  0  0  0  0  0  0  0  0  0  0  0
   10.5201   15.4007   21.7935 C   0  0  0  0  0  0  0  0  0  0  0  0
    8.9332    9.4796   24.7371 C   0  0  0  0  0  0  0  0  0  0  0  0
    7.6236   10.2869   24.8411 C   0  0  0  0  0  0  0  0  0  0  0  0
   10.2067   11.5317   24.1099 C   0  0  0  0  0  0  0  0  0  0  0  0
    6.5937   12.1904   23.4092 C   0  0  0  0  0  0  0  0  0  0  0  0
    9.6837   10.1734   23.5718 C   0  0  2  0  0  0  0  0  0  0  0  0
    8.9137   12.3281   24.3367 C   0  0  2  0  0  0  0  0  0  0  0  0
    7.8251   11.3740   23.7587 C   0  0  1  0  0  0  0  0  0  0  0  0
    8.5433   10.5900   22.6126 C   0  0  0  0  0  0  0  0  0  0  0  0
    9.0228   11.3952   21.3896 C   0  0  0  0  0  0  0  0  0  0  0  0
    7.7389    9.4055   22.0323 C   0  0  0  0  0  0  0  0  0  0  0  0
    9.1074   15.8482   19.9334 C   0  0  0  0  0  0  0  0  0  0  0  0
    9.6074   14.7034   24.0344 C   0  0  0  0  0  0  0  0  0  0  0  0
   14.8928   16.2095   19.8949 N   0  0  0  0  0  0  0  0  0  0  0  0
    8.8066   13.5680   23.5299 N   0  0  2  0  0  0  0  0  0  0  0  0
    6.5538   14.7002   24.1925 O   0  0  0  0  0  0  0  0  0  0  0  0
    7.0290   14.2297   21.7511 O   0  0  0  0  0  0  0  0  0  0  0  0
    9.2520   15.4657   21.2997 O   0  0  0  0  0  0  0  0  0  0  0  0
    7.1420   13.8803   23.1514 S   0  0  0  0  0  0  0  0  0  0  0  0
   14.1409   15.2259   23.1686 H   0  0  0  0  0  0  0  0  0  0  0  0
   12.2451   14.6893   24.6412 H   0  0  0  0  0  0  0  0  0  0  0  0
   11.4050   15.9901   19.9239 H   0  0  0  0  0  0  0  0  0  0  0  0
    9.5018    9.5081   25.6726 H   0  0  0  0  0  0  0  0  0  0  0  0
    8.7248    8.4286   24.5110 H   0  0  0  0  0  0  0  0  0  0  0  0
    6.7498    9.6580   24.6415 H   0  0  0  0  0  0  0  0  0  0  0  0
    7.4931   10.7077   25.8443 H   0  0  0  0  0  0  0  0  0  0  0  0
   10.7590   11.4005   25.0470 H   0  0  0  0  0  0  0  0  0  0  0  0
   10.8857   12.0139   23.3997 H   0  0  0  0  0  0  0  0  0  0  0  0
    6.0915   11.8417   22.5043 H   0  0  0  0  0  0  0  0  0  0  0  0
    5.8792   12.2107   24.2379 H   0  0  0  0  0  0  0  0  0  0  0  0
   10.4695    9.5530   23.1345 H   0  0  0  0  0  0  0  0  0  0  0  0
    8.7561   12.5625   25.3964 H   0  0  0  0  0  0  0  0  0  0  0  0
    8.1678   11.6465   20.7718 H   0  0  0  0  0  0  0  0  0  0  0  0
    9.7229   10.7941   20.8204 H   0  0  0  0  0  0  0  0  0  0  0  0
    9.5094   12.3025   21.7297 H   0  0  0  0  0  0  0  0  0  0  0  0
    6.9680    9.7916   21.3771 H   0  0  0  0  0  0  0  0  0  0  0  0
    7.2892    8.8531   22.8480 H   0  0  0  0  0  0  0  0  0  0  0  0
    8.4106    8.7636   21.4760 H   0  0  0  0  0  0  0  0  0  0  0  0
    8.0475   15.8604   19.6678 H   0  0  0  0  0  0  0  0  0  0  0  0
    9.6453   15.1408   19.2972 H   0  0  0  0  0  0  0  0  0  0  0  0
    9.5262   16.8482   19.7980 H   0  0  0  0  0  0  0  0  0  0  0  0
    9.9750   14.4399   25.0321 H   0  0  0  0  0  0  0  0  0  0  0  0
    8.9362   15.5608   24.1510 H   0  0  0  0  0  0  0  0  0  0  0  0
  1  5  1  0  0  0  0
  1 20  3  0  0  0  0
  2  3  2  0  0  0  0
  2  5  1  0  0  0  0
  3  6  1  0  0  0  0
  4  5  2  0  0  0  0
  4  7  1  0  0  0  0
  6  7  2  0  0  0  0
  6 19  1  0  0  0  0
  7 24  1  0  0  0  0
  8  9  1  0  0  0  0
  8 12  1  0  0  0  0
  9 14  1  1  0  0  0
 10 12  1  1  0  0  0
 10 13  1  0  0  0  0
 11 14  1  0  0  0  0
 11 25  1  0  0  0  0
 12 15  1  0  0  0  0
 13 14  1  0  0  0  0
 13 21  1  6  0  0  0
 14 15  1  0  0  0  0
 15 16  1  0  0  0  0
 15 17  1  0  0  0  0
 18 24  1  0  0  0  0
 19 21  1  0  0  0  0
 21 25  1  0  0  0  0
 22 25  2  0  0  0  0
 23 25  2  0  0  0  0
  2 26  1  0  0  0  0
  3 27  1  0  0  0  0
  4 28  1  0  0  0  0
  8 29  1  0  0  0  0
  8 30  1  0  0  0  0
  9 31  1  0  0  0  0
  9 32  1  0  0  0  0
 10 33  1  0  0  0  0
 10 34  1  0  0  0  0
 11 35  1  0  0  0  0
 11 36  1  0  0  0  0
 12 37  1  0  0  0  0
 13 38  1  0  0  0  0
 16 39  1  0  0  0  0
 16 40  1  0  0  0  0
 16 41  1  0  0  0  0
 17 42  1  0  0  0  0
 17 43  1  0  0  0  0
 17 44  1  0  0  0  0
 18 45  1  0  0  0  0
 18 46  1  0  0  0  0
 18 47  1  0  0  0  0
 19 48  1  0  0  0  0
 19 49  1  0  0  0  0
M  END
> <idnumber>
Z1627766693

> <heavy_atoms>
25

> <LogS>
-3.988

> <LogP>
3.113

> <rotating_bonds>
3

> <PSA>
70.4

> <hb_acceptors>
4

> <hb_donors>
0

> <Collection>
HTS

> <link>
https://www.enaminestore.com/catalog/Z1627766693

> <ROCS_ShapeQuery>
x0446_0A_x1080_0A_x0929_0A_x0812_0A_x0719_0A_x1140_0A_x0528_0A_x0310_0A

> <ROCS_TanimotoCombo>
0.457 

> <ROCS_ShapeTanimoto>
0.255 

> <ROCS_ColorTanimoto>
0.202 

> <ROCS_RefTversky>
0.232 

> <ROCS_RefColorTversky>
0.236 

> <ROCS_RefTverskyCombo>
0.469 

> <ROCS_FitTversky>
1.633 

> <ROCS_FitColorTversky>
0.584 

> <ROCS_FitTverskyCombo>
2.216 

> <ROCS_ColorScore>
-8.513

> <ROCS_Overlap>
2742.567

> <ROCS_Rank>
362                 

$$$$
untitled-dbase-1138934_189
  -OEChem-02092406493D

 52 56  0     1  0  0  0  0  0999 V2000
   17.8151   12.1868   24.3229 C   0  0  0  0  0  0  0  0  0  0  0  0
   17.4264   10.9096   24.3451 C   0  0  0  0  0  0  0  0  0  0  0  0
    8.8164   12.9699   22.9464 C   0  0  0  0  0  0  0  0  0  0  0  0
    7.6929   12.8099   23.6560 C   0  0  0  0  0  0  0  0  0  0  0  0
    9.6016   11.7275   22.8387 C   0  0  0  0  0  0  0  0  0  0  0  0
    8.1452   10.4438   24.0652 C   0  0  0  0  0  0  0  0  0  0  0  0
    9.1890   14.2775   22.3707 C   0  0  0  0  0  0  0  0  0  0  0  0
   14.5753   12.4740   23.7208 C   0  0  0  0  0  0  0  0  0  0  0  0
   16.7321   13.1111   24.7722 C   0  0  0  0  0  0  0  0  0  0  0  0
   16.0165   10.7602   24.8133 C   0  0  0  0  0  0  0  0  0  0  0  0
    6.6251   13.8111   23.9961 C   0  0  0  0  0  0  0  0  0  0  0  0
    5.4425   12.9232   24.3886 C   0  0  0  0  0  0  0  0  0  0  0  0
   12.6963   15.0974   20.7414 C   0  0  0  0  0  0  0  0  0  0  0  0
    6.0848   11.6446   24.9033 C   0  0  0  0  0  0  0  0  0  0  0  0
   10.8102   16.1301   22.2226 C   0  0  0  0  0  0  0  0  0  0  0  0
   11.3406   14.2625   23.7450 C   0  0  0  0  0  0  0  0  0  0  0  0
   15.5018   12.2026   24.8593 C   0  0  0  0  0  0  0  0  0  0  0  0
   12.2360   16.1037   21.7584 C   0  0  1  0  0  0  0  0  0  0  0  0
   13.1595   14.9798   22.1748 C   0  0  1  0  0  0  0  0  0  0  0  0
   12.6271   13.8542   23.0266 C   0  0  1  0  0  0  0  0  0  0  0  0
    9.3186   10.5713   23.3383 N   0  0  0  0  0  0  0  0  0  0  0  0
    7.3556   11.5838   24.1910 N   0  0  0  0  0  0  0  0  0  0  0  0
   10.3945   14.8401   22.7790 N   0  0  0  0  0  0  0  0  0  0  0  0
   13.6202   13.4377   23.9878 N   0  0  0  0  0  0  0  0  0  0  0  0
    7.8179    9.3706   24.5728 O   0  0  0  0  0  0  0  0  0  0  0  0
    8.4176   14.7868   21.5563 O   0  0  0  0  0  0  0  0  0  0  0  0
   14.7119   11.8577   22.6704 O   0  0  0  0  0  0  0  0  0  0  0  0
   10.7319   11.9039   22.1230 O   0  0  0  0  0  0  0  0  0  0  0  0
   18.8038   12.5157   24.0371 H   0  0  0  0  0  0  0  0  0  0  0  0
   18.0613   10.0766   24.0798 H   0  0  0  0  0  0  0  0  0  0  0  0
   16.9896   13.5285   25.7516 H   0  0  0  0  0  0  0  0  0  0  0  0
   16.5999   13.9352   24.0638 H   0  0  0  0  0  0  0  0  0  0  0  0
   15.4402   10.1273   24.1309 H   0  0  0  0  0  0  0  0  0  0  0  0
   16.0073   10.3018   25.8081 H   0  0  0  0  0  0  0  0  0  0  0  0
    6.9424   14.4202   24.8497 H   0  0  0  0  0  0  0  0  0  0  0  0
    6.3604   14.4658   23.1612 H   0  0  0  0  0  0  0  0  0  0  0  0
    4.7987   13.3984   25.1345 H   0  0  0  0  0  0  0  0  0  0  0  0
    4.8325   12.7043   23.5033 H   0  0  0  0  0  0  0  0  0  0  0  0
   11.9804   14.3775   20.3637 H   0  0  0  0  0  0  0  0  0  0  0  0
   13.4230   15.4222   20.0059 H   0  0  0  0  0  0  0  0  0  0  0  0
    6.3030   11.6983   25.9757 H   0  0  0  0  0  0  0  0  0  0  0  0
    5.4846   10.7513   24.7070 H   0  0  0  0  0  0  0  0  0  0  0  0
   10.6983   16.8726   23.0212 H   0  0  0  0  0  0  0  0  0  0  0  0
   10.1566   16.4317   21.3979 H   0  0  0  0  0  0  0  0  0  0  0  0
   10.9073   13.4190   24.2868 H   0  0  0  0  0  0  0  0  0  0  0  0
   11.5425   15.0422   24.4916 H   0  0  0  0  0  0  0  0  0  0  0  0
   14.9407   12.3907   25.7848 H   0  0  0  0  0  0  0  0  0  0  0  0
   12.6517   17.1017   21.6808 H   0  0  0  0  0  0  0  0  0  0  0  0
   14.1948   15.2326   22.3734 H   0  0  0  0  0  0  0  0  0  0  0  0
   12.4358   12.9788   22.3945 H   0  0  0  0  0  0  0  0  0  0  0  0
   13.6173   13.8741   24.9057 H   0  0  0  0  0  0  0  0  0  0  0  0
   11.2448   11.0793   22.0564 H   0  0  0  0  0  0  0  0  0  0  0  0
  1  2  2  0  0  0  0
  1  9  1  0  0  0  0
  2 10  1  0  0  0  0
  3  4  2  0  0  0  0
  3  5  1  0  0  0  0
  3  7  1  0  0  0  0
  4 11  1  0  0  0  0
  4 22  1  0  0  0  0
  5 21  2  0  0  0  0
  5 28  1  0  0  0  0
  6 21  1  0  0  0  0
  6 22  1  0  0  0  0
  6 25  2  0  0  0  0
  7 23  1  0  0  0  0
  7 26  2  0  0  0  0
  8 17  1  0  0  0  0
  8 24  1  0  0  0  0
  8 27  2  0  0  0  0
  9 17  1  0  0  0  0
 10 17  1  0  0  0  0
 11 12  1  0  0  0  0
 12 14  1  0  0  0  0
 13 18  1  6  0  0  0
 13 19  1  6  0  0  0
 14 22  1  0  0  0  0
 15 18  1  0  0  0  0
 15 23  1  0  0  0  0
 16 20  1  0  0  0  0
 16 23  1  0  0  0  0
 18 19  1  0  0  0  0
 19 20  1  0  0  0  0
 20 24  1  1  0  0  0
  1 29  1  0  0  0  0
  2 30  1  0  0  0  0
  9 31  1  0  0  0  0
  9 32  1  0  0  0  0
 10 33  1  0  0  0  0
 10 34  1  0  0  0  0
 11 35  1  0  0  0  0
 11 36  1  0  0  0  0
 12 37  1  0  0  0  0
 12 38  1  0  0  0  0
 13 39  1  0  0  0  0
 13 40  1  0  0  0  0
 14 41  1  0  0  0  0
 14 42  1  0  0  0  0
 15 43  1  0  0  0  0
 15 44  1  0  0  0  0
 16 45  1  0  0  0  0
 16 46  1  0  0  0  0
 17 47  1  0  0  0  0
 18 48  1  0  0  0  0
 19 49  1  0  0  0  0
 20 50  1  0  0  0  0
 24 51  1  0  0  0  0
 28 52  1  0  0  0  0
M  END
> <idnumber>
Z6366845979

> <heavy_atoms>
28

> <LogS>
-3.475

> <LogP>
-0.416

> <rotating_bonds>
3

> <PSA>
102.31

> <hb_acceptors>
5

> <hb_donors>
2

> <Collection>
Advanced

> <link>
https://www.enaminestore.com/catalog/Z6366845979

> <ROCS_ShapeQuery>
x0446_0A_x1080_0A_x0929_0A_x0812_0A_x0719_0A_x1140_0A_x0528_0A_x0310_0A

> <ROCS_TanimotoCombo>
0.457 

> <ROCS_ShapeTanimoto>
0.272 

> <ROCS_ColorTanimoto>
0.186 

> <ROCS_RefTversky>
0.247 

> <ROCS_RefColorTversky>
0.226 

> <ROCS_RefTverskyCombo>
0.473 

> <ROCS_FitTversky>
1.580 

> <ROCS_FitColorTversky>
0.510 

> <ROCS_FitTverskyCombo>
2.090 

> <ROCS_ColorScore>
-8.159

> <ROCS_Overlap>
2920.274

> <ROCS_Rank>
363                 

$$$$
untitled-dbase-325885_13
  -OEChem-02092406493D

 43 46  0     0  0  0  0  0  0999 V2000
   13.1572   14.6045   22.3398 C   0  0  0  0  0  0  0  0  0  0  0  0
   12.2024   14.2613   23.2970 C   0  0  0  0  0  0  0  0  0  0  0  0
   11.4030   15.3642   20.8624 C   0  0  0  0  0  0  0  0  0  0  0  0
    8.0423   12.5775   24.0868 C   0  0  0  0  0  0  0  0  0  0  0  0
   12.7575   15.1560   21.1225 C   0  0  0  0  0  0  0  0  0  0  0  0
    6.8918   13.4118   24.2886 C   0  0  0  0  0  0  0  0  0  0  0  0
   10.8479   14.4695   23.0369 C   0  0  0  0  0  0  0  0  0  0  0  0
   10.4482   15.0209   21.8195 C   0  0  0  0  0  0  0  0  0  0  0  0
    5.7304   12.6669   24.3822 C   0  0  0  0  0  0  0  0  0  0  0  0
    9.4082   12.8498   23.9456 C   0  0  0  0  0  0  0  0  0  0  0  0
    7.6793   11.2370   24.0287 C   0  0  0  0  0  0  0  0  0  0  0  0
    9.7932   10.5914   23.7253 C   0  0  0  0  0  0  0  0  0  0  0  0
   13.7532   15.5158   20.1255 C   0  0  0  0  0  0  0  0  0  0  0  0
    6.8850   14.9064   24.4215 C   0  0  0  0  0  0  0  0  0  0  0  0
    4.3569   13.2310   24.5722 C   0  0  0  0  0  0  0  0  0  0  0  0
    5.4739   15.4912   24.2558 C   0  0  0  0  0  0  0  0  0  0  0  0
    4.4327   14.6894   25.0487 C   0  0  0  0  0  0  0  0  0  0  0  0
   10.7939    9.5029   23.5211 C   0  0  0  0  0  0  0  0  0  0  0  0
    8.8048   15.7989   20.2867 C   0  0  0  0  0  0  0  0  0  0  0  0
   10.2889   11.8431   23.7629 N   0  0  0  0  0  0  0  0  0  0  0  0
    8.5144   10.1953   23.8482 N   0  0  0  0  0  0  0  0  0  0  0  0
   14.9653   15.3586   20.2964 O   0  0  0  0  0  0  0  0  0  0  0  0
    9.9138   14.1259   23.9914 O   0  0  0  0  0  0  0  0  0  0  0  0
    9.1287   15.2314   21.5544 O   0  0  0  0  0  0  0  0  0  0  0  0
    6.0032   10.9966   24.2157 S   0  0  0  0  0  0  0  0  0  0  0  0
   14.2099   14.4380   22.5534 H   0  0  0  0  0  0  0  0  0  0  0  0
   12.5201   13.8318   24.2431 H   0  0  0  0  0  0  0  0  0  0  0  0
   11.0882   15.7962   19.9152 H   0  0  0  0  0  0  0  0  0  0  0  0
   13.3867   15.9521   19.1708 H   0  0  0  0  0  0  0  0  0  0  0  0
    7.2737   15.1702   25.4127 H   0  0  0  0  0  0  0  0  0  0  0  0
    7.5454   15.3620   23.6757 H   0  0  0  0  0  0  0  0  0  0  0  0
    3.8214   13.1900   23.6154 H   0  0  0  0  0  0  0  0  0  0  0  0
    3.7845   12.6407   25.2967 H   0  0  0  0  0  0  0  0  0  0  0  0
    5.4714   16.5368   24.5836 H   0  0  0  0  0  0  0  0  0  0  0  0
    5.1967   15.4874   23.1938 H   0  0  0  0  0  0  0  0  0  0  0  0
    3.4463   15.1570   24.9530 H   0  0  0  0  0  0  0  0  0  0  0  0
    4.6970   14.7148   26.1138 H   0  0  0  0  0  0  0  0  0  0  0  0
   11.1711    9.1464   24.4869 H   0  0  0  0  0  0  0  0  0  0  0  0
   10.3532    8.6538   22.9837 H   0  0  0  0  0  0  0  0  0  0  0  0
   11.6442    9.8524   22.9218 H   0  0  0  0  0  0  0  0  0  0  0  0
    7.7212   15.9138   20.2042 H   0  0  0  0  0  0  0  0  0  0  0  0
    9.1746   15.1485   19.4901 H   0  0  0  0  0  0  0  0  0  0  0  0
    9.2801   16.7792   20.2041 H   0  0  0  0  0  0  0  0  0  0  0  0
  1  2  2  0  0  0  0
  1  5  1  0  0  0  0
  2  7  1  0  0  0  0
  3  5  2  0  0  0  0
  3  8  1  0  0  0  0
  4  6  1  0  0  0  0
  4 10  2  0  0  0  0
  4 11  1  0  0  0  0
  5 13  1  0  0  0  0
  6  9  2  0  0  0  0
  6 14  1  0  0  0  0
  7  8  2  0  0  0  0
  7 23  1  0  0  0  0
  8 24  1  0  0  0  0
  9 15  1  0  0  0  0
  9 25  1  0  0  0  0
 10 20  1  0  0  0  0
 10 23  1  0  0  0  0
 11 21  2  0  0  0  0
 11 25  1  0  0  0  0
 12 18  1  0  0  0  0
 12 20  2  0  0  0  0
 12 21  1  0  0  0  0
 13 22  2  0  0  0  0
 14 16  1  0  0  0  0
 15 17  1  0  0  0  0
 16 17  1  0  0  0  0
 19 24  1  0  0  0  0
  1 26  1  0  0  0  0
  2 27  1  0  0  0  0
  3 28  1  0  0  0  0
 13 29  1  0  0  0  0
 14 30  1  0  0  0  0
 14 31  1  0  0  0  0
 15 32  1  0  0  0  0
 15 33  1  0  0  0  0
 16 34  1  0  0  0  0
 16 35  1  0  0  0  0
 17 36  1  0  0  0  0
 17 37  1  0  0  0  0
 18 38  1  0  0  0  0
 18 39  1  0  0  0  0
 18 40  1  0  0  0  0
 19 41  1  0  0  0  0
 19 42  1  0  0  0  0
 19 43  1  0  0  0  0
M  END
> <idnumber>
Z31204955

> <heavy_atoms>
25

> <LogS>
-5.646

> <LogP>
4.342

> <rotating_bonds>
4

> <PSA>
61.31

> <hb_acceptors>
4

> <hb_donors>
0

> <Collection>
Functional

> <link>
https://www.enaminestore.com/catalog/Z31204955

> <ROCS_ShapeQuery>
x0446_0A_x1080_0A_x0929_0A_x0812_0A_x0719_0A_x1140_0A_x0528_0A_x0310_0A

> <ROCS_TanimotoCombo>
0.457 

> <ROCS_ShapeTanimoto>
0.253 

> <ROCS_ColorTanimoto>
0.204 

> <ROCS_RefTversky>
0.231 

> <ROCS_RefColorTversky>
0.219 

> <ROCS_RefTverskyCombo>
0.450 

> <ROCS_FitTversky>
1.603 

> <ROCS_FitColorTversky>
0.750 

> <ROCS_FitTverskyCombo>
2.353 

> <ROCS_ColorScore>
-7.836

> <ROCS_Overlap>
2732.326

> <ROCS_Rank>
364                 

$$$$
untitled-dbase-993874_19
  -OEChem-02092406493D

 45 48  0     1  0  0  0  0  0999 V2000
    5.8055   13.3368   25.4978 C   0  0  0  0  0  0  0  0  0  0  0  0
    6.4511   12.1057   25.5414 C   0  0  0  0  0  0  0  0  0  0  0  0
    6.3353   14.3271   24.6832 C   0  0  0  0  0  0  0  0  0  0  0  0
    7.5994   11.9084   24.7778 C   0  0  0  0  0  0  0  0  0  0  0  0
   10.8703   14.6018   22.1088 C   0  0  0  0  0  0  0  0  0  0  0  0
   10.9498   15.8732   22.7080 C   0  0  0  0  0  0  0  0  0  0  0  0
   12.1765   14.2566   21.8614 C   0  0  0  0  0  0  0  0  0  0  0  0
    8.0337   12.9629   23.9565 C   0  0  0  0  0  0  0  0  0  0  0  0
    8.9733   10.3800   22.4899 C   0  0  0  0  0  0  0  0  0  0  0  0
    7.9327    9.9154   23.5325 C   0  0  0  0  0  0  0  0  0  0  0  0
    9.7350   10.8974   24.6895 C   0  0  0  0  0  0  0  0  0  0  0  0
    9.8556   11.3900   23.2456 C   0  0  2  0  0  0  0  0  0  0  0  0
    9.8420   16.7218   23.1818 C   0  0  0  0  0  0  0  0  0  0  0  0
   12.7678   13.0508   21.2505 C   0  0  0  0  0  0  0  0  0  0  0  0
   14.8454   16.3267   21.1555 C   0  0  0  0  0  0  0  0  0  0  0  0
   14.3693   15.4136   22.2722 C   0  0  0  0  0  0  0  0  0  0  0  0
    7.4396   14.1756   23.9172 N   0  0  0  0  0  0  0  0  0  0  0  0
   12.2071   16.3062   22.8339 N   0  0  0  0  0  0  0  0  0  0  0  0
   12.9296   15.3013   22.3103 N   0  0  0  0  0  0  0  0  0  0  0  0
    8.2820   10.6606   24.7622 N   0  0  1  0  0  0  0  0  0  0  0  0
    9.2642   12.7760   23.2003 N   0  0  1  0  0  0  0  0  0  0  0  0
    8.3120   14.5861   21.6310 O   0  0  0  0  0  0  0  0  0  0  0  0
    9.7415   12.7480   20.6688 O   0  0  0  0  0  0  0  0  0  0  0  0
    9.4198   13.6575   21.7522 S   0  0  0  0  0  0  0  0  0  0  0  0
    4.9127   13.5176   26.0858 H   0  0  0  0  0  0  0  0  0  0  0  0
    6.0591   11.3116   26.1703 H   0  0  0  0  0  0  0  0  0  0  0  0
    5.8657   15.3037   24.6239 H   0  0  0  0  0  0  0  0  0  0  0  0
    9.5755    9.5210   22.1723 H   0  0  0  0  0  0  0  0  0  0  0  0
    8.4931   10.8081   21.6051 H   0  0  0  0  0  0  0  0  0  0  0  0
    6.9028   10.0853   23.1956 H   0  0  0  0  0  0  0  0  0  0  0  0
    8.0458    8.8411   23.7185 H   0  0  0  0  0  0  0  0  0  0  0  0
   10.2726    9.9528   24.8362 H   0  0  0  0  0  0  0  0  0  0  0  0
   10.0897   11.6152   25.4393 H   0  0  0  0  0  0  0  0  0  0  0  0
   10.8911   11.4094   22.8945 H   0  0  0  0  0  0  0  0  0  0  0  0
    9.6006   16.5112   24.2374 H   0  0  0  0  0  0  0  0  0  0  0  0
   10.0784   17.7975   23.1023 H   0  0  0  0  0  0  0  0  0  0  0  0
    8.9203   16.5701   22.5925 H   0  0  0  0  0  0  0  0  0  0  0  0
   12.8682   13.1663   20.1586 H   0  0  0  0  0  0  0  0  0  0  0  0
   13.7695   12.8289   21.6570 H   0  0  0  0  0  0  0  0  0  0  0  0
   12.1577   12.1500   21.4370 H   0  0  0  0  0  0  0  0  0  0  0  0
   14.5150   15.9612   20.1775 H   0  0  0  0  0  0  0  0  0  0  0  0
   15.9385   16.3795   21.1487 H   0  0  0  0  0  0  0  0  0  0  0  0
   14.4551   17.3421   21.2815 H   0  0  0  0  0  0  0  0  0  0  0  0
   14.7046   15.7873   23.2463 H   0  0  0  0  0  0  0  0  0  0  0  0
   14.7832   14.4062   22.1504 H   0  0  0  0  0  0  0  0  0  0  0  0
  1  2  2  0  0  0  0
  1  3  1  0  0  0  0
  2  4  1  0  0  0  0
  3 17  2  0  0  0  0
  4  8  2  0  0  0  0
  4 20  1  0  0  0  0
  5  6  1  0  0  0  0
  5  7  2  0  0  0  0
  5 24  1  0  0  0  0
  6 13  1  0  0  0  0
  6 18  2  0  0  0  0
  7 14  1  0  0  0  0
  7 19  1  0  0  0  0
  8 17  1  0  0  0  0
  8 21  1  0  0  0  0
  9 10  1  0  0  0  0
  9 12  1  0  0  0  0
 10 20  1  0  0  0  0
 11 12  1  0  0  0  0
 11 20  1  0  0  0  0
 12 21  1  0  0  0  0
 15 16  1  0  0  0  0
 16 19  1  0  0  0  0
 18 19  1  0  0  0  0
 21 24  1  0  0  0  0
 22 24  2  0  0  0  0
 23 24  2  0  0  0  0
  1 25  1  0  0  0  0
  2 26  1  0  0  0  0
  3 27  1  0  0  0  0
  9 28  1  0  0  0  0
  9 29  1  0  0  0  0
 10 30  1  0  0  0  0
 10 31  1  0  0  0  0
 11 32  1  0  0  0  0
 11 33  1  0  0  0  0
 12 34  1  0  0  0  0
 13 35  1  0  0  0  0
 13 36  1  0  0  0  0
 13 37  1  0  0  0  0
 14 38  1  0  0  0  0
 14 39  1  0  0  0  0
 14 40  1  0  0  0  0
 15 41  1  0  0  0  0
 15 42  1  0  0  0  0
 15 43  1  0  0  0  0
 16 44  1  0  0  0  0
 16 45  1  0  0  0  0
M  END
> <idnumber>
Z2996229127

> <heavy_atoms>
24

> <LogS>
-2.339

> <LogP>
1.437

> <rotating_bonds>
2

> <PSA>
71.33

> <hb_acceptors>
5

> <hb_donors>
0

> <Collection>
HTS

> <link>
https://www.enaminestore.com/catalog/Z2996229127

> <ROCS_ShapeQuery>
x0446_0A_x1080_0A_x0929_0A_x0812_0A_x0719_0A_x1140_0A_x0528_0A_x0310_0A

> <ROCS_TanimotoCombo>
0.457 

> <ROCS_ShapeTanimoto>
0.266 

> <ROCS_ColorTanimoto>
0.191 

> <ROCS_RefTversky>
0.240 

> <ROCS_RefColorTversky>
0.223 

> <ROCS_RefTverskyCombo>
0.463 

> <ROCS_FitTversky>
1.704 

> <ROCS_FitColorTversky>
0.569 

> <ROCS_FitTverskyCombo>
2.273 

> <ROCS_ColorScore>
-8.026

> <ROCS_Overlap>
2835.760

> <ROCS_Rank>
365                 

$$$$
untitled-dbase-810838_28
  -OEChem-02092406493D

 43 46  0     0  0  0  0  0  0999 V2000
    8.4801   14.4963   21.7840 C   0  0  0  0  0  0  0  0  0  0  0  0
    7.6413   12.3462   24.0325 C   0  0  0  0  0  0  0  0  0  0  0  0
    6.5778   13.2286   24.4021 C   0  0  0  0  0  0  0  0  0  0  0  0
    5.6280   12.6107   25.1863 C   0  0  0  0  0  0  0  0  0  0  0  0
    8.7981   12.5172   23.2654 C   0  0  0  0  0  0  0  0  0  0  0  0
    7.4404   11.0794   24.5653 C   0  0  0  0  0  0  0  0  0  0  0  0
    9.3259   10.3104   23.6541 C   0  0  0  0  0  0  0  0  0  0  0  0
   10.2096   15.6020   22.1630 C   0  0  0  0  0  0  0  0  0  0  0  0
   12.3529   10.3499   22.9649 C   0  0  0  0  0  0  0  0  0  0  0  0
   12.3922    8.2702   24.1780 C   0  0  0  0  0  0  0  0  0  0  0  0
   13.7497   10.6548   23.4986 C   0  0  0  0  0  0  0  0  0  0  0  0
   13.7875    8.6246   24.6840 C   0  0  0  0  0  0  0  0  0  0  0  0
    6.4866   14.6558   23.9989 C   0  0  0  0  0  0  0  0  0  0  0  0
    4.3893   13.1768   25.7667 C   0  0  0  0  0  0  0  0  0  0  0  0
   10.2910    9.1838   23.4226 C   0  0  0  0  0  0  0  0  0  0  0  0
    9.1165   15.6539   21.4378 N   0  0  0  0  0  0  0  0  0  0  0  0
    9.6474   11.4846   23.0769 N   0  0  0  0  0  0  0  0  0  0  0  0
    8.2527   10.0157   24.4093 N   0  0  0  0  0  0  0  0  0  0  0  0
   10.2138   14.4613   22.9036 N   0  0  0  0  0  0  0  0  0  0  0  0
    9.1107   13.7315   22.6778 N   0  0  0  0  0  0  0  0  0  0  0  0
   11.6288    9.4989   23.9194 N   0  0  0  0  0  0  0  0  0  0  0  0
   11.2426   16.5298   22.2164 N   0  3  0  0  0  0  0  0  0  0  0  0
   11.1942   17.5809   21.5057 O   0  5  0  0  0  0  0  0  0  0  0  0
   12.2407   16.3309   22.9759 O   0  0  0  0  0  0  0  0  0  0  0  0
   14.4684    9.4431   23.7323 O   0  0  0  0  0  0  0  0  0  0  0  0
    6.0077   10.9693   25.4816 S   0  0  0  0  0  0  0  0  0  0  0  0
    7.5234   14.2227   21.3559 H   0  0  0  0  0  0  0  0  0  0  0  0
   11.8157   11.2932   22.8133 H   0  0  0  0  0  0  0  0  0  0  0  0
   12.4361    9.8456   21.9934 H   0  0  0  0  0  0  0  0  0  0  0  0
   12.4773    7.6748   23.2595 H   0  0  0  0  0  0  0  0  0  0  0  0
   11.8851    7.6593   24.9336 H   0  0  0  0  0  0  0  0  0  0  0  0
   14.3104   11.2381   22.7610 H   0  0  0  0  0  0  0  0  0  0  0  0
   13.7093   11.2411   24.4245 H   0  0  0  0  0  0  0  0  0  0  0  0
   13.7492    9.1420   25.6505 H   0  0  0  0  0  0  0  0  0  0  0  0
   14.3775    7.7127   24.8204 H   0  0  0  0  0  0  0  0  0  0  0  0
    5.9436   14.7561   23.0489 H   0  0  0  0  0  0  0  0  0  0  0  0
    5.9651   15.2574   24.7576 H   0  0  0  0  0  0  0  0  0  0  0  0
    7.4829   15.1047   23.8740 H   0  0  0  0  0  0  0  0  0  0  0  0
    3.5406   13.0549   25.0764 H   0  0  0  0  0  0  0  0  0  0  0  0
    4.1240   12.6907   26.7191 H   0  0  0  0  0  0  0  0  0  0  0  0
    4.4946   14.2512   25.9878 H   0  0  0  0  0  0  0  0  0  0  0  0
    9.9497    8.2732   23.9269 H   0  0  0  0  0  0  0  0  0  0  0  0
   10.3761    8.9522   22.3556 H   0  0  0  0  0  0  0  0  0  0  0  0
  1 16  2  0  0  0  0
  1 20  1  0  0  0  0
  2  3  1  0  0  0  0
  2  5  1  0  0  0  0
  2  6  2  0  0  0  0
  3  4  2  0  0  0  0
  3 13  1  0  0  0  0
  4 14  1  0  0  0  0
  4 26  1  0  0  0  0
  5 17  2  0  0  0  0
  5 20  1  0  0  0  0
  6 18  1  0  0  0  0
  6 26  1  0  0  0  0
  7 15  1  0  0  0  0
  7 17  1  0  0  0  0
  7 18  2  0  0  0  0
  8 16  1  0  0  0  0
  8 19  2  0  0  0  0
  8 22  1  0  0  0  0
  9 11  1  0  0  0  0
  9 21  1  0  0  0  0
 10 12  1  0  0  0  0
 10 21  1  0  0  0  0
 11 25  1  0  0  0  0
 12 25  1  0  0  0  0
 15 21  1  0  0  0  0
 19 20  1  0  0  0  0
 22 23  1  0  0  0  0
 22 24  2  0  0  0  0
  1 27  1  0  0  0  0
  9 28  1  0  0  0  0
  9 29  1  0  0  0  0
 10 30  1  0  0  0  0
 10 31  1  0  0  0  0
 11 32  1  0  0  0  0
 11 33  1  0  0  0  0
 12 34  1  0  0  0  0
 12 35  1  0  0  0  0
 13 36  1  0  0  0  0
 13 37  1  0  0  0  0
 13 38  1  0  0  0  0
 14 39  1  0  0  0  0
 14 40  1  0  0  0  0
 14 41  1  0  0  0  0
 15 42  1  0  0  0  0
 15 43  1  0  0  0  0
M  CHG  2  22   1  23  -1
M  END
> <idnumber>
Z1329092729

> <heavy_atoms>
26

> <LogS>
-5

> <LogP>
0.511

> <rotating_bonds>
4

> <PSA>
112.1

> <hb_acceptors>
8

> <hb_donors>
0

> <Collection>
Legacy

> <link>
https://www.enaminestore.com/catalog/Z1329092729

> <ROCS_ShapeQuery>
x0446_0A_x1080_0A_x0929_0A_x0812_0A_x0719_0A_x1140_0A_x0528_0A_x0310_0A

> <ROCS_TanimotoCombo>
0.457 

> <ROCS_ShapeTanimoto>
0.258 

> <ROCS_ColorTanimoto>
0.199 

> <ROCS_RefTversky>
0.236 

> <ROCS_RefColorTversky>
0.228 

> <ROCS_RefTverskyCombo>
0.463 

> <ROCS_FitTversky>
1.578 

> <ROCS_FitColorTversky>
0.615 

> <ROCS_FitTverskyCombo>
2.193 

> <ROCS_ColorScore>
-8.186

> <ROCS_Overlap>
2784.754

> <ROCS_Rank>
366                 

$$$$
untitled-dbase-707332_10
  -OEChem-02092406493D

 36 39  0     0  0  0  0  0  0999 V2000
   14.8599   15.7211   22.6334 C   0  0  0  0  0  0  0  0  0  0  0  0
    5.5268   11.9959   25.0256 C   0  0  0  0  0  0  0  0  0  0  0  0
    6.1037   13.2679   25.0145 C   0  0  0  0  0  0  0  0  0  0  0  0
   14.0921   15.1829   23.6661 C   0  0  0  0  0  0  0  0  0  0  0  0
   14.2552   16.0794   21.4285 C   0  0  0  0  0  0  0  0  0  0  0  0
    6.2609   10.8674   24.6394 C   0  0  0  0  0  0  0  0  0  0  0  0
    7.4315   13.4593   24.6183 C   0  0  0  0  0  0  0  0  0  0  0  0
   12.7197   15.0029   23.4939 C   0  0  0  0  0  0  0  0  0  0  0  0
   12.8828   15.8995   21.2564 C   0  0  0  0  0  0  0  0  0  0  0  0
    7.5963   11.0413   24.2383 C   0  0  0  0  0  0  0  0  0  0  0  0
    8.1434   12.3213   24.2378 C   0  0  0  0  0  0  0  0  0  0  0  0
   12.1150   15.3612   22.2891 C   0  0  0  0  0  0  0  0  0  0  0  0
    9.9430   14.2419   22.6784 C   0  0  0  0  0  0  0  0  0  0  0  0
    9.6096   10.8065   23.5666 C   0  0  0  0  0  0  0  0  0  0  0  0
   10.4216   13.1803   23.6314 C   0  0  0  0  0  0  0  0  0  0  0  0
   10.8928   10.2587   23.0811 C   0  0  0  0  0  0  0  0  0  0  0  0
    8.5218   10.1135   23.8186 N   0  0  0  0  0  0  0  0  0  0  0  0
    8.7173   14.4326   22.2476 N   0  0  0  0  0  0  0  0  0  0  0  0
    8.7851   15.5178   21.4034 N   0  0  0  0  0  0  0  0  0  0  0  0
   10.0263   15.9811   21.3207 N   0  0  0  0  0  0  0  0  0  0  0  0
    9.4318   12.1411   23.8039 N   0  0  0  0  0  0  0  0  0  0  0  0
   10.7482   15.1819   22.1185 N   0  0  0  0  0  0  0  0  0  0  0  0
   10.8888    8.8997   22.8950 F   0  0  0  0  0  0  0  0  0  0  0  0
   11.2998   10.7689   21.8747 F   0  0  0  0  0  0  0  0  0  0  0  0
   11.9378   10.4952   23.9355 F   0  0  0  0  0  0  0  0  0  0  0  0
   15.9282   15.8631   22.7675 H   0  0  0  0  0  0  0  0  0  0  0  0
    4.4929   11.8788   25.3398 H   0  0  0  0  0  0  0  0  0  0  0  0
    5.5099   14.1264   25.3190 H   0  0  0  0  0  0  0  0  0  0  0  0
   14.5625   14.9050   24.6047 H   0  0  0  0  0  0  0  0  0  0  0  0
   14.8536   16.4998   20.6254 H   0  0  0  0  0  0  0  0  0  0  0  0
    5.8035    9.8835   24.6523 H   0  0  0  0  0  0  0  0  0  0  0  0
    7.8788   14.4469   24.6108 H   0  0  0  0  0  0  0  0  0  0  0  0
   12.1326   14.5831   24.3072 H   0  0  0  0  0  0  0  0  0  0  0  0
   12.4241   16.1838   20.3124 H   0  0  0  0  0  0  0  0  0  0  0  0
   11.3483   12.7154   23.2735 H   0  0  0  0  0  0  0  0  0  0  0  0
   10.6475   13.6053   24.6170 H   0  0  0  0  0  0  0  0  0  0  0  0
  1  4  1  0  0  0  0
  1  5  2  0  0  0  0
  2  3  1  0  0  0  0
  2  6  2  0  0  0  0
  3  7  2  0  0  0  0
  4  8  2  0  0  0  0
  5  9  1  0  0  0  0
  6 10  1  0  0  0  0
  7 11  1  0  0  0  0
  8 12  1  0  0  0  0
  9 12  2  0  0  0  0
 10 11  2  0  0  0  0
 10 17  1  0  0  0  0
 11 21  1  0  0  0  0
 12 22  1  0  0  0  0
 13 15  1  0  0  0  0
 13 18  2  0  0  0  0
 13 22  1  0  0  0  0
 14 16  1  0  0  0  0
 14 17  2  0  0  0  0
 14 21  1  0  0  0  0
 15 21  1  0  0  0  0
 16 23  1  0  0  0  0
 16 24  1  0  0  0  0
 16 25  1  0  0  0  0
 18 19  1  0  0  0  0
 19 20  2  0  0  0  0
 20 22  1  0  0  0  0
  1 26  1  0  0  0  0
  2 27  1  0  0  0  0
  3 28  1  0  0  0  0
  4 29  1  0  0  0  0
  5 30  1  0  0  0  0
  6 31  1  0  0  0  0
  7 32  1  0  0  0  0
  8 33  1  0  0  0  0
  9 34  1  0  0  0  0
 15 35  1  0  0  0  0
 15 36  1  0  0  0  0
M  END
> <idnumber>
Z295692136

> <heavy_atoms>
25

> <LogS>
-3.74

> <LogP>
2.721

> <rotating_bonds>
4

> <PSA>
61.42

> <hb_acceptors>
4

> <hb_donors>
0

> <Collection>
HTS

> <link>
https://www.enaminestore.com/catalog/Z295692136

> <ROCS_ShapeQuery>
x0446_0A_x1080_0A_x0929_0A_x0812_0A_x0719_0A_x1140_0A_x0528_0A_x0310_0A

> <ROCS_TanimotoCombo>
0.457 

> <ROCS_ShapeTanimoto>
0.279 

> <ROCS_ColorTanimoto>
0.179 

> <ROCS_RefTversky>
0.250 

> <ROCS_RefColorTversky>
0.198 

> <ROCS_RefTverskyCombo>
0.448 

> <ROCS_FitTversky>
1.683 

> <ROCS_FitColorTversky>
0.642 

> <ROCS_FitTverskyCombo>
2.326 

> <ROCS_ColorScore>
-7.100

> <ROCS_Overlap>
2958.778

> <ROCS_Rank>
367                 

$$$$
untitled-dbase-876155_19
  -OEChem-02092406493D

 65 70  0     1  0  0  0  0  0999 V2000
    7.5012   15.1781   23.9511 C   0  0  0  0  0  0  0  0  0  0  0  0
    6.9849   16.4209   23.5845 C   0  0  0  0  0  0  0  0  0  0  0  0
    6.9650   14.3094   21.7614 C   0  0  0  0  0  0  0  0  0  0  0  0
    7.4913   14.1223   23.0395 C   0  0  0  0  0  0  0  0  0  0  0  0
    6.4586   16.6080   22.3064 C   0  0  0  0  0  0  0  0  0  0  0  0
    6.4486   15.5522   21.3948 C   0  0  0  0  0  0  0  0  0  0  0  0
   12.6816   15.1208   22.8135 C   0  0  0  0  0  0  0  0  0  0  0  0
   10.8283   15.5938   21.5868 C   0  0  0  0  0  0  0  0  0  0  0  0
   10.9204   10.6125   21.9149 C   0  0  0  0  0  0  0  0  0  0  0  0
   13.4749   12.3967   20.1567 C   0  0  0  0  0  0  0  0  0  0  0  0
   13.6361   13.6771   20.9775 C   0  0  0  0  0  0  0  0  0  0  0  0
    8.0433   10.2735   25.1181 C   0  0  0  0  0  0  0  0  0  0  0  0
    8.6093   12.7045   24.9033 C   0  0  0  0  0  0  0  0  0  0  0  0
    6.9546   11.6613   23.3336 C   0  0  0  0  0  0  0  0  0  0  0  0
   10.3075   10.9661   24.2926 C   0  0  0  0  0  0  0  0  0  0  0  0
    8.6568    9.9262   22.7135 C   0  0  0  0  0  0  0  0  0  0  0  0
    9.2354   12.3620   22.4996 C   0  0  0  0  0  0  0  0  0  0  0  0
   13.1627   11.1941   21.0445 C   0  0  0  0  0  0  0  0  0  0  0  0
   12.1701   12.6537   22.7744 C   0  0  0  0  0  0  0  0  0  0  0  0
    9.1636   11.3137   25.2557 C   0  0  2  0  0  0  0  0  0  0  0  0
    7.5105   10.2686   23.6787 C   0  0  1  0  0  0  0  0  0  0  0  0
    8.0598   12.7528   23.4439 C   0  0  0  0  0  0  0  0  0  0  0  0
   12.4526   13.8955   21.9255 C   0  0  1  0  0  0  0  0  0  0  0  0
    9.7874   10.9641   22.8457 C   0  0  0  0  0  0  0  0  0  0  0  0
    5.9104   17.9473   21.9371 C   0  0  0  0  0  0  0  0  0  0  0  0
    5.8900   15.7290   20.0209 C   0  0  0  0  0  0  0  0  0  0  0  0
   11.6995   16.0449   22.5514 N   0  0  0  0  0  0  0  0  0  0  0  0
   11.2660   14.3251   21.2088 N   0  0  0  0  0  0  0  0  0  0  0  0
   12.0231   11.4659   21.9233 N   0  0  0  0  0  0  0  0  0  0  0  0
   13.5937   15.2405   23.6203 O   0  0  0  0  0  0  0  0  0  0  0  0
    9.8551   16.1873   21.1428 O   0  0  0  0  0  0  0  0  0  0  0  0
   10.8252    9.6112   21.2006 O   0  0  0  0  0  0  0  0  0  0  0  0
    7.9088   15.0413   24.9493 H   0  0  0  0  0  0  0  0  0  0  0  0
    6.9966   17.2370   24.3023 H   0  0  0  0  0  0  0  0  0  0  0  0
    6.9583   13.4860   21.0511 H   0  0  0  0  0  0  0  0  0  0  0  0
   12.6706   12.5312   19.4256 H   0  0  0  0  0  0  0  0  0  0  0  0
   14.3889   12.2001   19.5856 H   0  0  0  0  0  0  0  0  0  0  0  0
   14.5792   13.6294   21.5292 H   0  0  0  0  0  0  0  0  0  0  0  0
   13.7048   14.5206   20.2827 H   0  0  0  0  0  0  0  0  0  0  0  0
    8.4208    9.2781   25.3821 H   0  0  0  0  0  0  0  0  0  0  0  0
    7.2306   10.5020   25.8185 H   0  0  0  0  0  0  0  0  0  0  0  0
    7.8139   12.9735   25.6116 H   0  0  0  0  0  0  0  0  0  0  0  0
    9.3983   13.4581   25.0313 H   0  0  0  0  0  0  0  0  0  0  0  0
    6.5405   11.6500   22.3164 H   0  0  0  0  0  0  0  0  0  0  0  0
    6.1177   11.9018   24.0031 H   0  0  0  0  0  0  0  0  0  0  0  0
   11.1255   11.6900   24.4052 H   0  0  0  0  0  0  0  0  0  0  0  0
   10.7291    9.9854   24.5502 H   0  0  0  0  0  0  0  0  0  0  0  0
    9.0347    8.9180   22.9293 H   0  0  0  0  0  0  0  0  0  0  0  0
    8.2828    9.8981   21.6816 H   0  0  0  0  0  0  0  0  0  0  0  0
    8.8977   12.3832   21.4536 H   0  0  0  0  0  0  0  0  0  0  0  0
   10.0356   13.1131   22.5661 H   0  0  0  0  0  0  0  0  0  0  0  0
   12.9013   10.3234   20.4304 H   0  0  0  0  0  0  0  0  0  0  0  0
   14.0511   10.9257   21.6262 H   0  0  0  0  0  0  0  0  0  0  0  0
   12.9535   12.5143   23.5193 H   0  0  0  0  0  0  0  0  0  0  0  0
   11.2226   12.7664   23.3123 H   0  0  0  0  0  0  0  0  0  0  0  0
    9.5381   11.3172   26.2856 H   0  0  0  0  0  0  0  0  0  0  0  0
    6.7140    9.5220   23.5835 H   0  0  0  0  0  0  0  0  0  0  0  0
    6.6983   18.5737   21.5031 H   0  0  0  0  0  0  0  0  0  0  0  0
    5.0959   17.8548   21.2081 H   0  0  0  0  0  0  0  0  0  0  0  0
    5.4974   18.4619   22.8136 H   0  0  0  0  0  0  0  0  0  0  0  0
    4.8205   15.4891   20.0121 H   0  0  0  0  0  0  0  0  0  0  0  0
    6.0200   16.7601   19.6699 H   0  0  0  0  0  0  0  0  0  0  0  0
    6.4003   15.0793   19.2991 H   0  0  0  0  0  0  0  0  0  0  0  0
   11.6224   16.9432   23.0141 H   0  0  0  0  0  0  0  0  0  0  0  0
   10.8025   13.7623   20.5062 H   0  0  0  0  0  0  0  0  0  0  0  0
  1  2  2  0  0  0  0
  1  4  1  0  0  0  0
  2  5  1  0  0  0  0
  3  4  2  0  0  0  0
  3  6  1  0  0  0  0
  4 22  1  0  0  0  0
  5  6  2  0  0  0  0
  5 25  1  0  0  0  0
  6 26  1  0  0  0  0
  7 23  1  0  0  0  0
  7 27  1  0  0  0  0
  7 30  2  0  0  0  0
  8 27  1  0  0  0  0
  8 28  1  0  0  0  0
  8 31  2  0  0  0  0
  9 24  1  0  0  0  0
  9 29  1  0  0  0  0
  9 32  2  0  0  0  0
 10 11  1  0  0  0  0
 10 18  1  0  0  0  0
 11 23  1  0  0  0  0
 12 20  1  0  0  0  0
 12 21  1  0  0  0  0
 13 20  1  0  0  0  0
 13 22  1  0  0  0  0
 14 21  1  0  0  0  0
 14 22  1  0  0  0  0
 15 20  1  0  0  0  0
 15 24  1  0  0  0  0
 16 21  1  0  0  0  0
 16 24  1  0  0  0  0
 17 22  1  0  0  0  0
 17 24  1  0  0  0  0
 18 29  1  0  0  0  0
 19 23  1  0  0  0  0
 19 29  1  0  0  0  0
 23 28  1  0  0  0  0
  1 33  1  0  0  0  0
  2 34  1  0  0  0  0
  3 35  1  0  0  0  0
 10 36  1  0  0  0  0
 10 37  1  0  0  0  0
 11 38  1  0  0  0  0
 11 39  1  0  0  0  0
 12 40  1  0  0  0  0
 12 41  1  0  0  0  0
 13 42  1  0  0  0  0
 13 43  1  0  0  0  0
 14 44  1  0  0  0  0
 14 45  1  0  0  0  0
 15 46  1  0  0  0  0
 15 47  1  0  0  0  0
 16 48  1  0  0  0  0
 16 49  1  0  0  0  0
 17 50  1  0  0  0  0
 17 51  1  0  0  0  0
 18 52  1  0  0  0  0
 18 53  1  0  0  0  0
 19 54  1  0  0  0  0
 19 55  1  0  0  0  0
 20 56  1  0  0  0  0
 21 57  1  0  0  0  0
 25 58  1  0  0  0  0
 25 59  1  0  0  0  0
 25 60  1  0  0  0  0
 26 61  1  0  0  0  0
 26 62  1  0  0  0  0
 26 63  1  0  0  0  0
 27 64  1  0  0  0  0
 28 65  1  0  0  0  0
M  END
> <idnumber>
Z1929425415

> <heavy_atoms>
32

> <LogS>
-6.278

> <LogP>
2.806

> <rotating_bonds>
2

> <PSA>
78.51

> <hb_acceptors>
3

> <hb_donors>
2

> <Collection>
Advanced

> <link>
https://www.enaminestore.com/catalog/Z1929425415

> <ROCS_ShapeQuery>
x0446_0A_x1080_0A_x0929_0A_x0812_0A_x0719_0A_x1140_0A_x0528_0A_x0310_0A

> <ROCS_TanimotoCombo>
0.457 

> <ROCS_ShapeTanimoto>
0.279 

> <ROCS_ColorTanimoto>
0.178 

> <ROCS_RefTversky>
0.255 

> <ROCS_RefColorTversky>
0.217 

> <ROCS_RefTverskyCombo>
0.472 

> <ROCS_FitTversky>
1.486 

> <ROCS_FitColorTversky>
0.501 

> <ROCS_FitTverskyCombo>
1.986 

> <ROCS_ColorScore>
-7.819

> <ROCS_Overlap>
3024.006

> <ROCS_Rank>
368                 

$$$$
untitled-dbase-326223_16
  -OEChem-02092406493D

 42 46  0     0  0  0  0  0  0999 V2000
   12.5541    7.4235   23.0213 C   0  0  0  0  0  0  0  0  0  0  0  0
    5.8095   13.3231   24.5144 C   0  0  0  0  0  0  0  0  0  0  0  0
   11.5024    7.6400   22.1311 C   0  0  0  0  0  0  0  0  0  0  0  0
   12.7068    8.2497   24.1347 C   0  0  0  0  0  0  0  0  0  0  0  0
    5.3820   12.0012   24.4597 C   0  0  0  0  0  0  0  0  0  0  0  0
   13.1542   14.5675   22.3082 C   0  0  0  0  0  0  0  0  0  0  0  0
    9.5706   16.1100   19.4360 C   0  0  0  0  0  0  0  0  0  0  0  0
    7.1594   13.6155   24.3466 C   0  0  0  0  0  0  0  0  0  0  0  0
   12.7383   15.1283   21.1041 C   0  0  0  0  0  0  0  0  0  0  0  0
   10.9263   15.9082   19.6516 C   0  0  0  0  0  0  0  0  0  0  0  0
   10.6034    8.6830   22.3542 C   0  0  0  0  0  0  0  0  0  0  0  0
   11.8078    9.2926   24.3578 C   0  0  0  0  0  0  0  0  0  0  0  0
    6.3046   10.9747   24.2373 C   0  0  0  0  0  0  0  0  0  0  0  0
   12.2093   14.2220   23.2664 C   0  0  0  0  0  0  0  0  0  0  0  0
    8.7022   15.7378   20.4420 C   0  0  0  0  0  0  0  0  0  0  0  0
   11.3725   15.3454   20.8550 C   0  0  0  0  0  0  0  0  0  0  0  0
    8.0809   12.5777   24.1233 C   0  0  0  0  0  0  0  0  0  0  0  0
   10.7561    9.5093   23.4675 C   0  0  0  0  0  0  0  0  0  0  0  0
    7.6613   11.2386   24.0658 C   0  0  0  0  0  0  0  0  0  0  0  0
   10.4076   14.9972   21.8233 C   0  0  0  0  0  0  0  0  0  0  0  0
   10.8515   14.4380   23.0185 C   0  0  0  0  0  0  0  0  0  0  0  0
    9.4435   12.8019   23.9475 C   0  0  0  0  0  0  0  0  0  0  0  0
    9.8279   10.5855   23.6976 C   0  0  0  0  0  0  0  0  0  0  0  0
    9.0914   15.1918   21.6169 N   0  0  0  0  0  0  0  0  0  0  0  0
    8.5340   10.2383   23.8526 N   0  0  0  0  0  0  0  0  0  0  0  0
   10.3441   11.8245   23.7325 N   0  0  0  0  0  0  0  0  0  0  0  0
    9.9527   14.0861   23.9866 O   0  0  0  0  0  0  0  0  0  0  0  0
   13.2530    6.6103   22.8483 H   0  0  0  0  0  0  0  0  0  0  0  0
    5.0943   14.1215   24.6870 H   0  0  0  0  0  0  0  0  0  0  0  0
   11.3823    6.9958   21.2650 H   0  0  0  0  0  0  0  0  0  0  0  0
   13.5247    8.0808   24.8290 H   0  0  0  0  0  0  0  0  0  0  0  0
    4.3298   11.7645   24.5901 H   0  0  0  0  0  0  0  0  0  0  0  0
   14.2104   14.4004   22.4965 H   0  0  0  0  0  0  0  0  0  0  0  0
    9.2083   16.5443   18.5117 H   0  0  0  0  0  0  0  0  0  0  0  0
    7.4782   14.6537   24.3914 H   0  0  0  0  0  0  0  0  0  0  0  0
   13.4861   15.3935   20.3600 H   0  0  0  0  0  0  0  0  0  0  0  0
   11.6331   16.1925   18.8755 H   0  0  0  0  0  0  0  0  0  0  0  0
    9.7885    8.8387   21.6511 H   0  0  0  0  0  0  0  0  0  0  0  0
   11.9392    9.9282   25.2304 H   0  0  0  0  0  0  0  0  0  0  0  0
    5.9435    9.9485   24.1999 H   0  0  0  0  0  0  0  0  0  0  0  0
   12.5324   13.7847   24.2072 H   0  0  0  0  0  0  0  0  0  0  0  0
    7.6313   15.8724   20.3302 H   0  0  0  0  0  0  0  0  0  0  0  0
  1  3  1  0  0  0  0
  1  4  2  0  0  0  0
  2  5  1  0  0  0  0
  2  8  2  0  0  0  0
  3 11  2  0  0  0  0
  4 12  1  0  0  0  0
  5 13  2  0  0  0  0
  6  9  1  0  0  0  0
  6 14  2  0  0  0  0
  7 10  2  0  0  0  0
  7 15  1  0  0  0  0
  8 17  1  0  0  0  0
  9 16  2  0  0  0  0
 10 16  1  0  0  0  0
 11 18  1  0  0  0  0
 12 18  2  0  0  0  0
 13 19  1  0  0  0  0
 14 21  1  0  0  0  0
 15 24  2  0  0  0  0
 16 20  1  0  0  0  0
 17 19  1  0  0  0  0
 17 22  2  0  0  0  0
 18 23  1  0  0  0  0
 19 25  2  0  0  0  0
 20 21  2  0  0  0  0
 20 24  1  0  0  0  0
 21 27  1  0  0  0  0
 22 26  1  0  0  0  0
 22 27  1  0  0  0  0
 23 25  1  0  0  0  0
 23 26  2  0  0  0  0
  1 28  1  0  0  0  0
  2 29  1  0  0  0  0
  3 30  1  0  0  0  0
  4 31  1  0  0  0  0
  5 32  1  0  0  0  0
  6 33  1  0  0  0  0
  7 34  1  0  0  0  0
  8 35  1  0  0  0  0
  9 36  1  0  0  0  0
 10 37  1  0  0  0  0
 11 38  1  0  0  0  0
 12 39  1  0  0  0  0
 13 40  1  0  0  0  0
 14 41  1  0  0  0  0
 15 42  1  0  0  0  0
M  END
> <idnumber>
Z31203845

> <heavy_atoms>
27

> <LogS>
-7.24

> <LogP>
5.155

> <rotating_bonds>
3

> <PSA>
47.9

> <hb_acceptors>
3

> <hb_donors>
0

> <Collection>
HTS

> <link>
https://www.enaminestore.com/catalog/Z31203845

> <ROCS_ShapeQuery>
x0446_0A_x1080_0A_x0929_0A_x0812_0A_x0719_0A_x1140_0A_x0528_0A_x0310_0A

> <ROCS_TanimotoCombo>
0.457 

> <ROCS_ShapeTanimoto>
0.259 

> <ROCS_ColorTanimoto>
0.198 

> <ROCS_RefTversky>
0.238 

> <ROCS_RefColorTversky>
0.214 

> <ROCS_RefTverskyCombo>
0.451 

> <ROCS_FitTversky>
1.520 

> <ROCS_FitColorTversky>
0.732 

> <ROCS_FitTverskyCombo>
2.252 

> <ROCS_ColorScore>
-7.645

> <ROCS_Overlap>
2812.944

> <ROCS_Rank>
369                 

$$$$
untitled-dbase-737543_0
  -OEChem-02092406493D

 57 62  0     0  0  0  0  0  0999 V2000
    5.2495   11.9977   19.0648 C   0  0  0  0  0  0  0  0  0  0  0  0
   12.8992   15.9103   21.7109 C   0  0  0  0  0  0  0  0  0  0  0  0
   13.0321   14.6892   22.3759 C   0  0  0  0  0  0  0  0  0  0  0  0
   11.6386   16.4000   21.3468 C   0  0  0  0  0  0  0  0  0  0  0  0
   11.9139   13.9143   22.7009 C   0  0  0  0  0  0  0  0  0  0  0  0
    2.3455   12.8931   21.2077 C   0  0  0  0  0  0  0  0  0  0  0  0
    4.4087   12.7062   19.9858 C   0  0  0  0  0  0  0  0  0  0  0  0
   10.5043   15.6344   21.6653 C   0  0  0  0  0  0  0  0  0  0  0  0
   10.6687   14.4216   22.3285 C   0  0  0  0  0  0  0  0  0  0  0  0
    3.1554   12.2012   20.3141 C   0  0  0  0  0  0  0  0  0  0  0  0
    2.8312   14.0760   21.7411 C   0  0  0  0  0  0  0  0  0  0  0  0
    4.8019   13.8976   20.5738 C   0  0  0  0  0  0  0  0  0  0  0  0
    8.5356   14.8498   21.9268 C   0  0  0  0  0  0  0  0  0  0  0  0
    8.9476   10.9104   25.4951 C   0  0  0  0  0  0  0  0  0  0  0  0
    9.1620    9.7137   23.3032 C   0  0  0  0  0  0  0  0  0  0  0  0
    6.9622   10.7080   23.9788 C   0  0  0  0  0  0  0  0  0  0  0  0
   10.2828   11.9332   23.6339 C   0  0  0  0  0  0  0  0  0  0  0  0
    8.0577   12.9388   24.3163 C   0  0  0  0  0  0  0  0  0  0  0  0
    8.2903   11.7453   22.1246 C   0  0  0  0  0  0  0  0  0  0  0  0
    9.8868   10.6115   24.3150 C   0  0  0  0  0  0  0  0  0  0  0  0
    7.6742   11.6117   24.9945 C   0  0  0  0  0  0  0  0  0  0  0  0
    7.8964   10.4184   22.7960 C   0  0  0  0  0  0  0  0  0  0  0  0
    9.0275   12.7008   23.1196 C   0  0  0  0  0  0  0  0  0  0  0  0
    7.0727   14.6442   21.9152 C   0  0  0  0  0  0  0  0  0  0  0  0
    5.9299   11.4245   18.3197 N   0  0  0  0  0  0  0  0  0  0  0  0
    9.1726   15.8837   21.4244 N   0  0  0  0  0  0  0  0  0  0  0  0
    4.0429   14.5980   21.4462 N   0  0  0  0  0  0  0  0  0  0  0  0
    9.3933   13.9418   22.4827 N   0  0  0  0  0  0  0  0  0  0  0  0
    2.6779   10.9922   19.7590 N   0  0  0  0  0  0  0  0  0  0  0  0
    1.9948   14.7699   22.6503 N   0  0  0  0  0  0  0  0  0  0  0  0
    6.3697   14.6325   20.2319 S   0  0  0  0  0  0  0  0  0  0  0  0
   13.7869   16.4907   21.4732 H   0  0  0  0  0  0  0  0  0  0  0  0
   14.0234   14.3333   22.6461 H   0  0  0  0  0  0  0  0  0  0  0  0
   11.5462   17.3503   20.8310 H   0  0  0  0  0  0  0  0  0  0  0  0
   12.0179   12.9669   23.2179 H   0  0  0  0  0  0  0  0  0  0  0  0
    1.3634   12.5157   21.4773 H   0  0  0  0  0  0  0  0  0  0  0  0
    8.6826    9.9767   26.0064 H   0  0  0  0  0  0  0  0  0  0  0  0
    9.4593   11.5419   26.2317 H   0  0  0  0  0  0  0  0  0  0  0  0
    9.8266    9.4830   22.4617 H   0  0  0  0  0  0  0  0  0  0  0  0
    8.8972    8.7579   23.7718 H   0  0  0  0  0  0  0  0  0  0  0  0
    6.6611    9.7685   24.4584 H   0  0  0  0  0  0  0  0  0  0  0  0
    6.0444   11.1921   23.6232 H   0  0  0  0  0  0  0  0  0  0  0  0
   10.8369   12.5622   24.3433 H   0  0  0  0  0  0  0  0  0  0  0  0
   10.9692   11.7326   22.8005 H   0  0  0  0  0  0  0  0  0  0  0  0
    7.1536   13.4582   23.9720 H   0  0  0  0  0  0  0  0  0  0  0  0
    8.5323   13.6036   25.0504 H   0  0  0  0  0  0  0  0  0  0  0  0
    8.9328   11.5451   21.2565 H   0  0  0  0  0  0  0  0  0  0  0  0
    7.3930   12.2411   21.7303 H   0  0  0  0  0  0  0  0  0  0  0  0
   10.7865   10.1032   24.6799 H   0  0  0  0  0  0  0  0  0  0  0  0
    7.0071   11.8118   25.8404 H   0  0  0  0  0  0  0  0  0  0  0  0
    7.3836    9.7768   22.0706 H   0  0  0  0  0  0  0  0  0  0  0  0
    6.7926   13.6930   22.4031 H   0  0  0  0  0  0  0  0  0  0  0  0
    6.5506   15.4305   22.4900 H   0  0  0  0  0  0  0  0  0  0  0  0
    1.7925   10.6388   20.0559 H   0  0  0  0  0  0  0  0  0  0  0  0
    3.2744   10.4680   19.1537 H   0  0  0  0  0  0  0  0  0  0  0  0
    1.0824   14.4127   22.8337 H   0  0  0  0  0  0  0  0  0  0  0  0
    2.3006   15.6469   23.0120 H   0  0  0  0  0  0  0  0  0  0  0  0
  1  7  1  0  0  0  0
  1 25  3  0  0  0  0
  2  3  1  0  0  0  0
  2  4  2  0  0  0  0
  3  5  2  0  0  0  0
  4  8  1  0  0  0  0
  5  9  1  0  0  0  0
  6 10  2  0  0  0  0
  6 11  1  0  0  0  0
  7 10  1  0  0  0  0
  7 12  2  0  0  0  0
  8  9  2  0  0  0  0
  8 26  1  0  0  0  0
  9 28  1  0  0  0  0
 10 29  1  0  0  0  0
 11 27  2  0  0  0  0
 11 30  1  0  0  0  0
 12 27  1  0  0  0  0
 12 31  1  0  0  0  0
 13 24  1  0  0  0  0
 13 26  2  0  0  0  0
 13 28  1  0  0  0  0
 14 20  1  0  0  0  0
 14 21  1  0  0  0  0
 15 20  1  0  0  0  0
 15 22  1  0  0  0  0
 16 21  1  0  0  0  0
 16 22  1  0  0  0  0
 17 20  1  0  0  0  0
 17 23  1  0  0  0  0
 18 21  1  0  0  0  0
 18 23  1  0  0  0  0
 19 22  1  0  0  0  0
 19 23  1  0  0  0  0
 23 28  1  0  0  0  0
 24 31  1  0  0  0  0
  2 32  1  0  0  0  0
  3 33  1  0  0  0  0
  4 34  1  0  0  0  0
  5 35  1  0  0  0  0
  6 36  1  0  0  0  0
 14 37  1  0  0  0  0
 14 38  1  0  0  0  0
 15 39  1  0  0  0  0
 15 40  1  0  0  0  0
 16 41  1  0  0  0  0
 16 42  1  0  0  0  0
 17 43  1  0  0  0  0
 17 44  1  0  0  0  0
 18 45  1  0  0  0  0
 18 46  1  0  0  0  0
 19 47  1  0  0  0  0
 19 48  1  0  0  0  0
 20 49  1  0  0  0  0
 21 50  1  0  0  0  0
 22 51  1  0  0  0  0
 24 52  1  0  0  0  0
 24 53  1  0  0  0  0
 29 54  1  0  0  0  0
 29 55  1  0  0  0  0
 30 56  1  0  0  0  0
 30 57  1  0  0  0  0
M  END
> <idnumber>
Z441177356

> <heavy_atoms>
31

> <LogS>
-6.049

> <LogP>
4.544

> <rotating_bonds>
4

> <PSA>
106.54

> <hb_acceptors>
5

> <hb_donors>
2

> <Collection>
Advanced

> <link>
https://www.enaminestore.com/catalog/Z441177356

> <ROCS_ShapeQuery>
x0446_0A_x1080_0A_x0929_0A_x0812_0A_x0719_0A_x1140_0A_x0528_0A_x0310_0A

> <ROCS_TanimotoCombo>
0.457 

> <ROCS_ShapeTanimoto>
0.278 

> <ROCS_ColorTanimoto>
0.179 

> <ROCS_RefTversky>
0.254 

> <ROCS_RefColorTversky>
0.229 

> <ROCS_RefTverskyCombo>
0.483 

> <ROCS_FitTversky>
1.514 

> <ROCS_FitColorTversky>
0.450 

> <ROCS_FitTverskyCombo>
1.964 

> <ROCS_ColorScore>
-8.305

> <ROCS_Overlap>
3005.716

> <ROCS_Rank>
370                 

$$$$
untitled-dbase-1048246_158
  -OEChem-02092406493D

 47 51  0     1  0  0  0  0  0999 V2000
    4.7304   14.8007   23.2397 C   0  0  0  0  0  0  0  0  0  0  0  0
    8.7523   15.5153   23.0877 C   0  0  0  0  0  0  0  0  0  0  0  0
    7.9465   15.6502   22.0032 C   0  0  0  0  0  0  0  0  0  0  0  0
    6.0530   15.0069   23.3489 C   0  0  0  0  0  0  0  0  0  0  0  0
    8.0384   15.0985   24.3806 C   0  0  0  0  0  0  0  0  0  0  0  0
    4.4121   15.0856   21.8125 C   0  0  0  0  0  0  0  0  0  0  0  0
   10.9066   14.3616   23.2516 C   0  0  0  0  0  0  0  0  0  0  0  0
    8.0048   10.4870   25.6276 C   0  0  0  0  0  0  0  0  0  0  0  0
    8.8503   11.2088   22.0042 C   0  0  0  0  0  0  0  0  0  0  0  0
    7.8917   10.3478   24.1328 C   0  0  2  0  0  0  0  0  0  0  0  0
    9.2382   10.3628   24.7727 C   0  0  1  0  0  0  0  0  0  0  0  0
   10.2546   11.1979   22.6628 C   0  0  2  0  0  0  0  0  0  0  0  0
    7.9449   11.5358   23.1992 C   0  0  1  0  0  0  0  0  0  0  0  0
    9.9077   11.5544   24.1226 C   0  0  1  0  0  0  0  0  0  0  0  0
    8.4205   16.0714   20.6374 C   0  0  0  0  0  0  0  0  0  0  0  0
    8.8778   14.9520   25.6328 C   0  0  0  0  0  0  0  0  0  0  0  0
   10.2366   15.7136   23.1416 C   0  0  0  0  0  0  0  0  0  0  0  0
   11.1639   12.2028   22.0415 C   0  0  0  0  0  0  0  0  0  0  0  0
    6.7634   14.8523   24.5087 N   0  0  0  0  0  0  0  0  0  0  0  0
    5.6026   15.4424   21.1985 N   0  0  0  0  0  0  0  0  0  0  0  0
    6.5929   15.3936   22.1382 N   0  0  0  0  0  0  0  0  0  0  0  0
   10.6301   13.5397   22.1712 N   0  0  0  0  0  0  0  0  0  0  0  0
    3.2980   15.0048   21.3246 O   0  0  0  0  0  0  0  0  0  0  0  0
   11.6214   14.0605   24.2061 O   0  0  0  0  0  0  0  0  0  0  0  0
    8.8017   12.4685   23.9050 O   0  0  0  0  0  0  0  0  0  0  0  0
    4.0232   14.4953   23.9905 H   0  0  0  0  0  0  0  0  0  0  0  0
    7.7796   11.4426   26.0839 H   0  0  0  0  0  0  0  0  0  0  0  0
    7.7244    9.6323   26.2316 H   0  0  0  0  0  0  0  0  0  0  0  0
    8.7791   11.9936   21.2428 H   0  0  0  0  0  0  0  0  0  0  0  0
    8.6033   10.2484   21.5410 H   0  0  0  0  0  0  0  0  0  0  0  0
    7.5113    9.4332   23.7049 H   0  0  0  0  0  0  0  0  0  0  0  0
    9.8259    9.4584   24.8071 H   0  0  0  0  0  0  0  0  0  0  0  0
   10.7171   10.2067   22.5896 H   0  0  0  0  0  0  0  0  0  0  0  0
    6.9752   11.9717   22.9504 H   0  0  0  0  0  0  0  0  0  0  0  0
   10.7063   12.0081   24.7138 H   0  0  0  0  0  0  0  0  0  0  0  0
    8.6985   15.1896   20.0683 H   0  0  0  0  0  0  0  0  0  0  0  0
    9.2789   16.7282   20.7435 H   0  0  0  0  0  0  0  0  0  0  0  0
    7.6204   16.6017   20.1295 H   0  0  0  0  0  0  0  0  0  0  0  0
    8.9051   15.9045   26.1471 H   0  0  0  0  0  0  0  0  0  0  0  0
    9.8782   14.6493   25.3486 H   0  0  0  0  0  0  0  0  0  0  0  0
    8.4302   14.1955   26.2657 H   0  0  0  0  0  0  0  0  0  0  0  0
   10.4999   16.3000   24.0230 H   0  0  0  0  0  0  0  0  0  0  0  0
   10.5536   16.2616   22.2540 H   0  0  0  0  0  0  0  0  0  0  0  0
   12.1434   12.1574   22.5400 H   0  0  0  0  0  0  0  0  0  0  0  0
   11.2844   11.9664   20.9740 H   0  0  0  0  0  0  0  0  0  0  0  0
    5.7848   15.7011   20.2380 H   0  0  0  0  0  0  0  0  0  0  0  0
   10.0245   13.8928   21.4367 H   0  0  0  0  0  0  0  0  0  0  0  0
  1  4  2  0  0  0  0
  1  6  1  0  0  0  0
  2  3  2  0  0  0  0
  2  5  1  0  0  0  0
  2 17  1  0  0  0  0
  3 15  1  0  0  0  0
  3 21  1  0  0  0  0
  4 19  1  0  0  0  0
  4 21  1  0  0  0  0
  5 16  1  0  0  0  0
  5 19  2  0  0  0  0
  6 20  1  0  0  0  0
  6 23  2  0  0  0  0
  7 17  1  0  0  0  0
  7 22  1  0  0  0  0
  7 24  2  0  0  0  0
  8 10  1  1  0  0  0
  8 11  1  1  0  0  0
  9 12  1  0  0  0  0
  9 13  1  0  0  0  0
 10 11  1  0  0  0  0
 10 13  1  0  0  0  0
 11 14  1  0  0  0  0
 12 14  1  0  0  0  0
 12 18  1  1  0  0  0
 13 25  1  1  0  0  0
 14 25  1  1  0  0  0
 18 22  1  0  0  0  0
 20 21  1  0  0  0  0
  1 26  1  0  0  0  0
  8 27  1  0  0  0  0
  8 28  1  0  0  0  0
  9 29  1  0  0  0  0
  9 30  1  0  0  0  0
 10 31  1  0  0  0  0
 11 32  1  0  0  0  0
 12 33  1  0  0  0  0
 13 34  1  0  0  0  0
 14 35  1  0  0  0  0
 15 36  1  0  0  0  0
 15 37  1  0  0  0  0
 15 38  1  0  0  0  0
 16 39  1  0  0  0  0
 16 40  1  0  0  0  0
 16 41  1  0  0  0  0
 17 42  1  0  0  0  0
 17 43  1  0  0  0  0
 18 44  1  0  0  0  0
 18 45  1  0  0  0  0
 20 46  1  0  0  0  0
 22 47  1  0  0  0  0
M  END
> <idnumber>
Z3645701661

> <heavy_atoms>
25

> <LogS>
-3.043

> <LogP>
0.047

> <rotating_bonds>
4

> <PSA>
83.03

> <hb_acceptors>
5

> <hb_donors>
2

> <Collection>
Advanced

> <link>
https://www.enaminestore.com/catalog/Z3645701661

> <ROCS_ShapeQuery>
x0446_0A_x1080_0A_x0929_0A_x0812_0A_x0719_0A_x1140_0A_x0528_0A_x0310_0A

> <ROCS_TanimotoCombo>
0.457 

> <ROCS_ShapeTanimoto>
0.244 

> <ROCS_ColorTanimoto>
0.213 

> <ROCS_RefTversky>
0.225 

> <ROCS_RefColorTversky>
0.299 

> <ROCS_RefTverskyCombo>
0.524 

> <ROCS_FitTversky>
1.536 

> <ROCS_FitColorTversky>
0.425 

> <ROCS_FitTverskyCombo>
1.961 

> <ROCS_ColorScore>
-10.955

> <ROCS_Overlap>
2658.885

> <ROCS_Rank>
371                 

$$$$
untitled-dbase-324933_6
  -OEChem-02092406493D

 32 34  0     0  0  0  0  0  0999 V2000
   13.5008   14.7631   22.1762 C   0  0  0  0  0  0  0  0  0  0  0  0
   13.2820   14.0626   23.3624 C   0  0  0  0  0  0  0  0  0  0  0  0
   12.4192   15.2705   21.4562 C   0  0  0  0  0  0  0  0  0  0  0  0
   11.9816   13.8694   23.8285 C   0  0  0  0  0  0  0  0  0  0  0  0
    9.6789   10.6227   23.5591 C   0  0  0  0  0  0  0  0  0  0  0  0
    7.9402   12.5374   24.2197 C   0  0  0  0  0  0  0  0  0  0  0  0
    6.8227   13.3232   24.6437 C   0  0  0  0  0  0  0  0  0  0  0  0
   11.1188   15.0773   21.9223 C   0  0  0  0  0  0  0  0  0  0  0  0
   10.9000   14.3767   23.1085 C   0  0  0  0  0  0  0  0  0  0  0  0
    5.7553   12.5494   25.0446 C   0  0  0  0  0  0  0  0  0  0  0  0
    9.2116   12.8695   23.7409 C   0  0  0  0  0  0  0  0  0  0  0  0
    7.6585   11.1813   24.3224 C   0  0  0  0  0  0  0  0  0  0  0  0
    6.8037   14.8083   24.6551 C   0  0  0  0  0  0  0  0  0  0  0  0
    4.4309   12.9809   25.5458 C   0  0  0  0  0  0  0  0  0  0  0  0
   10.0878   11.8976   23.4081 N   0  0  0  0  0  0  0  0  0  0  0  0
    8.4928   10.1720   24.0051 N   0  0  0  0  0  0  0  0  0  0  0  0
   10.0280   15.6015   21.1756 N   0  3  0  0  0  0  0  0  0  0  0  0
   10.2644   16.2259   20.1144 O   0  5  0  0  0  0  0  0  0  0  0  0
    8.8618   15.4241   21.6007 O   0  0  0  0  0  0  0  0  0  0  0  0
    9.6238   14.1710   23.5889 O   0  0  0  0  0  0  0  0  0  0  0  0
    6.0892   10.8769   24.9131 S   0  0  0  0  0  0  0  0  0  0  0  0
   14.5133   14.9134   21.8131 H   0  0  0  0  0  0  0  0  0  0  0  0
   14.1241   13.6677   23.9231 H   0  0  0  0  0  0  0  0  0  0  0  0
   12.6048   15.8147   20.5332 H   0  0  0  0  0  0  0  0  0  0  0  0
   11.8183   13.3227   24.7537 H   0  0  0  0  0  0  0  0  0  0  0  0
   10.4008    9.8611   23.2851 H   0  0  0  0  0  0  0  0  0  0  0  0
    6.4357   15.1991   23.6961 H   0  0  0  0  0  0  0  0  0  0  0  0
    6.1574   15.1986   25.4551 H   0  0  0  0  0  0  0  0  0  0  0  0
    7.8065   15.2243   24.8328 H   0  0  0  0  0  0  0  0  0  0  0  0
    3.7161   13.0981   24.7169 H   0  0  0  0  0  0  0  0  0  0  0  0
    4.0068   12.2559   26.2589 H   0  0  0  0  0  0  0  0  0  0  0  0
    4.4891   13.9421   26.0815 H   0  0  0  0  0  0  0  0  0  0  0  0
  1  2  1  0  0  0  0
  1  3  2  0  0  0  0
  2  4  2  0  0  0  0
  3  8  1  0  0  0  0
  4  9  1  0  0  0  0
  5 15  1  0  0  0  0
  5 16  2  0  0  0  0
  6  7  1  0  0  0  0
  6 11  1  0  0  0  0
  6 12  2  0  0  0  0
  7 10  2  0  0  0  0
  7 13  1  0  0  0  0
  8  9  2  0  0  0  0
  8 17  1  0  0  0  0
  9 20  1  0  0  0  0
 10 14  1  0  0  0  0
 10 21  1  0  0  0  0
 11 15  2  0  0  0  0
 11 20  1  0  0  0  0
 12 16  1  0  0  0  0
 12 21  1  0  0  0  0
 17 18  1  0  0  0  0
 17 19  2  0  0  0  0
  1 22  1  0  0  0  0
  2 23  1  0  0  0  0
  3 24  1  0  0  0  0
  4 25  1  0  0  0  0
  5 26  1  0  0  0  0
 13 27  1  0  0  0  0
 13 28  1  0  0  0  0
 13 29  1  0  0  0  0
 14 30  1  0  0  0  0
 14 31  1  0  0  0  0
 14 32  1  0  0  0  0
M  CHG  2  17   1  18  -1
M  END
> <idnumber>
Z31209577

> <heavy_atoms>
21

> <LogS>
-6.098

> <LogP>
3.395

> <rotating_bonds>
3

> <PSA>
78.15

> <hb_acceptors>
4

> <hb_donors>
0

> <Collection>
HTS

> <link>
https://www.enaminestore.com/catalog/Z31209577

> <ROCS_ShapeQuery>
x0446_0A_x1080_0A_x0929_0A_x0812_0A_x0719_0A_x1140_0A_x0528_0A_x0310_0A

> <ROCS_TanimotoCombo>
0.457 

> <ROCS_ShapeTanimoto>
0.251 

> <ROCS_ColorTanimoto>
0.206 

> <ROCS_RefTversky>
0.227 

> <ROCS_RefColorTversky>
0.216 

> <ROCS_RefTverskyCombo>
0.443 

> <ROCS_FitTversky>
1.745 

> <ROCS_FitColorTversky>
0.812 

> <ROCS_FitTverskyCombo>
2.557 

> <ROCS_ColorScore>
-7.717

> <ROCS_Overlap>
2681.324

> <ROCS_Rank>
372                 

$$$$
untitled-dbase-1113435_43
  -OEChem-02092406493D

 40 43  0     1  0  0  0  0  0999 V2000
   11.7582   14.8921   20.7162 C   0  0  0  0  0  0  0  0  0  0  0  0
   12.8382   15.0055   21.5916 C   0  0  0  0  0  0  0  0  0  0  0  0
   10.4584   15.0877   21.1832 C   0  0  0  0  0  0  0  0  0  0  0  0
   12.6186   15.3145   22.9339 C   0  0  0  0  0  0  0  0  0  0  0  0
   10.2387   15.3966   22.5256 C   0  0  0  0  0  0  0  0  0  0  0  0
   11.3188   15.5100   23.4010 C   0  0  0  0  0  0  0  0  0  0  0  0
   10.2243   10.5842   24.6717 C   0  0  0  0  0  0  0  0  0  0  0  0
    9.1490   11.2207   25.5797 C   0  0  0  0  0  0  0  0  0  0  0  0
    9.9581   12.4342   23.0077 C   0  0  0  0  0  0  0  0  0  0  0  0
    9.9269   10.8966   23.1873 C   0  0  2  0  0  0  0  0  0  0  0  0
    8.1295   12.0047   24.7207 C   0  0  2  0  0  0  0  0  0  0  0  0
    8.5300   10.4415   22.8152 C   0  0  2  0  0  0  0  0  0  0  0  0
    7.4952   11.0788   23.6965 C   0  0  1  0  0  0  0  0  0  0  0  0
    8.9318   13.0936   23.9615 C   0  0  2  0  0  0  0  0  0  0  0  0
   11.1200   17.1912   25.0712 C   0  0  0  0  0  0  0  0  0  0  0  0
    8.8922   15.5953   22.9918 N   0  0  0  0  0  0  0  0  0  0  0  0
    6.7729   14.5446   23.9950 O   0  0  0  0  0  0  0  0  0  0  0  0
    7.5997   13.6671   21.7834 O   0  0  0  0  0  0  0  0  0  0  0  0
    7.7914    9.6801   23.7744 O   0  0  0  0  0  0  0  0  0  0  0  0
   11.1241   15.8102   24.7158 O   0  0  0  0  0  0  0  0  0  0  0  0
    7.8697   14.2184   23.0991 S   0  0  0  0  0  0  0  0  0  0  0  0
   11.9298   14.6522   19.6710 H   0  0  0  0  0  0  0  0  0  0  0  0
   13.8501   14.8528   21.2278 H   0  0  0  0  0  0  0  0  0  0  0  0
    9.6237   14.9964   20.4928 H   0  0  0  0  0  0  0  0  0  0  0  0
   13.4646   15.4011   23.6104 H   0  0  0  0  0  0  0  0  0  0  0  0
   11.2148   10.9653   24.9474 H   0  0  0  0  0  0  0  0  0  0  0  0
   10.2473    9.5000   24.8354 H   0  0  0  0  0  0  0  0  0  0  0  0
    8.6404   10.4368   26.1541 H   0  0  0  0  0  0  0  0  0  0  0  0
    9.6256   11.8849   26.3103 H   0  0  0  0  0  0  0  0  0  0  0  0
   10.9618   12.8145   23.2330 H   0  0  0  0  0  0  0  0  0  0  0  0
    9.7519   12.6881   21.9608 H   0  0  0  0  0  0  0  0  0  0  0  0
   10.6683   10.4167   22.5405 H   0  0  0  0  0  0  0  0  0  0  0  0
    7.3561   12.4477   25.3571 H   0  0  0  0  0  0  0  0  0  0  0  0
    8.3320   10.3287   21.7608 H   0  0  0  0  0  0  0  0  0  0  0  0
    6.5575   11.4043   23.2742 H   0  0  0  0  0  0  0  0  0  0  0  0
    9.4651   13.7246   24.6839 H   0  0  0  0  0  0  0  0  0  0  0  0
   10.9553   17.2909   26.1469 H   0  0  0  0  0  0  0  0  0  0  0  0
   10.3292   17.7076   24.5213 H   0  0  0  0  0  0  0  0  0  0  0  0
   12.0870   17.6281   24.8110 H   0  0  0  0  0  0  0  0  0  0  0  0
    8.8203   16.2556   23.7777 H   0  0  0  0  0  0  0  0  0  0  0  0
  1  2  1  0  0  0  0
  1  3  2  0  0  0  0
  2  4  2  0  0  0  0
  3  5  1  0  0  0  0
  4  6  1  0  0  0  0
  5  6  2  0  0  0  0
  5 16  1  0  0  0  0
  6 20  1  0  0  0  0
  7  8  1  0  0  0  0
  7 10  1  0  0  0  0
  8 11  1  1  0  0  0
  9 10  1  6  0  0  0
  9 14  1  0  0  0  0
 10 12  1  0  0  0  0
 11 13  1  0  0  0  0
 11 14  1  0  0  0  0
 12 13  1  0  0  0  0
 12 19  1  1  0  0  0
 13 19  1  1  0  0  0
 14 21  1  6  0  0  0
 15 20  1  0  0  0  0
 16 21  1  0  0  0  0
 17 21  2  0  0  0  0
 18 21  2  0  0  0  0
  1 22  1  0  0  0  0
  2 23  1  0  0  0  0
  3 24  1  0  0  0  0
  4 25  1  0  0  0  0
  7 26  1  0  0  0  0
  7 27  1  0  0  0  0
  8 28  1  0  0  0  0
  8 29  1  0  0  0  0
  9 30  1  0  0  0  0
  9 31  1  0  0  0  0
 10 32  1  0  0  0  0
 11 33  1  0  0  0  0
 12 34  1  0  0  0  0
 13 35  1  0  0  0  0
 14 36  1  0  0  0  0
 15 37  1  0  0  0  0
 15 38  1  0  0  0  0
 15 39  1  0  0  0  0
 16 40  1  0  0  0  0
M  END
> <idnumber>
Z5114923475

> <heavy_atoms>
21

> <LogS>
-3.747

> <LogP>
2.18

> <rotating_bonds>
3

> <PSA>
67.93

> <hb_acceptors>
4

> <hb_donors>
1

> <Collection>
Functional

> <link>
https://www.enaminestore.com/catalog/Z5114923475

> <ROCS_ShapeQuery>
x0446_0A_x1080_0A_x0929_0A_x0812_0A_x0719_0A_x1140_0A_x0528_0A_x0310_0A

> <ROCS_TanimotoCombo>
0.457 

> <ROCS_ShapeTanimoto>
0.234 

> <ROCS_ColorTanimoto>
0.223 

> <ROCS_RefTversky>
0.214 

> <ROCS_RefColorTversky>
0.298 

> <ROCS_RefTverskyCombo>
0.512 

> <ROCS_FitTversky>
1.676 

> <ROCS_FitColorTversky>
0.469 

> <ROCS_FitTverskyCombo>
2.145 

> <ROCS_ColorScore>
-10.847

> <ROCS_Overlap>
2528.872

> <ROCS_Rank>
373                 

$$$$
untitled-dbase-1154133_9
  -OEChem-02092406493D

 49 52  0     1  0  0  0  0  0999 V2000
   13.3199   14.6747   22.9194 C   0  0  0  0  0  0  0  0  0  0  0  0
   12.4291   13.6310   22.6691 C   0  0  0  0  0  0  0  0  0  0  0  0
   13.0363   15.9598   22.4569 C   0  0  0  0  0  0  0  0  0  0  0  0
    3.9240   12.9367   21.6510 C   0  0  0  0  0  0  0  0  0  0  0  0
   11.2547   13.8723   21.9562 C   0  0  0  0  0  0  0  0  0  0  0  0
   11.8619   16.2011   21.7440 C   0  0  0  0  0  0  0  0  0  0  0  0
   10.9710   15.1573   21.4936 C   0  0  0  0  0  0  0  0  0  0  0  0
    5.4812   13.5687   22.9572 C   0  0  0  0  0  0  0  0  0  0  0  0
    5.0692   14.7041   22.3002 C   0  0  0  0  0  0  0  0  0  0  0  0
   10.3444   12.7462   21.7136 C   0  0  0  0  0  0  0  0  0  0  0  0
    6.5429   13.4823   23.9706 C   0  0  0  0  0  0  0  0  0  0  0  0
    8.5664   10.6221   25.0215 C   0  0  0  0  0  0  0  0  0  0  0  0
    9.4790   10.6533   22.6974 C   0  0  0  0  0  0  0  0  0  0  0  0
    7.0381   11.0748   23.2627 C   0  0  0  0  0  0  0  0  0  0  0  0
    9.6607   12.6895   24.1653 C   0  0  0  0  0  0  0  0  0  0  0  0
    8.2834   10.2300   23.5700 C   0  0  2  0  0  0  0  0  0  0  0  0
    8.4312   12.1376   24.9051 C   0  0  1  0  0  0  0  0  0  0  0  0
   11.5926   17.5900   21.2607 C   0  0  0  0  0  0  0  0  0  0  0  0
    5.4988   16.1102   22.3674 C   0  0  0  0  0  0  0  0  0  0  0  0
    4.7646   12.4719   22.5484 N   0  0  0  0  0  0  0  0  0  0  0  0
    4.0716   14.2834   21.4665 N   0  0  0  0  0  0  0  0  0  0  0  0
    9.8112   12.0828   22.8242 N   0  0  0  0  0  0  0  0  0  0  0  0
    7.2441   12.2910   24.0563 N   0  0  0  0  0  0  0  0  0  0  0  0
    9.7746   15.4058   20.7599 N   0  3  0  0  0  0  0  0  0  0  0  0
    9.7972   15.2909   19.5132 O   0  5  0  0  0  0  0  0  0  0  0  0
   10.1138   12.4741   20.5366 O   0  0  0  0  0  0  0  0  0  0  0  0
    6.7507   14.4795   24.6585 O   0  0  0  0  0  0  0  0  0  0  0  0
    8.7402   15.7313   21.3862 O   0  0  0  0  0  0  0  0  0  0  0  0
   14.2330   14.4863   23.4765 H   0  0  0  0  0  0  0  0  0  0  0  0
   12.6616   12.6344   23.0357 H   0  0  0  0  0  0  0  0  0  0  0  0
   13.7374   16.7658   22.6572 H   0  0  0  0  0  0  0  0  0  0  0  0
    3.1926   12.3586   21.1045 H   0  0  0  0  0  0  0  0  0  0  0  0
    7.8051   10.2117   25.6956 H   0  0  0  0  0  0  0  0  0  0  0  0
    9.5520   10.2983   25.3709 H   0  0  0  0  0  0  0  0  0  0  0  0
   10.3756   10.0939   22.9905 H   0  0  0  0  0  0  0  0  0  0  0  0
    9.2793   10.4186   21.6457 H   0  0  0  0  0  0  0  0  0  0  0  0
    6.9200   11.3153   22.2018 H   0  0  0  0  0  0  0  0  0  0  0  0
    6.1258   10.5896   23.6269 H   0  0  0  0  0  0  0  0  0  0  0  0
    9.5849   13.7781   24.0810 H   0  0  0  0  0  0  0  0  0  0  0  0
   10.5781   12.4651   24.7224 H   0  0  0  0  0  0  0  0  0  0  0  0
    8.0898    9.1586   23.4625 H   0  0  0  0  0  0  0  0  0  0  0  0
    8.2955   12.6350   25.8701 H   0  0  0  0  0  0  0  0  0  0  0  0
   12.0147   17.7306   20.2595 H   0  0  0  0  0  0  0  0  0  0  0  0
   10.5157   17.7917   21.2190 H   0  0  0  0  0  0  0  0  0  0  0  0
   12.0323   18.3347   21.9348 H   0  0  0  0  0  0  0  0  0  0  0  0
    6.3088   16.3175   21.6467 H   0  0  0  0  0  0  0  0  0  0  0  0
    4.6728   16.8107   22.1484 H   0  0  0  0  0  0  0  0  0  0  0  0
    5.8694   16.3864   23.3712 H   0  0  0  0  0  0  0  0  0  0  0  0
    3.5384   14.8595   20.8286 H   0  0  0  0  0  0  0  0  0  0  0  0
  1  2  2  0  0  0  0
  1  3  1  0  0  0  0
  2  5  1  0  0  0  0
  3  6  2  0  0  0  0
  4 20  2  0  0  0  0
  4 21  1  0  0  0  0
  5  7  2  0  0  0  0
  5 10  1  0  0  0  0
  6  7  1  0  0  0  0
  6 18  1  0  0  0  0
  7 24  1  0  0  0  0
  8  9  2  0  0  0  0
  8 11  1  0  0  0  0
  8 20  1  0  0  0  0
  9 19  1  0  0  0  0
  9 21  1  0  0  0  0
 10 22  1  0  0  0  0
 10 26  2  0  0  0  0
 11 23  1  0  0  0  0
 11 27  2  0  0  0  0
 12 16  1  0  0  0  0
 12 17  1  0  0  0  0
 13 16  1  0  0  0  0
 13 22  1  0  0  0  0
 14 16  1  0  0  0  0
 14 23  1  0  0  0  0
 15 17  1  0  0  0  0
 15 22  1  0  0  0  0
 17 23  1  0  0  0  0
 24 25  1  0  0  0  0
 24 28  2  0  0  0  0
  1 29  1  0  0  0  0
  2 30  1  0  0  0  0
  3 31  1  0  0  0  0
  4 32  1  0  0  0  0
 12 33  1  0  0  0  0
 12 34  1  0  0  0  0
 13 35  1  0  0  0  0
 13 36  1  0  0  0  0
 14 37  1  0  0  0  0
 14 38  1  0  0  0  0
 15 39  1  0  0  0  0
 15 40  1  0  0  0  0
 16 41  1  0  0  0  0
 17 42  1  0  0  0  0
 18 43  1  0  0  0  0
 18 44  1  0  0  0  0
 18 45  1  0  0  0  0
 19 46  1  0  0  0  0
 19 47  1  0  0  0  0
 19 48  1  0  0  0  0
 21 49  1  0  0  0  0
M  CHG  2  24   1  25  -1
M  END
> <idnumber>
Z7371462749

> <heavy_atoms>
28

> <LogS>
-5.126

> <LogP>
0.824

> <rotating_bonds>
3

> <PSA>
112.44

> <hb_acceptors>
5

> <hb_donors>
1

> <Collection>
Advanced

> <link>
https://www.enaminestore.com/catalog/Z7371462749

> <ROCS_ShapeQuery>
x0446_0A_x1080_0A_x0929_0A_x0812_0A_x0719_0A_x1140_0A_x0528_0A_x0310_0A

> <ROCS_TanimotoCombo>
0.457 

> <ROCS_ShapeTanimoto>
0.266 

> <ROCS_ColorTanimoto>
0.191 

> <ROCS_RefTversky>
0.243 

> <ROCS_RefColorTversky>
0.232 

> <ROCS_RefTverskyCombo>
0.475 

> <ROCS_FitTversky>
1.545 

> <ROCS_FitColorTversky>
0.522 

> <ROCS_FitTverskyCombo>
2.067 

> <ROCS_ColorScore>
-8.353

> <ROCS_Overlap>
2876.031

> <ROCS_Rank>
374                 

$$$$
untitled-dbase-1070492_66
  -OEChem-02092406493D

 53 55  0     1  0  0  0  0  0999 V2000
    8.0368   12.2134   24.1650 C   0  0  0  0  0  0  0  0  0  0  0  0
    9.3204   12.0471   23.7128 C   0  0  0  0  0  0  0  0  0  0  0  0
    7.5671   10.9052   24.4100 C   0  0  0  0  0  0  0  0  0  0  0  0
   10.2997   13.0627   23.3110 C   0  0  0  0  0  0  0  0  0  0  0  0
    7.1931   13.4060   24.4064 C   0  0  0  0  0  0  0  0  0  0  0  0
    9.1582   13.4592   21.0777 C   0  0  0  0  0  0  0  0  0  0  0  0
   11.5647   13.9767   21.3928 C   0  0  0  0  0  0  0  0  0  0  0  0
    8.3889   14.7762   21.0964 C   0  0  0  0  0  0  0  0  0  0  0  0
   10.3406   16.0492   20.4986 C   0  0  0  0  0  0  0  0  0  0  0  0
    6.1806   10.6394   24.8887 C   0  0  1  0  0  0  0  0  0  0  0  0
    5.7095   12.9720   24.4574 C   0  0  2  0  0  0  0  0  0  0  0  0
   11.5982   15.5166   21.2252 C   0  0  0  0  0  0  0  0  0  0  0  0
    6.1261    9.6439   26.0406 C   0  0  0  0  0  0  0  0  0  0  0  0
    4.8285   14.1076   24.9584 C   0  0  0  0  0  0  0  0  0  0  0  0
   11.7371   16.1905   22.6050 C   0  0  0  0  0  0  0  0  0  0  0  0
   12.8370   15.8768   20.3820 C   0  0  0  0  0  0  0  0  0  0  0  0
   11.5502    9.5294   24.4881 C   0  0  0  0  0  0  0  0  0  0  0  0
   10.7376   10.0125   23.2990 C   0  0  0  0  0  0  0  0  0  0  0  0
    8.4716    9.9695   24.1137 N   0  0  0  0  0  0  0  0  0  0  0  0
    9.5304   10.6958   23.7030 N   0  0  0  0  0  0  0  0  0  0  0  0
   10.3213   13.4593   21.9700 N   0  0  0  0  0  0  0  0  0  0  0  0
   11.0281   13.4972   24.2017 O   0  0  0  0  0  0  0  0  0  0  0  0
    9.1826   15.9350   21.3191 O   0  0  0  0  0  0  0  0  0  0  0  0
    5.5455   11.8566   25.3589 O   0  0  0  0  0  0  0  0  0  0  0  0
    7.4890   13.8451   25.3672 H   0  0  0  0  0  0  0  0  0  0  0  0
    7.3399   14.1612   23.6268 H   0  0  0  0  0  0  0  0  0  0  0  0
    8.5068   12.6498   21.3798 H   0  0  0  0  0  0  0  0  0  0  0  0
    9.5139   13.2828   20.0702 H   0  0  0  0  0  0  0  0  0  0  0  0
   11.7100   13.5128   20.4097 H   0  0  0  0  0  0  0  0  0  0  0  0
   12.4014   13.6244   22.0082 H   0  0  0  0  0  0  0  0  0  0  0  0
    7.9189   14.9076   20.0978 H   0  0  0  0  0  0  0  0  0  0  0  0
    7.5203   14.7347   21.7961 H   0  0  0  0  0  0  0  0  0  0  0  0
   10.4702   17.0787   20.1777 H   0  0  0  0  0  0  0  0  0  0  0  0
   10.1555   15.4511   19.6105 H   0  0  0  0  0  0  0  0  0  0  0  0
    5.5780   10.2574   24.0556 H   0  0  0  0  0  0  0  0  0  0  0  0
    5.3623   12.6671   23.4610 H   0  0  0  0  0  0  0  0  0  0  0  0
    6.7210   10.0092   26.8778 H   0  0  0  0  0  0  0  0  0  0  0  0
    6.5218    8.6802   25.7197 H   0  0  0  0  0  0  0  0  0  0  0  0
    5.0956    9.5111   26.3703 H   0  0  0  0  0  0  0  0  0  0  0  0
    5.1561   14.4268   25.9484 H   0  0  0  0  0  0  0  0  0  0  0  0
    3.7910   13.7773   25.0200 H   0  0  0  0  0  0  0  0  0  0  0  0
    4.8883   14.9567   24.2765 H   0  0  0  0  0  0  0  0  0  0  0  0
   11.7591   17.2657   22.4727 H   0  0  0  0  0  0  0  0  0  0  0  0
   12.6572   15.8573   23.0701 H   0  0  0  0  0  0  0  0  0  0  0  0
   10.8903   15.9120   23.2212 H   0  0  0  0  0  0  0  0  0  0  0  0
   12.8787   16.9525   20.2530 H   0  0  0  0  0  0  0  0  0  0  0  0
   12.7611   15.3935   19.4144 H   0  0  0  0  0  0  0  0  0  0  0  0
   13.7283   15.5335   20.8952 H   0  0  0  0  0  0  0  0  0  0  0  0
   11.8417   10.3646   25.1338 H   0  0  0  0  0  0  0  0  0  0  0  0
   12.4610    9.0280   24.1466 H   0  0  0  0  0  0  0  0  0  0  0  0
   10.9779    8.8212   25.0966 H   0  0  0  0  0  0  0  0  0  0  0  0
   10.4508    9.1703   22.6593 H   0  0  0  0  0  0  0  0  0  0  0  0
   11.3261   10.7025   22.6838 H   0  0  0  0  0  0  0  0  0  0  0  0
  1  2  2  0  0  0  0
  1  3  1  0  0  0  0
  1  5  1  0  0  0  0
  2  4  1  0  0  0  0
  2 20  1  0  0  0  0
  3 10  1  0  0  0  0
  3 19  2  0  0  0  0
  4 21  1  0  0  0  0
  4 22  2  0  0  0  0
  5 11  1  0  0  0  0
  6  8  1  0  0  0  0
  6 21  1  0  0  0  0
  7 12  1  0  0  0  0
  7 21  1  0  0  0  0
  8 23  1  0  0  0  0
  9 12  1  0  0  0  0
  9 23  1  0  0  0  0
 10 13  1  1  0  0  0
 10 24  1  0  0  0  0
 11 14  1  1  0  0  0
 11 24  1  0  0  0  0
 12 15  1  0  0  0  0
 12 16  1  0  0  0  0
 17 18  1  0  0  0  0
 18 20  1  0  0  0  0
 19 20  1  0  0  0  0
  5 25  1  0  0  0  0
  5 26  1  0  0  0  0
  6 27  1  0  0  0  0
  6 28  1  0  0  0  0
  7 29  1  0  0  0  0
  7 30  1  0  0  0  0
  8 31  1  0  0  0  0
  8 32  1  0  0  0  0
  9 33  1  0  0  0  0
  9 34  1  0  0  0  0
 10 35  1  0  0  0  0
 11 36  1  0  0  0  0
 13 37  1  0  0  0  0
 13 38  1  0  0  0  0
 13 39  1  0  0  0  0
 14 40  1  0  0  0  0
 14 41  1  0  0  0  0
 14 42  1  0  0  0  0
 15 43  1  0  0  0  0
 15 44  1  0  0  0  0
 15 45  1  0  0  0  0
 16 46  1  0  0  0  0
 16 47  1  0  0  0  0
 16 48  1  0  0  0  0
 17 49  1  0  0  0  0
 17 50  1  0  0  0  0
 17 51  1  0  0  0  0
 18 52  1  0  0  0  0
 18 53  1  0  0  0  0
M  END
> <idnumber>
Z4105195043

> <heavy_atoms>
24

> <LogS>
-2.253

> <LogP>
0.897

> <rotating_bonds>
2

> <PSA>
56.59

> <hb_acceptors>
4

> <hb_donors>
0

> <Collection>
HTS

> <link>
https://www.enaminestore.com/catalog/Z4105195043

> <ROCS_ShapeQuery>
x0446_0A_x1080_0A_x0929_0A_x0812_0A_x0719_0A_x1140_0A_x0528_0A_x0310_0A

> <ROCS_TanimotoCombo>
0.457 

> <ROCS_ShapeTanimoto>
0.266 

> <ROCS_ColorTanimoto>
0.191 

> <ROCS_RefTversky>
0.239 

> <ROCS_RefColorTversky>
0.203 

> <ROCS_RefTverskyCombo>
0.442 

> <ROCS_FitTversky>
1.728 

> <ROCS_FitColorTversky>
0.765 

> <ROCS_FitTverskyCombo>
2.493 

> <ROCS_ColorScore>
-7.250

> <ROCS_Overlap>
2826.179

> <ROCS_Rank>
375                 

$$$$
untitled-dbase-459492_42
  -OEChem-02092406493D

 41 43  0     0  0  0  0  0  0999 V2000
   11.7097   15.7526   21.3654 C   0  0  0  0  0  0  0  0  0  0  0  0
   12.9140   15.2346   21.8416 C   0  0  0  0  0  0  0  0  0  0  0  0
   11.7034   13.8991   23.4504 C   0  0  0  0  0  0  0  0  0  0  0  0
   10.4991   14.4172   22.9741 C   0  0  0  0  0  0  0  0  0  0  0  0
    9.0066   12.4399   23.6553 C   0  0  0  0  0  0  0  0  0  0  0  0
    7.9520   14.7209   23.1194 C   0  0  0  0  0  0  0  0  0  0  0  0
   10.5022   15.3439   21.9317 C   0  0  0  0  0  0  0  0  0  0  0  0
   12.9109   14.3078   22.8841 C   0  0  0  0  0  0  0  0  0  0  0  0
    8.3674   11.6932   24.6631 C   0  0  0  0  0  0  0  0  0  0  0  0
    7.4339   15.9365   23.6048 C   0  0  0  0  0  0  0  0  0  0  0  0
    9.4063   11.5024   22.7345 C   0  0  0  0  0  0  0  0  0  0  0  0
    7.0796   14.3480   22.1263 C   0  0  0  0  0  0  0  0  0  0  0  0
    7.7439   12.1943   25.9007 C   0  0  0  0  0  0  0  0  0  0  0  0
    7.9759   16.7834   24.6821 C   0  0  0  0  0  0  0  0  0  0  0  0
    9.4314   16.8010   20.3870 C   0  0  0  0  0  0  0  0  0  0  0  0
    9.2159   13.9691   23.5923 C   0  0  0  0  0  0  0  0  0  0  0  0
    8.3589   10.3824   24.4067 N   0  0  0  0  0  0  0  0  0  0  0  0
    6.3189   16.3111   22.9720 N   0  0  0  0  0  0  0  0  0  0  0  0
    8.9977   10.2981   23.2273 N   0  0  0  0  0  0  0  0  0  0  0  0
    6.1292   15.3251   22.0788 N   0  0  0  0  0  0  0  0  0  0  0  0
   10.0505   11.5902   21.5817 O   0  0  0  0  0  0  0  0  0  0  0  0
    7.0353   13.3063   21.3110 O   0  0  0  0  0  0  0  0  0  0  0  0
    9.3351   15.8597   21.4539 O   0  0  0  0  0  0  0  0  0  0  0  0
   14.5433   13.6060   23.5287 Br  0  0  0  0  0  0  0  0  0  0  0  0
   11.7188   16.4749   20.5537 H   0  0  0  0  0  0  0  0  0  0  0  0
   13.8460   15.5629   21.3890 H   0  0  0  0  0  0  0  0  0  0  0  0
   11.6950   13.1763   24.2631 H   0  0  0  0  0  0  0  0  0  0  0  0
    6.6782   12.4324   25.7434 H   0  0  0  0  0  0  0  0  0  0  0  0
    7.8032   11.4601   26.7234 H   0  0  0  0  0  0  0  0  0  0  0  0
    8.2378   13.1085   26.2749 H   0  0  0  0  0  0  0  0  0  0  0  0
    8.6866   17.5283   24.2858 H   0  0  0  0  0  0  0  0  0  0  0  0
    7.1824   17.3328   25.2188 H   0  0  0  0  0  0  0  0  0  0  0  0
    8.5064   16.1921   25.4494 H   0  0  0  0  0  0  0  0  0  0  0  0
    8.4302   17.1329   20.1014 H   0  0  0  0  0  0  0  0  0  0  0  0
    9.9299   16.3354   19.5330 H   0  0  0  0  0  0  0  0  0  0  0  0
   10.0157   17.6608   20.7231 H   0  0  0  0  0  0  0  0  0  0  0  0
    9.2799   14.2511   24.6662 H   0  0  0  0  0  0  0  0  0  0  0  0
    9.1215    9.3831   22.8125 H   0  0  0  0  0  0  0  0  0  0  0  0
    5.3269   15.3817   21.4641 H   0  0  0  0  0  0  0  0  0  0  0  0
   10.1826   10.7112   21.1593 H   0  0  0  0  0  0  0  0  0  0  0  0
    6.2621   13.3398   20.7031 H   0  0  0  0  0  0  0  0  0  0  0  0
  1  2  2  0  0  0  0
  1  7  1  0  0  0  0
  2  8  1  0  0  0  0
  3  4  1  0  0  0  0
  3  8  2  0  0  0  0
  4  7  2  0  0  0  0
  4 16  1  0  0  0  0
  5  9  1  0  0  0  0
  5 11  2  0  0  0  0
  5 16  1  0  0  0  0
  6 10  1  0  0  0  0
  6 12  2  0  0  0  0
  6 16  1  0  0  0  0
  7 23  1  0  0  0  0
  8 24  1  0  0  0  0
  9 13  1  0  0  0  0
  9 17  2  0  0  0  0
 10 14  1  0  0  0  0
 10 18  2  0  0  0  0
 11 19  1  0  0  0  0
 11 21  1  0  0  0  0
 12 20  1  0  0  0  0
 12 22  1  0  0  0  0
 15 23  1  0  0  0  0
 17 19  1  0  0  0  0
 18 20  1  0  0  0  0
  1 25  1  0  0  0  0
  2 26  1  0  0  0  0
  3 27  1  0  0  0  0
 13 28  1  0  0  0  0
 13 29  1  0  0  0  0
 13 30  1  0  0  0  0
 14 31  1  0  0  0  0
 14 32  1  0  0  0  0
 14 33  1  0  0  0  0
 15 34  1  0  0  0  0
 15 35  1  0  0  0  0
 15 36  1  0  0  0  0
 16 37  1  0  0  0  0
 19 38  1  0  0  0  0
 20 39  1  0  0  0  0
 21 40  1  0  0  0  0
 22 41  1  0  0  0  0
M  END
> <idnumber>
Z57366146

> <heavy_atoms>
24

> <LogS>
-3.71

> <LogP>
2.873

> <rotating_bonds>
4

> <PSA>
107.05

> <hb_acceptors>
5

> <hb_donors>
4

> <Collection>
Legacy

> <link>
https://www.enaminestore.com/catalog/Z57366146

> <ROCS_ShapeQuery>
x0446_0A_x1080_0A_x0929_0A_x0812_0A_x0719_0A_x1140_0A_x0528_0A_x0310_0A

> <ROCS_TanimotoCombo>
0.457 

> <ROCS_ShapeTanimoto>
0.251 

> <ROCS_ColorTanimoto>
0.206 

> <ROCS_RefTversky>
0.229 

> <ROCS_RefColorTversky>
0.238 

> <ROCS_RefTverskyCombo>
0.467 

> <ROCS_FitTversky>
1.632 

> <ROCS_FitColorTversky>
0.603 

> <ROCS_FitTverskyCombo>
2.235 

> <ROCS_ColorScore>
-8.576

> <ROCS_Overlap>
2702.732

> <ROCS_Rank>
376                 

$$$$
untitled-dbase-939704_2
  -OEChem-02092406493D

 36 39  0     1  0  0  0  0  0999 V2000
    6.1868   11.8658   25.2476 C   0  0  0  0  0  0  0  0  0  0  0  0
    5.5371   13.0824   25.3980 C   0  0  0  0  0  0  0  0  0  0  0  0
    7.3146   11.7821   24.4278 C   0  0  0  0  0  0  0  0  0  0  0  0
    7.7790   12.9502   23.7862 C   0  0  0  0  0  0  0  0  0  0  0  0
    6.0505   14.1764   24.7251 C   0  0  0  0  0  0  0  0  0  0  0  0
    9.5428   13.9775   22.3812 C   0  0  0  0  0  0  0  0  0  0  0  0
   11.7278   16.1837   21.7437 C   0  0  0  0  0  0  0  0  0  0  0  0
   11.4725   14.8495   21.0841 C   0  0  0  0  0  0  0  0  0  0  0  0
   10.3266   11.1284   24.1854 C   0  0  0  0  0  0  0  0  0  0  0  0
    9.2363   10.5593   25.1156 C   0  0  0  0  0  0  0  0  0  0  0  0
    8.4604   10.4277   22.8925 C   0  0  0  0  0  0  0  0  0  0  0  0
   12.2616   15.7698   23.0957 C   0  0  0  0  0  0  0  0  0  0  0  0
   11.0506   13.9735   22.2459 C   0  0  1  0  0  0  0  0  0  0  0  0
    9.5730   11.4748   22.8850 C   0  0  1  0  0  0  0  0  0  0  0  0
    7.1468   14.1393   23.9330 N   0  0  0  0  0  0  0  0  0  0  0  0
    8.0119   10.5498   24.2840 N   0  0  2  0  0  0  0  0  0  0  0  0
    8.9775   12.8416   22.9758 N   0  0  0  0  0  0  0  0  0  0  0  0
    8.9156   14.9564   21.9695 O   0  0  0  0  0  0  0  0  0  0  0  0
   11.5861   14.5535   23.4412 O   0  0  0  0  0  0  0  0  0  0  0  0
    5.3129   15.7207   24.8531 Cl  0  0  0  0  0  0  0  0  0  0  0  0
    5.8137   10.9872   25.7666 H   0  0  0  0  0  0  0  0  0  0  0  0
    4.6575   13.1593   26.0281 H   0  0  0  0  0  0  0  0  0  0  0  0
   12.4188   16.8227   21.1879 H   0  0  0  0  0  0  0  0  0  0  0  0
   10.7818   16.7247   21.8645 H   0  0  0  0  0  0  0  0  0  0  0  0
   10.7427   14.9067   20.2718 H   0  0  0  0  0  0  0  0  0  0  0  0
   12.4114   14.4639   20.6700 H   0  0  0  0  0  0  0  0  0  0  0  0
   10.8343   11.9954   24.6202 H   0  0  0  0  0  0  0  0  0  0  0  0
   11.0822   10.3591   23.9870 H   0  0  0  0  0  0  0  0  0  0  0  0
    9.4873    9.5314   25.4015 H   0  0  0  0  0  0  0  0  0  0  0  0
    9.1321   11.1439   26.0377 H   0  0  0  0  0  0  0  0  0  0  0  0
    7.6700   10.6112   22.1540 H   0  0  0  0  0  0  0  0  0  0  0  0
    8.8584    9.4210   22.7145 H   0  0  0  0  0  0  0  0  0  0  0  0
   13.3353   15.5573   23.0504 H   0  0  0  0  0  0  0  0  0  0  0  0
   12.0859   16.5230   23.8687 H   0  0  0  0  0  0  0  0  0  0  0  0
   11.3770   12.9428   22.1352 H   0  0  0  0  0  0  0  0  0  0  0  0
   10.2115   11.3771   22.0052 H   0  0  0  0  0  0  0  0  0  0  0  0
  1  2  2  0  0  0  0
  1  3  1  0  0  0  0
  2  5  1  0  0  0  0
  3  4  2  0  0  0  0
  3 16  1  0  0  0  0
  4 15  1  0  0  0  0
  4 17  1  0  0  0  0
  5 15  2  0  0  0  0
  5 20  1  0  0  0  0
  6 13  1  1  0  0  0
  6 17  1  0  0  0  0
  6 18  2  0  0  0  0
  7  8  1  0  0  0  0
  7 12  1  0  0  0  0
  8 13  1  0  0  0  0
  9 10  1  0  0  0  0
  9 14  1  1  0  0  0
 10 16  1  0  0  0  0
 11 14  1  0  0  0  0
 11 16  1  0  0  0  0
 12 19  1  0  0  0  0
 13 19  1  0  0  0  0
 14 17  1  0  0  0  0
  1 21  1  0  0  0  0
  2 22  1  0  0  0  0
  7 23  1  0  0  0  0
  7 24  1  0  0  0  0
  8 25  1  0  0  0  0
  8 26  1  0  0  0  0
  9 27  1  0  0  0  0
  9 28  1  0  0  0  0
 10 29  1  0  0  0  0
 10 30  1  0  0  0  0
 11 31  1  0  0  0  0
 11 32  1  0  0  0  0
 12 33  1  0  0  0  0
 12 34  1  0  0  0  0
 13 35  1  0  0  0  0
 14 36  1  0  0  0  0
M  END
> <idnumber>
Z2732435884

> <heavy_atoms>
20

> <LogS>
-4.123

> <LogP>
1.252

> <rotating_bonds>
1

> <PSA>
45.67

> <hb_acceptors>
4

> <hb_donors>
0

> <Collection>
HTS

> <link>
https://www.enaminestore.com/catalog/Z2732435884

> <ROCS_ShapeQuery>
x0446_0A_x1080_0A_x0929_0A_x0812_0A_x0719_0A_x1140_0A_x0528_0A_x0310_0A

> <ROCS_TanimotoCombo>
0.457 

> <ROCS_ShapeTanimoto>
0.258 

> <ROCS_ColorTanimoto>
0.199 

> <ROCS_RefTversky>
0.231 

> <ROCS_RefColorTversky>
0.223 

> <ROCS_RefTverskyCombo>
0.454 

> <ROCS_FitTversky>
1.815 

> <ROCS_FitColorTversky>
0.655 

> <ROCS_FitTverskyCombo>
2.469 

> <ROCS_ColorScore>
-7.983

> <ROCS_Overlap>
2728.238

> <ROCS_Rank>
377                 

$$$$
untitled-dbase-1080308_130
  -OEChem-02092406493D

 38 41  0     1  0  0  0  0  0999 V2000
   14.2454   15.5598   24.2434 C   0  0  0  0  0  0  0  0  0  0  0  0
   13.7745   14.4182   23.6043 C   0  0  0  0  0  0  0  0  0  0  0  0
   13.8296   16.7907   23.7621 C   0  0  0  0  0  0  0  0  0  0  0  0
   12.5579   15.8173   22.1148 C   0  0  0  0  0  0  0  0  0  0  0  0
   12.9143   14.5408   22.5188 C   0  0  0  0  0  0  0  0  0  0  0  0
    7.5478   10.1886   23.5089 C   0  0  0  0  0  0  0  0  0  0  0  0
    8.8337   10.0609   22.6627 C   0  0  0  0  0  0  0  0  0  0  0  0
    7.5901   12.6775   23.2532 C   0  0  0  0  0  0  0  0  0  0  0  0
    7.5471   11.5248   24.2861 C   0  0  2  0  0  0  0  0  0  0  0  0
    9.7030   11.3292   22.8286 C   0  0  2  0  0  0  0  0  0  0  0  0
    8.7974   11.6505   25.1333 C   0  0  2  0  0  0  0  0  0  0  0  0
   10.0382   11.5387   24.2957 C   0  0  1  0  0  0  0  0  0  0  0  0
    8.8395   12.5259   22.3511 C   0  0  2  0  0  0  0  0  0  0  0  0
   12.3882   13.3275   21.8080 C   0  0  0  0  0  0  0  0  0  0  0  0
   12.9950   16.9495   22.7105 N   0  0  0  0  0  0  0  0  0  0  0  0
   11.0489   13.5597   21.2379 N   0  0  0  0  0  0  0  0  0  0  0  0
    8.9590   15.0363   21.6204 O   0  0  0  0  0  0  0  0  0  0  0  0
   10.3260   14.2712   23.5959 O   0  0  0  0  0  0  0  0  0  0  0  0
    9.6647   10.5173   25.2271 O   0  0  0  0  0  0  0  0  0  0  0  0
    9.7742   14.0284   22.2744 S   0  0  0  0  0  0  0  0  0  0  0  0
   14.9166   15.4883   25.0916 H   0  0  0  0  0  0  0  0  0  0  0  0
   14.0827   13.4383   23.9587 H   0  0  0  0  0  0  0  0  0  0  0  0
   14.1690   17.7111   24.2258 H   0  0  0  0  0  0  0  0  0  0  0  0
   11.8897   15.9754   21.2740 H   0  0  0  0  0  0  0  0  0  0  0  0
    6.6680   10.1295   22.8571 H   0  0  0  0  0  0  0  0  0  0  0  0
    7.4815    9.3434   24.2047 H   0  0  0  0  0  0  0  0  0  0  0  0
    9.3940    9.1713   22.9752 H   0  0  0  0  0  0  0  0  0  0  0  0
    8.5714    9.9113   21.6086 H   0  0  0  0  0  0  0  0  0  0  0  0
    6.6867   12.6537   22.6317 H   0  0  0  0  0  0  0  0  0  0  0  0
    7.5885   13.6420   23.7756 H   0  0  0  0  0  0  0  0  0  0  0  0
    6.6531   11.6008   24.9133 H   0  0  0  0  0  0  0  0  0  0  0  0
   10.6232   11.2398   22.2417 H   0  0  0  0  0  0  0  0  0  0  0  0
    8.7597   12.3754   25.9314 H   0  0  0  0  0  0  0  0  0  0  0  0
   10.8866   12.1704   24.5065 H   0  0  0  0  0  0  0  0  0  0  0  0
    8.5177   12.3540   21.3160 H   0  0  0  0  0  0  0  0  0  0  0  0
   13.0574   13.0385   20.9903 H   0  0  0  0  0  0  0  0  0  0  0  0
   12.3185   12.4726   22.4889 H   0  0  0  0  0  0  0  0  0  0  0  0
   11.0621   13.9796   20.2993 H   0  0  0  0  0  0  0  0  0  0  0  0
  1  2  2  0  0  0  0
  1  3  1  0  0  0  0
  2  5  1  0  0  0  0
  3 15  2  0  0  0  0
  4  5  2  0  0  0  0
  4 15  1  0  0  0  0
  5 14  1  0  0  0  0
  6  7  1  0  0  0  0
  6  9  1  0  0  0  0
  7 10  1  1  0  0  0
  8  9  1  6  0  0  0
  8 13  1  0  0  0  0
  9 11  1  0  0  0  0
 10 12  1  0  0  0  0
 10 13  1  0  0  0  0
 11 12  1  0  0  0  0
 11 19  1  1  0  0  0
 12 19  1  1  0  0  0
 13 20  1  6  0  0  0
 14 16  1  0  0  0  0
 16 20  1  0  0  0  0
 17 20  2  0  0  0  0
 18 20  2  0  0  0  0
  1 21  1  0  0  0  0
  2 22  1  0  0  0  0
  3 23  1  0  0  0  0
  4 24  1  0  0  0  0
  6 25  1  0  0  0  0
  6 26  1  0  0  0  0
  7 27  1  0  0  0  0
  7 28  1  0  0  0  0
  8 29  1  0  0  0  0
  8 30  1  0  0  0  0
  9 31  1  0  0  0  0
 10 32  1  0  0  0  0
 11 33  1  0  0  0  0
 12 34  1  0  0  0  0
 13 35  1  0  0  0  0
 14 36  1  0  0  0  0
 14 37  1  0  0  0  0
 16 38  1  0  0  0  0
M  END
> <idnumber>
Z4259480701

> <heavy_atoms>
20

> <LogS>
-2.445

> <LogP>
0.605

> <rotating_bonds>
3

> <PSA>
71.59

> <hb_acceptors>
4

> <hb_donors>
1

> <Collection>
Functional

> <link>
https://www.enaminestore.com/catalog/Z4259480701

> <ROCS_ShapeQuery>
x0446_0A_x1080_0A_x0929_0A_x0812_0A_x0719_0A_x1140_0A_x0528_0A_x0310_0A

> <ROCS_TanimotoCombo>
0.457 

> <ROCS_ShapeTanimoto>
0.218 

> <ROCS_ColorTanimoto>
0.239 

> <ROCS_RefTversky>
0.201 

> <ROCS_RefColorTversky>
0.316 

> <ROCS_RefTverskyCombo>
0.516 

> <ROCS_FitTversky>
1.623 

> <ROCS_FitColorTversky>
0.498 

> <ROCS_FitTverskyCombo>
2.120 

> <ROCS_ColorScore>
-11.505

> <ROCS_Overlap>
2370.378

> <ROCS_Rank>
378                 

$$$$
untitled-dbase-895100_30
  -OEChem-02092406493D

 40 42  0     0  0  0  0  0  0999 V2000
   11.6989   14.0499   23.6662 C   0  0  0  0  0  0  0  0  0  0  0  0
   12.9287   14.3575   23.0845 C   0  0  0  0  0  0  0  0  0  0  0  0
   11.7933   15.5395   21.3094 C   0  0  0  0  0  0  0  0  0  0  0  0
    6.6455   12.9582   24.9381 C   0  0  0  0  0  0  0  0  0  0  0  0
    9.5813   10.6216   23.5217 C   0  0  0  0  0  0  0  0  0  0  0  0
    7.8125   12.4090   24.3751 C   0  0  0  0  0  0  0  0  0  0  0  0
   10.5162   14.4869   23.0695 C   0  0  0  0  0  0  0  0  0  0  0  0
   10.5634   15.2318   21.8912 C   0  0  0  0  0  0  0  0  0  0  0  0
   12.9759   15.1023   21.9060 C   0  0  0  0  0  0  0  0  0  0  0  0
    7.6232   11.0412   24.4664 C   0  0  0  0  0  0  0  0  0  0  0  0
    9.0016   12.8458   23.8010 C   0  0  0  0  0  0  0  0  0  0  0  0
    6.6495    8.4022   24.9345 C   0  0  0  0  0  0  0  0  0  0  0  0
    4.3874    9.4856   24.6363 C   0  0  0  0  0  0  0  0  0  0  0  0
    5.4471    9.3731   26.8798 C   0  0  0  0  0  0  0  0  0  0  0  0
    8.9212   16.9407   21.6952 C   0  0  0  0  0  0  0  0  0  0  0  0
    5.7427    9.5737   25.3728 C   0  0  0  0  0  0  0  0  0  0  0  0
    5.7836   12.0238   25.3541 N   0  0  0  0  0  0  0  0  0  0  0  0
    8.4670   10.0798   24.0591 N   0  0  0  0  0  0  0  0  0  0  0  0
    9.8998   11.9289   23.3679 N   0  0  0  0  0  0  0  0  0  0  0  0
    6.4053   10.8683   25.0539 N   0  0  0  0  0  0  0  0  0  0  0  0
    9.3057   14.1756   23.6538 O   0  0  0  0  0  0  0  0  0  0  0  0
    9.4156   15.6633   21.2978 O   0  0  0  0  0  0  0  0  0  0  0  0
   14.4937   15.4823   21.1894 Cl  0  0  0  0  0  0  0  0  0  0  0  0
   11.6699   13.4680   24.5836 H   0  0  0  0  0  0  0  0  0  0  0  0
   13.8423   14.0097   23.5596 H   0  0  0  0  0  0  0  0  0  0  0  0
   11.8213   16.1205   20.3904 H   0  0  0  0  0  0  0  0  0  0  0  0
    6.3832   13.9991   25.0646 H   0  0  0  0  0  0  0  0  0  0  0  0
   10.3224    9.9145   23.1646 H   0  0  0  0  0  0  0  0  0  0  0  0
    7.6195    8.4413   25.4435 H   0  0  0  0  0  0  0  0  0  0  0  0
    6.2076    7.4268   25.1643 H   0  0  0  0  0  0  0  0  0  0  0  0
    6.8359    8.4329   23.8547 H   0  0  0  0  0  0  0  0  0  0  0  0
    3.7092   10.2986   24.9162 H   0  0  0  0  0  0  0  0  0  0  0  0
    4.5232    9.5431   23.5501 H   0  0  0  0  0  0  0  0  0  0  0  0
    3.8791    8.5407   24.8611 H   0  0  0  0  0  0  0  0  0  0  0  0
    4.8034   10.1733   27.2647 H   0  0  0  0  0  0  0  0  0  0  0  0
    4.9269    8.4266   27.0672 H   0  0  0  0  0  0  0  0  0  0  0  0
    6.3663    9.3865   27.4769 H   0  0  0  0  0  0  0  0  0  0  0  0
    8.0025   17.1634   21.1469 H   0  0  0  0  0  0  0  0  0  0  0  0
    9.6753   17.7044   21.4892 H   0  0  0  0  0  0  0  0  0  0  0  0
    8.7078   16.9217   22.7665 H   0  0  0  0  0  0  0  0  0  0  0  0
  1  2  2  0  0  0  0
  1  7  1  0  0  0  0
  2  9  1  0  0  0  0
  3  8  1  0  0  0  0
  3  9  2  0  0  0  0
  4  6  1  0  0  0  0
  4 17  2  0  0  0  0
  5 18  1  0  0  0  0
  5 19  2  0  0  0  0
  6 10  1  0  0  0  0
  6 11  2  0  0  0  0
  7  8  2  0  0  0  0
  7 21  1  0  0  0  0
  8 22  1  0  0  0  0
  9 23  1  0  0  0  0
 10 18  2  0  0  0  0
 10 20  1  0  0  0  0
 11 19  1  0  0  0  0
 11 21  1  0  0  0  0
 12 16  1  0  0  0  0
 13 16  1  0  0  0  0
 14 16  1  0  0  0  0
 15 22  1  0  0  0  0
 16 20  1  0  0  0  0
 17 20  1  0  0  0  0
  1 24  1  0  0  0  0
  2 25  1  0  0  0  0
  3 26  1  0  0  0  0
  4 27  1  0  0  0  0
  5 28  1  0  0  0  0
 12 29  1  0  0  0  0
 12 30  1  0  0  0  0
 12 31  1  0  0  0  0
 13 32  1  0  0  0  0
 13 33  1  0  0  0  0
 13 34  1  0  0  0  0
 14 35  1  0  0  0  0
 14 36  1  0  0  0  0
 14 37  1  0  0  0  0
 15 38  1  0  0  0  0
 15 39  1  0  0  0  0
 15 40  1  0  0  0  0
M  END
> <idnumber>
Z2370568849

> <heavy_atoms>
23

> <LogS>
-4.983

> <LogP>
3.293

> <rotating_bonds>
4

> <PSA>
62.06

> <hb_acceptors>
4

> <hb_donors>
0

> <Collection>
HTS

> <link>
https://www.enaminestore.com/catalog/Z2370568849

> <ROCS_ShapeQuery>
x0446_0A_x1080_0A_x0929_0A_x0812_0A_x0719_0A_x1140_0A_x0528_0A_x0310_0A

> <ROCS_TanimotoCombo>
0.457 

> <ROCS_ShapeTanimoto>
0.238 

> <ROCS_ColorTanimoto>
0.219 

> <ROCS_RefTversky>
0.219 

> <ROCS_RefColorTversky>
0.232 

> <ROCS_RefTverskyCombo>
0.451 

> <ROCS_FitTversky>
1.592 

> <ROCS_FitColorTversky>
0.794 

> <ROCS_FitTverskyCombo>
2.386 

> <ROCS_ColorScore>
-8.293

> <ROCS_Overlap>
2586.200

> <ROCS_Rank>
379                 

$$$$
untitled-dbase-668548_3
  -OEChem-02092406493D

 50 53  0     0  0  0  0  0  0999 V2000
   13.4289   15.5639   22.9140 C   0  0  0  0  0  0  0  0  0  0  0  0
   12.7612   16.5398   22.1742 C   0  0  0  0  0  0  0  0  0  0  0  0
   12.8341   14.3199   23.1249 C   0  0  0  0  0  0  0  0  0  0  0  0
   11.4985   16.2718   21.6454 C   0  0  0  0  0  0  0  0  0  0  0  0
   11.5715   14.0519   22.5961 C   0  0  0  0  0  0  0  0  0  0  0  0
   10.9037   15.0278   21.8563 C   0  0  0  0  0  0  0  0  0  0  0  0
    8.4123   11.0039   24.1143 C   0  0  0  0  0  0  0  0  0  0  0  0
    7.9835   12.2673   24.4667 C   0  0  0  0  0  0  0  0  0  0  0  0
    9.8020   12.5907   23.4551 C   0  0  0  0  0  0  0  0  0  0  0  0
    7.6891    9.8065   24.4166 C   0  0  0  0  0  0  0  0  0  0  0  0
   10.6323   10.5694   22.8287 C   0  0  0  0  0  0  0  0  0  0  0  0
   11.4992   11.5355   22.4171 C   0  0  0  0  0  0  0  0  0  0  0  0
    5.9906   11.3725   25.5169 C   0  0  0  0  0  0  0  0  0  0  0  0
    7.2838   14.9013   21.7127 C   0  0  0  0  0  0  0  0  0  0  0  0
   10.7007    9.0971   22.6696 C   0  0  0  0  0  0  0  0  0  0  0  0
   12.7844   11.3965   21.6791 C   0  0  0  0  0  0  0  0  0  0  0  0
    6.0692   15.6889   22.1267 C   0  0  0  0  0  0  0  0  0  0  0  0
    6.3836   13.8311   25.5090 C   0  0  0  0  0  0  0  0  0  0  0  0
    5.6505    8.9439   25.4985 C   0  0  0  0  0  0  0  0  0  0  0  0
    8.6067   15.6360   21.7575 C   0  0  0  0  0  0  0  0  0  0  0  0
    8.8517   13.2567   24.0616 N   0  0  0  0  0  0  0  0  0  0  0  0
    9.5926   11.2308   23.4700 N   0  0  0  0  0  0  0  0  0  0  0  0
   10.9913   12.8095   22.8136 N   0  0  0  0  0  0  0  0  0  0  0  0
    6.7966   12.4775   25.1571 N   0  0  0  0  0  0  0  0  0  0  0  0
    6.4863   10.0803   25.1232 N   0  0  0  0  0  0  0  0  0  0  0  0
    8.0673    8.6820   24.1014 O   0  0  0  0  0  0  0  0  0  0  0  0
    4.9255   11.5023   26.1312 O   0  0  0  0  0  0  0  0  0  0  0  0
    7.1938   13.7263   21.3598 O   0  0  0  0  0  0  0  0  0  0  0  0
    9.6695   14.7861   21.3314 O   0  0  0  0  0  0  0  0  0  0  0  0
   14.4116   15.7729   23.3264 H   0  0  0  0  0  0  0  0  0  0  0  0
   13.2244   17.5081   22.0097 H   0  0  0  0  0  0  0  0  0  0  0  0
   13.3642   13.5668   23.7028 H   0  0  0  0  0  0  0  0  0  0  0  0
   10.9837   17.0362   21.0694 H   0  0  0  0  0  0  0  0  0  0  0  0
   11.2219    8.6465   23.5189 H   0  0  0  0  0  0  0  0  0  0  0  0
   11.2360    8.8376   21.7516 H   0  0  0  0  0  0  0  0  0  0  0  0
    9.6938    8.6735   22.6109 H   0  0  0  0  0  0  0  0  0  0  0  0
   12.6042   11.4340   20.6033 H   0  0  0  0  0  0  0  0  0  0  0  0
   13.2582   10.4447   21.9275 H   0  0  0  0  0  0  0  0  0  0  0  0
   13.4637   12.2056   21.9546 H   0  0  0  0  0  0  0  0  0  0  0  0
    5.6360   16.1853   21.2539 H   0  0  0  0  0  0  0  0  0  0  0  0
    5.3242   15.0143   22.5555 H   0  0  0  0  0  0  0  0  0  0  0  0
    6.3569   16.4478   22.8585 H   0  0  0  0  0  0  0  0  0  0  0  0
    5.7702   14.2504   24.6979 H   0  0  0  0  0  0  0  0  0  0  0  0
    5.7947   13.8048   26.4378 H   0  0  0  0  0  0  0  0  0  0  0  0
    7.2743   14.4592   25.6573 H   0  0  0  0  0  0  0  0  0  0  0  0
    5.9506    8.5797   26.4921 H   0  0  0  0  0  0  0  0  0  0  0  0
    4.5965    9.2575   25.5261 H   0  0  0  0  0  0  0  0  0  0  0  0
    5.7742    8.1382   24.7599 H   0  0  0  0  0  0  0  0  0  0  0  0
    8.8064   15.9765   22.7772 H   0  0  0  0  0  0  0  0  0  0  0  0
    8.5599   16.4956   21.0837 H   0  0  0  0  0  0  0  0  0  0  0  0
  1  2  1  0  0  0  0
  1  3  2  0  0  0  0
  2  4  2  0  0  0  0
  3  5  1  0  0  0  0
  4  6  1  0  0  0  0
  5  6  2  0  0  0  0
  5 23  1  0  0  0  0
  6 29  1  0  0  0  0
  7  8  2  0  0  0  0
  7 10  1  0  0  0  0
  7 22  1  0  0  0  0
  8 21  1  0  0  0  0
  8 24  1  0  0  0  0
  9 21  2  0  0  0  0
  9 22  1  0  0  0  0
  9 23  1  0  0  0  0
 10 25  1  0  0  0  0
 10 26  2  0  0  0  0
 11 12  2  0  0  0  0
 11 15  1  0  0  0  0
 11 22  1  0  0  0  0
 12 16  1  0  0  0  0
 12 23  1  0  0  0  0
 13 24  1  0  0  0  0
 13 25  1  0  0  0  0
 13 27  2  0  0  0  0
 14 17  1  0  0  0  0
 14 20  1  0  0  0  0
 14 28  2  0  0  0  0
 18 24  1  0  0  0  0
 19 25  1  0  0  0  0
 20 29  1  0  0  0  0
  1 30  1  0  0  0  0
  2 31  1  0  0  0  0
  3 32  1  0  0  0  0
  4 33  1  0  0  0  0
 15 34  1  0  0  0  0
 15 35  1  0  0  0  0
 15 36  1  0  0  0  0
 16 37  1  0  0  0  0
 16 38  1  0  0  0  0
 16 39  1  0  0  0  0
 17 40  1  0  0  0  0
 17 41  1  0  0  0  0
 17 42  1  0  0  0  0
 18 43  1  0  0  0  0
 18 44  1  0  0  0  0
 18 45  1  0  0  0  0
 19 46  1  0  0  0  0
 19 47  1  0  0  0  0
 19 48  1  0  0  0  0
 20 49  1  0  0  0  0
 20 50  1  0  0  0  0
M  END
> <idnumber>
Z237731750

> <heavy_atoms>
29

> <LogS>
-3.77

> <LogP>
2.538

> <rotating_bonds>
3

> <PSA>
89.15

> <hb_acceptors>
5

> <hb_donors>
0

> <Collection>
HTS

> <link>
https://www.enaminestore.com/catalog/Z237731750

> <ROCS_ShapeQuery>
x0446_0A_x1080_0A_x0929_0A_x0812_0A_x0719_0A_x1140_0A_x0528_0A_x0310_0A

> <ROCS_TanimotoCombo>
0.457 

> <ROCS_ShapeTanimoto>
0.311 

> <ROCS_ColorTanimoto>
0.146 

> <ROCS_RefTversky>
0.276 

> <ROCS_RefColorTversky>
0.171 

> <ROCS_RefTverskyCombo>
0.447 

> <ROCS_FitTversky>
1.700 

> <ROCS_FitColorTversky>
0.493 

> <ROCS_FitTverskyCombo>
2.193 

> <ROCS_ColorScore>
-6.144

> <ROCS_Overlap>
3264.256

> <ROCS_Rank>
380                 

$$$$
untitled-dbase-1099945_8
  -OEChem-02092406493D

 40 45  0     1  0  0  0  0  0999 V2000
    9.9919   14.7183   22.2782 C   0  0  0  0  0  0  0  0  0  0  0  0
   11.3774   14.1831   24.0507 C   0  0  0  0  0  0  0  0  0  0  0  0
   13.2454   15.9773   20.6222 C   0  0  0  0  0  0  0  0  0  0  0  0
   14.1639   15.6226   21.7971 C   0  0  0  0  0  0  0  0  0  0  0  0
    8.0925    9.6918   22.6528 C   0  0  0  0  0  0  0  0  0  0  0  0
    9.1231   12.0322   25.4500 C   0  0  0  0  0  0  0  0  0  0  0  0
   11.3806   14.6861   21.6923 C   0  0  2  0  0  0  0  0  0  0  0  0
   12.2976   14.3321   22.8652 C   0  0  1  0  0  0  0  0  0  0  0  0
    8.3485   10.1072   24.0770 C   0  0  2  0  0  0  0  0  0  0  0  0
    7.6134   11.0257   23.1612 C   0  0  1  0  0  0  0  0  0  0  0  0
    8.3354   12.9842   24.5123 C   0  0  2  0  0  0  0  0  0  0  0  0
   11.8797   16.0784   21.3015 C   0  0  1  0  0  0  0  0  0  0  0  0
   13.1832   15.5753   22.9686 C   0  0  2  0  0  0  0  0  0  0  0  0
    9.5552   10.9231   24.4815 C   0  0  1  0  0  0  0  0  0  0  0  0
    8.4829   12.2645   23.1563 C   0  0  1  0  0  0  0  0  0  0  0  0
    8.9288   14.3517   24.4884 C   0  0  0  0  0  0  0  0  0  0  0  0
   10.0874   14.4042   23.6177 N   0  0  0  0  0  0  0  0  0  0  0  0
    8.9840   14.9989   21.6440 O   0  0  0  0  0  0  0  0  0  0  0  0
   11.7585   13.9291   25.1852 O   0  0  0  0  0  0  0  0  0  0  0  0
   12.2619   16.6268   22.5873 O   0  0  0  0  0  0  0  0  0  0  0  0
    9.8210   11.7216   23.3009 O   0  0  0  0  0  0  0  0  0  0  0  0
   13.5427   16.9471   20.2078 H   0  0  0  0  0  0  0  0  0  0  0  0
   13.2708   15.2355   19.8188 H   0  0  0  0  0  0  0  0  0  0  0  0
   14.7033   14.6821   21.6512 H   0  0  0  0  0  0  0  0  0  0  0  0
   14.8977   16.4240   21.9403 H   0  0  0  0  0  0  0  0  0  0  0  0
    8.9216    9.6651   21.9571 H   0  0  0  0  0  0  0  0  0  0  0  0
    7.3484    8.9226   22.4827 H   0  0  0  0  0  0  0  0  0  0  0  0
    9.9998   12.5346   25.8739 H   0  0  0  0  0  0  0  0  0  0  0  0
    8.5048   11.6553   26.2708 H   0  0  0  0  0  0  0  0  0  0  0  0
   11.4177   13.9601   20.8746 H   0  0  0  0  0  0  0  0  0  0  0  0
   12.8582   13.4045   22.7168 H   0  0  0  0  0  0  0  0  0  0  0  0
    7.8224    9.6189   24.8827 H   0  0  0  0  0  0  0  0  0  0  0  0
    6.5579   11.1968   23.3067 H   0  0  0  0  0  0  0  0  0  0  0  0
    7.2849   13.0577   24.8166 H   0  0  0  0  0  0  0  0  0  0  0  0
   11.1544   16.7139   20.7883 H   0  0  0  0  0  0  0  0  0  0  0  0
   13.6263   15.7599   23.9499 H   0  0  0  0  0  0  0  0  0  0  0  0
   10.4248   10.3399   24.7909 H   0  0  0  0  0  0  0  0  0  0  0  0
    8.3857   12.8870   22.2639 H   0  0  0  0  0  0  0  0  0  0  0  0
    8.1738   15.0643   24.1248 H   0  0  0  0  0  0  0  0  0  0  0  0
    9.2333   14.6287   25.5084 H   0  0  0  0  0  0  0  0  0  0  0  0
  1  7  1  6  0  0  0
  1 17  1  0  0  0  0
  1 18  2  0  0  0  0
  2  8  1  6  0  0  0
  2 17  1  0  0  0  0
  2 19  2  0  0  0  0
  3  4  1  0  0  0  0
  3 12  1  0  0  0  0
  4 13  1  0  0  0  0
  5  9  1  1  0  0  0
  5 10  1  1  0  0  0
  6 11  1  0  0  0  0
  6 14  1  0  0  0  0
  7  8  1  0  0  0  0
  7 12  1  0  0  0  0
  8 13  1  0  0  0  0
  9 10  1  0  0  0  0
  9 14  1  0  0  0  0
 10 15  1  0  0  0  0
 11 15  1  0  0  0  0
 11 16  1  1  0  0  0
 12 20  1  6  0  0  0
 13 20  1  6  0  0  0
 14 21  1  1  0  0  0
 15 21  1  1  0  0  0
 16 17  1  0  0  0  0
  3 22  1  0  0  0  0
  3 23  1  0  0  0  0
  4 24  1  0  0  0  0
  4 25  1  0  0  0  0
  5 26  1  0  0  0  0
  5 27  1  0  0  0  0
  6 28  1  0  0  0  0
  6 29  1  0  0  0  0
  7 30  1  0  0  0  0
  8 31  1  0  0  0  0
  9 32  1  0  0  0  0
 10 33  1  0  0  0  0
 11 34  1  0  0  0  0
 12 35  1  0  0  0  0
 13 36  1  0  0  0  0
 14 37  1  0  0  0  0
 15 38  1  0  0  0  0
 16 39  1  0  0  0  0
 16 40  1  0  0  0  0
M  END
> <idnumber>
Z4879522472

> <heavy_atoms>
21

> <LogS>
-2.966

> <LogP>
-0.526

> <rotating_bonds>
2

> <PSA>
55.84

> <hb_acceptors>
4

> <hb_donors>
0

> <Collection>
Advanced

> <link>
https://www.enaminestore.com/catalog/Z4879522472

> <ROCS_ShapeQuery>
x0446_0A_x1080_0A_x0929_0A_x0812_0A_x0719_0A_x1140_0A_x0528_0A_x0310_0A

> <ROCS_TanimotoCombo>
0.457 

> <ROCS_ShapeTanimoto>
0.228 

> <ROCS_ColorTanimoto>
0.229 

> <ROCS_RefTversky>
0.211 

> <ROCS_RefColorTversky>
0.333 

> <ROCS_RefTverskyCombo>
0.544 

> <ROCS_FitTversky>
1.572 

> <ROCS_FitColorTversky>
0.421 

> <ROCS_FitTverskyCombo>
1.993 

> <ROCS_ColorScore>
-12.260

> <ROCS_Overlap>
2488.754

> <ROCS_Rank>
381                 

$$$$
untitled-dbase-1157109_126
  -OEChem-02092406493D

 40 43  0     1  0  0  0  0  0999 V2000
   12.1810   14.2800   23.4360 C   0  0  0  0  0  0  0  0  0  0  0  0
    4.4418   13.2841   23.2156 C   0  0  0  0  0  0  0  0  0  0  0  0
    5.7781   13.2763   23.6583 C   0  0  0  0  0  0  0  0  0  0  0  0
   11.2555   13.9221   22.4864 C   0  0  0  0  0  0  0  0  0  0  0  0
   12.3163   15.6734   23.2880 C   0  0  0  0  0  0  0  0  0  0  0  0
    4.3764   14.3401   22.3398 C   0  0  0  0  0  0  0  0  0  0  0  0
    6.4150   12.3542   24.6118 C   0  0  0  0  0  0  0  0  0  0  0  0
   10.7028   12.5988   22.1569 C   0  0  0  0  0  0  0  0  0  0  0  0
    9.2281   10.0820   24.3152 C   0  0  0  0  0  0  0  0  0  0  0  0
    7.7567   11.1320   22.7940 C   0  0  0  0  0  0  0  0  0  0  0  0
    9.7672   12.3714   24.5383 C   0  0  0  0  0  0  0  0  0  0  0  0
    9.2322   10.7108   22.9172 C   0  0  1  0  0  0  0  0  0  0  0  0
    8.6920   11.3589   24.9726 C   0  0  1  0  0  0  0  0  0  0  0  0
   13.1824   16.5893   24.0526 C   0  0  0  0  0  0  0  0  0  0  0  0
    6.5090   14.2499   23.1089 N   0  0  0  0  0  0  0  0  0  0  0  0
   11.5392   16.1670   22.3204 N   0  0  0  0  0  0  0  0  0  0  0  0
   10.9066   15.0778   21.8517 N   0  0  0  0  0  0  0  0  0  0  0  0
    5.6288   14.8794   22.3119 N   0  0  0  0  0  0  0  0  0  0  0  0
    7.4942   11.6215   24.1576 N   0  0  0  0  0  0  0  0  0  0  0  0
   10.0146   11.9354   23.1540 N   0  0  0  0  0  0  0  0  0  0  0  0
    3.3888   14.8680   21.5909 N   0  0  0  0  0  0  0  0  0  0  0  0
    5.9568   12.3080   25.7512 O   0  0  0  0  0  0  0  0  0  0  0  0
   10.8752   12.1782   21.0151 O   0  0  0  0  0  0  0  0  0  0  0  0
   12.9943   13.2956   24.5488 Cl  0  0  0  0  0  0  0  0  0  0  0  0
    3.0895   12.1041   23.7285 Br  0  0  0  0  0  0  0  0  0  0  0  0
    8.5468    9.2295   24.4095 H   0  0  0  0  0  0  0  0  0  0  0  0
   10.2269    9.7972   24.6630 H   0  0  0  0  0  0  0  0  0  0  0  0
    7.5828   11.9215   22.0566 H   0  0  0  0  0  0  0  0  0  0  0  0
    7.0951   10.2823   22.5957 H   0  0  0  0  0  0  0  0  0  0  0  0
    9.4302   13.4121   24.5646 H   0  0  0  0  0  0  0  0  0  0  0  0
   10.6959   12.2643   25.1084 H   0  0  0  0  0  0  0  0  0  0  0  0
    9.6108   10.0990   22.0968 H   0  0  0  0  0  0  0  0  0  0  0  0
    8.4940   11.3224   26.0450 H   0  0  0  0  0  0  0  0  0  0  0  0
   14.1728   16.6913   23.5780 H   0  0  0  0  0  0  0  0  0  0  0  0
   12.7468   17.6003   24.1363 H   0  0  0  0  0  0  0  0  0  0  0  0
   13.3429   16.2417   25.0883 H   0  0  0  0  0  0  0  0  0  0  0  0
   10.2463   15.1975   21.0935 H   0  0  0  0  0  0  0  0  0  0  0  0
    5.9511   15.6744   21.7743 H   0  0  0  0  0  0  0  0  0  0  0  0
    2.4436   14.4545   21.5544 H   0  0  0  0  0  0  0  0  0  0  0  0
    3.5496   15.6554   20.9429 H   0  0  0  0  0  0  0  0  0  0  0  0
  1  4  2  0  0  0  0
  1  5  1  0  0  0  0
  1 24  1  0  0  0  0
  2  3  1  0  0  0  0
  2  6  2  0  0  0  0
  2 25  1  0  0  0  0
  3  7  1  0  0  0  0
  3 15  2  0  0  0  0
  4  8  1  0  0  0  0
  4 17  1  0  0  0  0
  5 14  1  0  0  0  0
  5 16  2  0  0  0  0
  6 18  1  0  0  0  0
  6 21  1  0  0  0  0
  7 19  1  0  0  0  0
  7 22  2  0  0  0  0
  8 20  1  0  0  0  0
  8 23  2  0  0  0  0
  9 12  1  1  0  0  0
  9 13  1  1  0  0  0
 10 12  1  0  0  0  0
 10 19  1  0  0  0  0
 11 13  1  0  0  0  0
 11 20  1  0  0  0  0
 12 20  1  0  0  0  0
 13 19  1  0  0  0  0
 15 18  1  0  0  0  0
 16 17  1  0  0  0  0
  9 26  1  0  0  0  0
  9 27  1  0  0  0  0
 10 28  1  0  0  0  0
 10 29  1  0  0  0  0
 11 30  1  0  0  0  0
 11 31  1  0  0  0  0
 12 32  1  0  0  0  0
 13 33  1  0  0  0  0
 14 34  1  0  0  0  0
 14 35  1  0  0  0  0
 14 36  1  0  0  0  0
 17 37  1  0  0  0  0
 18 38  1  0  0  0  0
 21 39  1  0  0  0  0
 21 40  1  0  0  0  0
M  END
> <idnumber>
Z7645572550

> <heavy_atoms>
25

> <LogS>
-4.807

> <LogP>
1.127

> <rotating_bonds>
2

> <PSA>
124

> <hb_acceptors>
5

> <hb_donors>
3

> <Collection>
Advanced

> <link>
https://www.enaminestore.com/catalog/Z7645572550

> <ROCS_ShapeQuery>
x0446_0A_x1080_0A_x0929_0A_x0812_0A_x0719_0A_x1140_0A_x0528_0A_x0310_0A

> <ROCS_TanimotoCombo>
0.457 

> <ROCS_ShapeTanimoto>
0.250 

> <ROCS_ColorTanimoto>
0.207 

> <ROCS_RefTversky>
0.229 

> <ROCS_RefColorTversky>
0.259 

> <ROCS_RefTverskyCombo>
0.488 

> <ROCS_FitTversky>
1.572 

> <ROCS_FitColorTversky>
0.509 

> <ROCS_FitTverskyCombo>
2.081 

> <ROCS_ColorScore>
-9.377

> <ROCS_Overlap>
2704.177

> <ROCS_Rank>
382                 

$$$$
untitled-dbase-587798_80
  -OEChem-02092406493D

 45 48  0     0  0  0  0  0  0999 V2000
    5.7948   12.9564   25.4941 C   0  0  0  0  0  0  0  0  0  0  0  0
    5.5454   11.5924   25.5978 C   0  0  0  0  0  0  0  0  0  0  0  0
    6.9692   13.3956   24.8909 C   0  0  0  0  0  0  0  0  0  0  0  0
   13.0165   14.2863   22.9555 C   0  0  0  0  0  0  0  0  0  0  0  0
    6.4702   10.6708   25.0982 C   0  0  0  0  0  0  0  0  0  0  0  0
   11.7996   13.9932   23.5710 C   0  0  0  0  0  0  0  0  0  0  0  0
   10.4810    9.2500   21.6213 C   0  0  0  0  0  0  0  0  0  0  0  0
   11.5938    9.2061   23.7530 C   0  0  0  0  0  0  0  0  0  0  0  0
   11.8488   15.5059   21.2275 C   0  0  0  0  0  0  0  0  0  0  0  0
   11.4051    8.3165   21.1803 C   0  0  0  0  0  0  0  0  0  0  0  0
   12.4680    8.2745   23.2166 C   0  0  0  0  0  0  0  0  0  0  0  0
    7.8942   12.4625   24.3911 C   0  0  0  0  0  0  0  0  0  0  0  0
   10.5841    9.6981   22.9335 C   0  0  0  0  0  0  0  0  0  0  0  0
   13.0411   15.0427   21.7838 C   0  0  0  0  0  0  0  0  0  0  0  0
    7.6535   11.0823   24.4897 C   0  0  0  0  0  0  0  0  0  0  0  0
   10.6073   14.4564   23.0148 C   0  0  0  0  0  0  0  0  0  0  0  0
   10.6319   15.2127   21.8430 C   0  0  0  0  0  0  0  0  0  0  0  0
    9.0866   12.8351   23.7769 C   0  0  0  0  0  0  0  0  0  0  0  0
    9.6500   10.6688   23.4415 C   0  0  0  0  0  0  0  0  0  0  0  0
   14.3102   15.3500   21.1434 C   0  0  0  0  0  0  0  0  0  0  0  0
   14.3109   15.5204   19.6519 C   0  0  0  0  0  0  0  0  0  0  0  0
    8.8292   14.8284   20.3402 C   0  0  0  0  0  0  0  0  0  0  0  0
   12.3995    7.8154   21.9469 N   0  0  0  0  0  0  0  0  0  0  0  0
    8.5312   10.1812   24.0149 N   0  0  0  0  0  0  0  0  0  0  0  0
    9.9869   11.9599   23.2910 N   0  0  0  0  0  0  0  0  0  0  0  0
   15.3861   15.4765   21.7317 O   0  0  0  0  0  0  0  0  0  0  0  0
    9.4097   14.1596   23.6335 O   0  0  0  0  0  0  0  0  0  0  0  0
    9.4745   15.6730   21.2912 O   0  0  0  0  0  0  0  0  0  0  0  0
    5.0776   13.6735   25.8815 H   0  0  0  0  0  0  0  0  0  0  0  0
    4.6310   11.2414   26.0676 H   0  0  0  0  0  0  0  0  0  0  0  0
    7.1497   14.4649   24.8167 H   0  0  0  0  0  0  0  0  0  0  0  0
   13.9394   13.9202   23.3979 H   0  0  0  0  0  0  0  0  0  0  0  0
    6.2508    9.6088   25.1931 H   0  0  0  0  0  0  0  0  0  0  0  0
   11.7871   13.4032   24.4834 H   0  0  0  0  0  0  0  0  0  0  0  0
    9.7074    9.6114   20.9514 H   0  0  0  0  0  0  0  0  0  0  0  0
   11.7050    9.5321   24.7822 H   0  0  0  0  0  0  0  0  0  0  0  0
   11.8647   16.0980   20.3153 H   0  0  0  0  0  0  0  0  0  0  0  0
   11.3689    7.9365   20.1645 H   0  0  0  0  0  0  0  0  0  0  0  0
   13.2721    7.8591   23.8149 H   0  0  0  0  0  0  0  0  0  0  0  0
   14.1295   16.5550   19.3204 H   0  0  0  0  0  0  0  0  0  0  0  0
   13.5772   14.8769   19.1421 H   0  0  0  0  0  0  0  0  0  0  0  0
   15.2773   15.2607   19.1843 H   0  0  0  0  0  0  0  0  0  0  0  0
    7.9194   15.3140   19.9788 H   0  0  0  0  0  0  0  0  0  0  0  0
    8.5831   13.8722   20.8086 H   0  0  0  0  0  0  0  0  0  0  0  0
    9.5062   14.6568   19.5001 H   0  0  0  0  0  0  0  0  0  0  0  0
  1  2  1  0  0  0  0
  1  3  2  0  0  0  0
  2  5  2  0  0  0  0
  3 12  1  0  0  0  0
  4  6  2  0  0  0  0
  4 14  1  0  0  0  0
  5 15  1  0  0  0  0
  6 16  1  0  0  0  0
  7 10  2  0  0  0  0
  7 13  1  0  0  0  0
  8 11  1  0  0  0  0
  8 13  2  0  0  0  0
  9 14  2  0  0  0  0
  9 17  1  0  0  0  0
 10 23  1  0  0  0  0
 11 23  2  0  0  0  0
 12 15  1  0  0  0  0
 12 18  2  0  0  0  0
 13 19  1  0  0  0  0
 14 20  1  0  0  0  0
 15 24  2  0  0  0  0
 16 17  2  0  0  0  0
 16 27  1  0  0  0  0
 17 28  1  0  0  0  0
 18 25  1  0  0  0  0
 18 27  1  0  0  0  0
 19 24  1  0  0  0  0
 19 25  2  0  0  0  0
 20 21  1  0  0  0  0
 20 26  2  0  0  0  0
 22 28  1  0  0  0  0
  1 29  1  0  0  0  0
  2 30  1  0  0  0  0
  3 31  1  0  0  0  0
  4 32  1  0  0  0  0
  5 33  1  0  0  0  0
  6 34  1  0  0  0  0
  7 35  1  0  0  0  0
  8 36  1  0  0  0  0
  9 37  1  0  0  0  0
 10 38  1  0  0  0  0
 11 39  1  0  0  0  0
 21 40  1  0  0  0  0
 21 41  1  0  0  0  0
 21 42  1  0  0  0  0
 22 43  1  0  0  0  0
 22 44  1  0  0  0  0
 22 45  1  0  0  0  0
M  END
> <idnumber>
Z239618750

> <heavy_atoms>
28

> <LogS>
-5.82

> <LogP>
3.191

> <rotating_bonds>
5

> <PSA>
74.2

> <hb_acceptors>
5

> <hb_donors>
0

> <Collection>
Legacy

> <link>
https://www.enaminestore.com/catalog/Z239618750

> <ROCS_ShapeQuery>
x0446_0A_x1080_0A_x0929_0A_x0812_0A_x0719_0A_x1140_0A_x0528_0A_x0310_0A

> <ROCS_TanimotoCombo>
0.457 

> <ROCS_ShapeTanimoto>
0.269 

> <ROCS_ColorTanimoto>
0.188 

> <ROCS_RefTversky>
0.245 

> <ROCS_RefColorTversky>
0.208 

> <ROCS_RefTverskyCombo>
0.454 

> <ROCS_FitTversky>
1.553 

> <ROCS_FitColorTversky>
0.656 

> <ROCS_FitTverskyCombo>
2.208 

> <ROCS_ColorScore>
-7.462

> <ROCS_Overlap>
2903.668

> <ROCS_Rank>
383                 

$$$$
untitled-dbase-1019275_50
  -OEChem-02092406493D

 36 39  0     1  0  0  0  0  0999 V2000
   11.2970   16.2672   22.5991 C   0  0  0  0  0  0  0  0  0  0  0  0
   10.8801   14.9273   22.7835 C   0  0  0  0  0  0  0  0  0  0  0  0
    6.6074   13.2558   23.9171 C   0  0  0  0  0  0  0  0  0  0  0  0
    5.5013   12.9785   24.7083 C   0  0  0  0  0  0  0  0  0  0  0  0
    6.4567   11.0778   25.5803 C   0  0  0  0  0  0  0  0  0  0  0  0
    7.6757   12.3644   23.9593 C   0  0  0  0  0  0  0  0  0  0  0  0
    7.6188   11.2653   24.8434 C   0  0  0  0  0  0  0  0  0  0  0  0
   10.4457   16.8067   21.6630 C   0  0  0  0  0  0  0  0  0  0  0  0
    9.8037   14.7435   21.9470 C   0  0  0  0  0  0  0  0  0  0  0  0
    9.5442   10.1925   22.6907 C   0  0  0  0  0  0  0  0  0  0  0  0
    8.6921    9.4541   23.7449 C   0  0  0  0  0  0  0  0  0  0  0  0
    9.9735   11.0918   24.8560 C   0  0  0  0  0  0  0  0  0  0  0  0
    9.9674   11.5008   23.3829 C   0  0  2  0  0  0  0  0  0  0  0  0
   10.3437   18.1357   21.0441 C   0  0  0  0  0  0  0  0  0  0  0  0
    5.3939   11.9100   25.5311 N   0  0  0  0  0  0  0  0  0  0  0  0
    8.7033   10.3493   24.9219 N   0  0  1  0  0  0  0  0  0  0  0  0
    8.9170   12.5740   23.2166 N   0  0  1  0  0  0  0  0  0  0  0  0
    7.4470   13.7537   21.4579 O   0  0  0  0  0  0  0  0  0  0  0  0
    9.4841   12.4762   20.7055 O   0  0  0  0  0  0  0  0  0  0  0  0
    9.5325   15.8844   21.2605 O   0  0  0  0  0  0  0  0  0  0  0  0
    9.8600   18.0630   19.7677 F   0  0  0  0  0  0  0  0  0  0  0  0
   11.5657   18.7391   20.9397 F   0  0  0  0  0  0  0  0  0  0  0  0
    8.8083   13.3088   21.6804 S   0  0  0  0  0  0  0  0  0  0  0  0
   12.1163   16.7739   23.0889 H   0  0  0  0  0  0  0  0  0  0  0  0
   11.3125   14.1898   23.4445 H   0  0  0  0  0  0  0  0  0  0  0  0
    6.6115   14.1458   23.2998 H   0  0  0  0  0  0  0  0  0  0  0  0
    4.6405   13.6399   24.7024 H   0  0  0  0  0  0  0  0  0  0  0  0
    6.3458   10.2340   26.2540 H   0  0  0  0  0  0  0  0  0  0  0  0
   10.4296    9.5905   22.4554 H   0  0  0  0  0  0  0  0  0  0  0  0
    8.9861   10.3567   21.7643 H   0  0  0  0  0  0  0  0  0  0  0  0
    7.6839    9.2269   23.3777 H   0  0  0  0  0  0  0  0  0  0  0  0
    9.1684    8.5036   24.0114 H   0  0  0  0  0  0  0  0  0  0  0  0
   10.8095   10.4183   25.0805 H   0  0  0  0  0  0  0  0  0  0  0  0
   10.0146   11.9356   25.5558 H   0  0  0  0  0  0  0  0  0  0  0  0
   10.9402   11.8721   23.0484 H   0  0  0  0  0  0  0  0  0  0  0  0
    9.6907   18.8295   21.5942 H   0  0  0  0  0  0  0  0  0  0  0  0
  1  2  1  0  0  0  0
  1  8  2  0  0  0  0
  2  9  2  0  0  0  0
  3  4  2  0  0  0  0
  3  6  1  0  0  0  0
  4 15  1  0  0  0  0
  5  7  1  0  0  0  0
  5 15  2  0  0  0  0
  6  7  2  0  0  0  0
  6 17  1  0  0  0  0
  7 16  1  0  0  0  0
  8 14  1  0  0  0  0
  8 20  1  0  0  0  0
  9 20  1  0  0  0  0
  9 23  1  0  0  0  0
 10 11  1  0  0  0  0
 10 13  1  0  0  0  0
 11 16  1  0  0  0  0
 12 13  1  0  0  0  0
 12 16  1  0  0  0  0
 13 17  1  0  0  0  0
 14 21  1  0  0  0  0
 14 22  1  0  0  0  0
 17 23  1  0  0  0  0
 18 23  2  0  0  0  0
 19 23  2  0  0  0  0
  1 24  1  0  0  0  0
  2 25  1  0  0  0  0
  3 26  1  0  0  0  0
  4 27  1  0  0  0  0
  5 28  1  0  0  0  0
 10 29  1  0  0  0  0
 10 30  1  0  0  0  0
 11 31  1  0  0  0  0
 11 32  1  0  0  0  0
 12 33  1  0  0  0  0
 12 34  1  0  0  0  0
 13 35  1  0  0  0  0
 14 36  1  0  0  0  0
M  END
> <idnumber>
Z3294675583

> <heavy_atoms>
23

> <LogS>
-3.558

> <LogP>
1.461

> <rotating_bonds>
2

> <PSA>
66.65

> <hb_acceptors>
4

> <hb_donors>
0

> <Collection>
HTS

> <link>
https://www.enaminestore.com/catalog/Z3294675583

> <ROCS_ShapeQuery>
x0446_0A_x1080_0A_x0929_0A_x0812_0A_x0719_0A_x1140_0A_x0528_0A_x0310_0A

> <ROCS_TanimotoCombo>
0.457 

> <ROCS_ShapeTanimoto>
0.241 

> <ROCS_ColorTanimoto>
0.215 

> <ROCS_RefTversky>
0.221 

> <ROCS_RefColorTversky>
0.247 

> <ROCS_RefTverskyCombo>
0.468 

> <ROCS_FitTversky>
1.604 

> <ROCS_FitColorTversky>
0.630 

> <ROCS_FitTverskyCombo>
2.234 

> <ROCS_ColorScore>
-8.872

> <ROCS_Overlap>
2613.717

> <ROCS_Rank>
384                 

$$$$
untitled-dbase-344527_146
  -OEChem-02092406493D

 39 42  0     0  0  0  0  0  0999 V2000
    5.5772   12.5293   24.9894 C   0  0  0  0  0  0  0  0  0  0  0  0
    6.3489   13.6833   25.1185 C   0  0  0  0  0  0  0  0  0  0  0  0
    6.1559   11.3501   24.5228 C   0  0  0  0  0  0  0  0  0  0  0  0
    7.7038   13.6626   24.7813 C   0  0  0  0  0  0  0  0  0  0  0  0
   11.3245   15.8106   22.4913 C   0  0  0  0  0  0  0  0  0  0  0  0
   12.6955   15.8218   22.6242 C   0  0  0  0  0  0  0  0  0  0  0  0
    8.9987   13.2460   21.0303 C   0  0  0  0  0  0  0  0  0  0  0  0
    7.5127   11.3348   24.1868 C   0  0  0  0  0  0  0  0  0  0  0  0
    8.3016   12.4882   24.3116 C   0  0  0  0  0  0  0  0  0  0  0  0
   10.8568   14.6175   21.8685 C   0  0  0  0  0  0  0  0  0  0  0  0
   11.8884   13.7622   21.5488 C   0  0  0  0  0  0  0  0  0  0  0  0
    8.1477   10.0949   23.6897 C   0  0  0  0  0  0  0  0  0  0  0  0
   10.1938   11.4017   23.5489 C   0  0  0  0  0  0  0  0  0  0  0  0
   11.8412   12.4409   20.9030 C   0  0  0  0  0  0  0  0  0  0  0  0
   11.6548    9.9912   21.0989 C   0  0  0  0  0  0  0  0  0  0  0  0
   11.6440   11.3292   23.1746 C   0  0  0  0  0  0  0  0  0  0  0  0
    7.6927   13.3679   20.9686 N   0  0  0  0  0  0  0  0  0  0  0  0
    7.4067   14.5897   21.5348 N   0  0  0  0  0  0  0  0  0  0  0  0
    8.5148   15.2012   21.9349 N   0  0  0  0  0  0  0  0  0  0  0  0
    9.6698   12.5047   23.9815 N   0  0  0  0  0  0  0  0  0  0  0  0
    9.5086   14.3594   21.6183 N   0  0  0  0  0  0  0  0  0  0  0  0
    9.4955   10.2220   23.3952 N   0  0  0  0  0  0  0  0  0  0  0  0
   11.7160   11.3093   21.7427 N   0  0  0  0  0  0  0  0  0  0  0  0
    7.5096    9.0568   23.5597 O   0  0  0  0  0  0  0  0  0  0  0  0
   11.9047   12.4329   19.6742 O   0  0  0  0  0  0  0  0  0  0  0  0
   13.4132   14.3980   21.9995 S   0  0  0  0  0  0  0  0  0  0  0  0
    4.5237   12.5496   25.2529 H   0  0  0  0  0  0  0  0  0  0  0  0
    5.8948   14.6006   25.4822 H   0  0  0  0  0  0  0  0  0  0  0  0
    5.5398   10.4604   24.4285 H   0  0  0  0  0  0  0  0  0  0  0  0
    8.2910   14.5716   24.8880 H   0  0  0  0  0  0  0  0  0  0  0  0
   10.6934   16.6242   22.8272 H   0  0  0  0  0  0  0  0  0  0  0  0
   13.3101   16.5980   23.0578 H   0  0  0  0  0  0  0  0  0  0  0  0
    9.5894   12.4115   20.6798 H   0  0  0  0  0  0  0  0  0  0  0  0
   12.6723    9.5873   20.9918 H   0  0  0  0  0  0  0  0  0  0  0  0
   11.0528    9.3089   21.7171 H   0  0  0  0  0  0  0  0  0  0  0  0
   11.1930   10.0896   20.1054 H   0  0  0  0  0  0  0  0  0  0  0  0
   12.0667   10.4196   23.5977 H   0  0  0  0  0  0  0  0  0  0  0  0
   12.1509   12.2043   23.5774 H   0  0  0  0  0  0  0  0  0  0  0  0
    9.9938    9.4067   23.0492 H   0  0  0  0  0  0  0  0  0  0  0  0
  1  2  1  0  0  0  0
  1  3  2  0  0  0  0
  2  4  2  0  0  0  0
  3  8  1  0  0  0  0
  4  9  1  0  0  0  0
  5  6  2  0  0  0  0
  5 10  1  0  0  0  0
  6 26  1  0  0  0  0
  7 17  2  0  0  0  0
  7 21  1  0  0  0  0
  8  9  2  0  0  0  0
  8 12  1  0  0  0  0
  9 20  1  0  0  0  0
 10 11  2  0  0  0  0
 10 21  1  0  0  0  0
 11 14  1  0  0  0  0
 11 26  1  0  0  0  0
 12 22  1  0  0  0  0
 12 24  2  0  0  0  0
 13 16  1  0  0  0  0
 13 20  2  0  0  0  0
 13 22  1  0  0  0  0
 14 23  1  0  0  0  0
 14 25  2  0  0  0  0
 15 23  1  0  0  0  0
 16 23  1  0  0  0  0
 17 18  1  0  0  0  0
 18 19  2  0  0  0  0
 19 21  1  0  0  0  0
  1 27  1  0  0  0  0
  2 28  1  0  0  0  0
  3 29  1  0  0  0  0
  4 30  1  0  0  0  0
  5 31  1  0  0  0  0
  6 32  1  0  0  0  0
  7 33  1  0  0  0  0
 15 34  1  0  0  0  0
 15 35  1  0  0  0  0
 15 36  1  0  0  0  0
 16 37  1  0  0  0  0
 16 38  1  0  0  0  0
 22 39  1  0  0  0  0
M  END
> <idnumber>
Z381218762

> <heavy_atoms>
26

> <LogS>
-4.31

> <LogP>
-0.002

> <rotating_bonds>
4

> <PSA>
105.37

> <hb_acceptors>
6

> <hb_donors>
1

> <Collection>
Legacy

> <link>
https://www.enaminestore.com/catalog/Z381218762

> <ROCS_ShapeQuery>
x0446_0A_x1080_0A_x0929_0A_x0812_0A_x0719_0A_x1140_0A_x0528_0A_x0310_0A

> <ROCS_TanimotoCombo>
0.457 

> <ROCS_ShapeTanimoto>
0.270 

> <ROCS_ColorTanimoto>
0.186 

> <ROCS_RefTversky>
0.245 

> <ROCS_RefColorTversky>
0.214 

> <ROCS_RefTverskyCombo>
0.458 

> <ROCS_FitTversky>
1.630 

> <ROCS_FitColorTversky>
0.593 

> <ROCS_FitTverskyCombo>
2.224 

> <ROCS_ColorScore>
-7.677

> <ROCS_Overlap>
2892.628

> <ROCS_Rank>
385                 

$$$$
untitled-dbase-939705_11
  -OEChem-02092406493D

 32 35  0     1  0  0  0  0  0999 V2000
    6.2661   11.4571   25.2430 C   0  0  0  0  0  0  0  0  0  0  0  0
   11.5126   14.6866   21.2078 C   0  0  0  0  0  0  0  0  0  0  0  0
    5.4149   12.5261   25.4767 C   0  0  0  0  0  0  0  0  0  0  0  0
   12.8231   14.8862   21.7038 C   0  0  0  0  0  0  0  0  0  0  0  0
    7.3813   11.6282   24.4175 C   0  0  0  0  0  0  0  0  0  0  0  0
   10.7141   14.4835   22.3092 C   0  0  0  0  0  0  0  0  0  0  0  0
    7.6273   12.8986   23.8493 C   0  0  0  0  0  0  0  0  0  0  0  0
    5.7230   13.7345   24.8811 C   0  0  0  0  0  0  0  0  0  0  0  0
   12.7319   14.7912   23.0730 C   0  0  0  0  0  0  0  0  0  0  0  0
    9.2765   14.2257   22.4321 C   0  0  0  0  0  0  0  0  0  0  0  0
   10.4512   11.5558   24.1918 C   0  0  0  0  0  0  0  0  0  0  0  0
    9.4842   10.7276   25.0612 C   0  0  0  0  0  0  0  0  0  0  0  0
    8.7622   10.5923   22.8210 C   0  0  0  0  0  0  0  0  0  0  0  0
    9.6592   11.8242   22.8961 C   0  0  1  0  0  0  0  0  0  0  0  0
    6.7994   13.9408   24.0878 N   0  0  0  0  0  0  0  0  0  0  0  0
    8.2877   10.5494   24.2082 N   0  0  2  0  0  0  0  0  0  0  0  0
    8.8182   13.0430   23.0349 N   0  0  0  0  0  0  0  0  0  0  0  0
    8.5468   15.1183   21.9962 O   0  0  0  0  0  0  0  0  0  0  0  0
   11.4496   14.5459   23.4501 O   0  0  0  0  0  0  0  0  0  0  0  0
    4.7320   15.1160   25.1147 Cl  0  0  0  0  0  0  0  0  0  0  0  0
   14.0250   14.9506   24.1975 Cl  0  0  0  0  0  0  0  0  0  0  0  0
    6.0605   10.4928   25.7001 H   0  0  0  0  0  0  0  0  0  0  0  0
   11.1949   14.6899   20.1746 H   0  0  0  0  0  0  0  0  0  0  0  0
    4.5426   12.4045   26.1088 H   0  0  0  0  0  0  0  0  0  0  0  0
   13.7186   15.0740   21.1284 H   0  0  0  0  0  0  0  0  0  0  0  0
   10.7701   12.4782   24.6866 H   0  0  0  0  0  0  0  0  0  0  0  0
   11.3463   10.9644   23.9687 H   0  0  0  0  0  0  0  0  0  0  0  0
    9.9224    9.7470   25.2787 H   0  0  0  0  0  0  0  0  0  0  0  0
    9.2678   11.2143   26.0196 H   0  0  0  0  0  0  0  0  0  0  0  0
    7.9572   10.6693   22.0801 H   0  0  0  0  0  0  0  0  0  0  0  0
    9.3413    9.6887   22.5955 H   0  0  0  0  0  0  0  0  0  0  0  0
   10.3206   11.8952   22.0240 H   0  0  0  0  0  0  0  0  0  0  0  0
  1  3  2  0  0  0  0
  1  5  1  0  0  0  0
  2  4  1  0  0  0  0
  2  6  2  0  0  0  0
  3  8  1  0  0  0  0
  4  9  2  0  0  0  0
  5  7  2  0  0  0  0
  5 16  1  0  0  0  0
  6 10  1  0  0  0  0
  6 19  1  0  0  0  0
  7 15  1  0  0  0  0
  7 17  1  0  0  0  0
  8 15  2  0  0  0  0
  8 20  1  0  0  0  0
  9 19  1  0  0  0  0
  9 21  1  0  0  0  0
 10 17  1  0  0  0  0
 10 18  2  0  0  0  0
 11 12  1  0  0  0  0
 11 14  1  6  0  0  0
 12 16  1  0  0  0  0
 13 14  1  0  0  0  0
 13 16  1  0  0  0  0
 14 17  1  0  0  0  0
  1 22  1  0  0  0  0
  2 23  1  0  0  0  0
  3 24  1  0  0  0  0
  4 25  1  0  0  0  0
 11 26  1  0  0  0  0
 11 27  1  0  0  0  0
 12 28  1  0  0  0  0
 12 29  1  0  0  0  0
 13 30  1  0  0  0  0
 13 31  1  0  0  0  0
 14 32  1  0  0  0  0
M  END
> <idnumber>
Z2732435886

> <heavy_atoms>
21

> <LogS>
-6.113

> <LogP>
1.946

> <rotating_bonds>
1

> <PSA>
49.58

> <hb_acceptors>
3

> <hb_donors>
0

> <Collection>
HTS

> <link>
https://www.enaminestore.com/catalog/Z2732435886

> <ROCS_ShapeQuery>
x0446_0A_x1080_0A_x0929_0A_x0812_0A_x0719_0A_x1140_0A_x0528_0A_x0310_0A

> <ROCS_TanimotoCombo>
0.457 

> <ROCS_ShapeTanimoto>
0.257 

> <ROCS_ColorTanimoto>
0.200 

> <ROCS_RefTversky>
0.231 

> <ROCS_RefColorTversky>
0.223 

> <ROCS_RefTverskyCombo>
0.454 

> <ROCS_FitTversky>
1.760 

> <ROCS_FitColorTversky>
0.657 

> <ROCS_FitTverskyCombo>
2.417 

> <ROCS_ColorScore>
-8.008

> <ROCS_Overlap>
2729.468

> <ROCS_Rank>
386                 

$$$$
untitled-dbase-1011782_105
  -OEChem-02092406493D

 42 45  0     1  0  0  0  0  0999 V2000
    3.1065   10.7497   19.8435 C   0  0  0  0  0  0  0  0  0  0  0  0
    4.2654   11.4022   20.2639 C   0  0  0  0  0  0  0  0  0  0  0  0
    2.3576   11.2690   18.7875 C   0  0  0  0  0  0  0  0  0  0  0  0
    3.9266   13.0936   18.5723 C   0  0  0  0  0  0  0  0  0  0  0  0
    4.6755   12.5741   19.6283 C   0  0  0  0  0  0  0  0  0  0  0  0
    2.7677   12.4410   18.1519 C   0  0  0  0  0  0  0  0  0  0  0  0
    7.7686   14.6667   19.6086 C   0  0  0  0  0  0  0  0  0  0  0  0
    6.6811   13.9950   19.2275 C   0  0  0  0  0  0  0  0  0  0  0  0
    8.0841   14.5721   21.0356 C   0  0  0  0  0  0  0  0  0  0  0  0
    7.1932   13.7101   21.8825 C   0  0  0  0  0  0  0  0  0  0  0  0
    7.3750   13.4545   23.3312 C   0  0  0  0  0  0  0  0  0  0  0  0
   11.1300   13.0210   23.7553 C   0  0  0  0  0  0  0  0  0  0  0  0
    7.9325   10.1112   23.9149 C   0  0  0  0  0  0  0  0  0  0  0  0
    8.4258   10.7636   25.2334 C   0  0  0  0  0  0  0  0  0  0  0  0
    9.8307   11.1539   22.6647 C   0  0  0  0  0  0  0  0  0  0  0  0
   10.3416   11.7703   23.9954 C   0  0  2  0  0  0  0  0  0  0  0  0
    8.3020   11.1650   22.8552 C   0  0  2  0  0  0  0  0  0  0  0  0
    9.0315   12.0917   24.7463 C   0  0  1  0  0  0  0  0  0  0  0  0
    6.1578   13.0969   21.4000 N   0  0  0  0  0  0  0  0  0  0  0  0
    5.8685   13.2467   20.0617 N   0  0  0  0  0  0  0  0  0  0  0  0
    8.1475   12.3728   23.6298 N   0  0  0  0  0  0  0  0  0  0  0  0
    9.0254   15.1476   21.5557 O   0  0  0  0  0  0  0  0  0  0  0  0
    6.8263   14.2278   24.1020 O   0  0  0  0  0  0  0  0  0  0  0  0
   10.8199   14.1336   24.1543 O   0  0  0  0  0  0  0  0  0  0  0  0
   12.2420   12.7536   23.0278 O   0  0  0  0  0  0  0  0  0  0  0  0
    2.0495   12.9388   17.1367 F   0  0  0  0  0  0  0  0  0  0  0  0
    2.7874    9.8366   20.3379 H   0  0  0  0  0  0  0  0  0  0  0  0
    4.8409   10.9890   21.0881 H   0  0  0  0  0  0  0  0  0  0  0  0
    1.4556   10.7609   18.4599 H   0  0  0  0  0  0  0  0  0  0  0  0
    4.2363   14.0064   18.0699 H   0  0  0  0  0  0  0  0  0  0  0  0
    8.3835   15.2499   18.9383 H   0  0  0  0  0  0  0  0  0  0  0  0
    6.3599   14.0085   18.1908 H   0  0  0  0  0  0  0  0  0  0  0  0
    8.4111    9.1431   23.7369 H   0  0  0  0  0  0  0  0  0  0  0  0
    6.8478    9.9612   23.9580 H   0  0  0  0  0  0  0  0  0  0  0  0
    7.5750   10.9423   25.9009 H   0  0  0  0  0  0  0  0  0  0  0  0
    9.1491   10.1292   25.7551 H   0  0  0  0  0  0  0  0  0  0  0  0
   10.1198   11.7597   21.7981 H   0  0  0  0  0  0  0  0  0  0  0  0
   10.2182   10.1399   22.5200 H   0  0  0  0  0  0  0  0  0  0  0  0
   10.9769   11.0676   24.5449 H   0  0  0  0  0  0  0  0  0  0  0  0
    7.7190   11.1239   21.9332 H   0  0  0  0  0  0  0  0  0  0  0  0
    9.0963   12.8780   25.5005 H   0  0  0  0  0  0  0  0  0  0  0  0
   12.7718   13.5616   22.8580 H   0  0  0  0  0  0  0  0  0  0  0  0
  1  2  2  0  0  0  0
  1  3  1  0  0  0  0
  2  5  1  0  0  0  0
  3  6  2  0  0  0  0
  4  5  2  0  0  0  0
  4  6  1  0  0  0  0
  5 20  1  0  0  0  0
  6 26  1  0  0  0  0
  7  8  2  0  0  0  0
  7  9  1  0  0  0  0
  8 20  1  0  0  0  0
  9 10  1  0  0  0  0
  9 22  2  0  0  0  0
 10 11  1  0  0  0  0
 10 19  2  0  0  0  0
 11 21  1  0  0  0  0
 11 23  2  0  0  0  0
 12 16  1  1  0  0  0
 12 24  2  0  0  0  0
 12 25  1  0  0  0  0
 13 14  1  0  0  0  0
 13 17  1  0  0  0  0
 14 18  1  0  0  0  0
 15 16  1  0  0  0  0
 15 17  1  0  0  0  0
 16 18  1  0  0  0  0
 17 21  1  1  0  0  0
 18 21  1  1  0  0  0
 19 20  1  0  0  0  0
  1 27  1  0  0  0  0
  2 28  1  0  0  0  0
  3 29  1  0  0  0  0
  4 30  1  0  0  0  0
  7 31  1  0  0  0  0
  8 32  1  0  0  0  0
 13 33  1  0  0  0  0
 13 34  1  0  0  0  0
 14 35  1  0  0  0  0
 14 36  1  0  0  0  0
 15 37  1  0  0  0  0
 15 38  1  0  0  0  0
 16 39  1  0  0  0  0
 17 40  1  0  0  0  0
 18 41  1  0  0  0  0
 25 42  1  0  0  0  0
M  END
> <idnumber>
Z3173949628

> <heavy_atoms>
26

> <LogS>
-3.286

> <LogP>
-0.156

> <rotating_bonds>
3

> <PSA>
90.28

> <hb_acceptors>
6

> <hb_donors>
1

> <Collection>
Advanced

> <link>
https://www.enaminestore.com/catalog/Z3173949628

> <ROCS_ShapeQuery>
x0446_0A_x1080_0A_x0929_0A_x0812_0A_x0719_0A_x1140_0A_x0528_0A_x0310_0A

> <ROCS_TanimotoCombo>
0.457 

> <ROCS_ShapeTanimoto>
0.236 

> <ROCS_ColorTanimoto>
0.221 

> <ROCS_RefTversky>
0.220 

> <ROCS_RefColorTversky>
0.259 

> <ROCS_RefTverskyCombo>
0.478 

> <ROCS_FitTversky>
1.464 

> <ROCS_FitColorTversky>
0.601 

> <ROCS_FitTverskyCombo>
2.065 

> <ROCS_ColorScore>
-9.325

> <ROCS_Overlap>
2595.338

> <ROCS_Rank>
387                 

$$$$
untitled-dbase-199075_160
  -OEChem-02092406493D

 44 46  0     0  0  0  0  0  0999 V2000
   12.6935   16.8898   21.1876 C   0  0  0  0  0  0  0  0  0  0  0  0
   11.3135   16.7706   21.0232 C   0  0  0  0  0  0  0  0  0  0  0  0
   12.6884   14.9546   22.6339 C   0  0  0  0  0  0  0  0  0  0  0  0
   11.3084   14.8353   22.4695 C   0  0  0  0  0  0  0  0  0  0  0  0
   13.3810   15.9818   21.9929 C   0  0  0  0  0  0  0  0  0  0  0  0
   10.6210   15.7433   21.6641 C   0  0  0  0  0  0  0  0  0  0  0  0
    7.6377   12.1813   24.0791 C   0  0  0  0  0  0  0  0  0  0  0  0
    7.4739   10.9299   24.6074 C   0  0  0  0  0  0  0  0  0  0  0  0
    9.2033   10.8009   23.3869 C   0  0  0  0  0  0  0  0  0  0  0  0
    6.7790   13.2902   24.3428 C   0  0  0  0  0  0  0  0  0  0  0  0
    5.4966   11.6383   25.8169 C   0  0  0  0  0  0  0  0  0  0  0  0
   10.5871   13.7293   23.1644 C   0  0  0  0  0  0  0  0  0  0  0  0
    6.2969    9.2791   26.0057 C   0  0  0  0  0  0  0  0  0  0  0  0
    4.7902   14.0039   25.5569 C   0  0  0  0  0  0  0  0  0  0  0  0
   15.3722   17.1719   21.4691 C   0  0  0  0  0  0  0  0  0  0  0  0
    8.6545   16.6157   20.6504 C   0  0  0  0  0  0  0  0  0  0  0  0
    9.3377   13.1616   22.5181 C   0  0  0  0  0  0  0  0  0  0  0  0
    8.4470   10.0681   24.1780 N   0  0  0  0  0  0  0  0  0  0  0  0
    8.7520   12.0922   23.2949 N   0  0  0  0  0  0  0  0  0  0  0  0
    6.4280   10.6282   25.4687 N   0  0  0  0  0  0  0  0  0  0  0  0
    5.7254   12.9333   25.2259 N   0  0  0  0  0  0  0  0  0  0  0  0
    6.9362   14.4104   23.8636 O   0  0  0  0  0  0  0  0  0  0  0  0
    4.5489   11.4203   26.5797 O   0  0  0  0  0  0  0  0  0  0  0  0
   11.0204   13.3110   24.2358 O   0  0  0  0  0  0  0  0  0  0  0  0
   14.7276   16.0985   22.1532 O   0  0  0  0  0  0  0  0  0  0  0  0
    9.2728   15.6438   21.4908 O   0  0  0  0  0  0  0  0  0  0  0  0
   10.5863   10.2851   22.5458 Cl  0  0  0  0  0  0  0  0  0  0  0  0
   13.2274   17.6922   20.6857 H   0  0  0  0  0  0  0  0  0  0  0  0
   10.7842   17.4813   20.3943 H   0  0  0  0  0  0  0  0  0  0  0  0
   13.2297   14.2495   23.2606 H   0  0  0  0  0  0  0  0  0  0  0  0
    6.8545    9.2043   26.9509 H   0  0  0  0  0  0  0  0  0  0  0  0
    5.2347    9.0589   26.1883 H   0  0  0  0  0  0  0  0  0  0  0  0
    6.7023    8.5559   25.2828 H   0  0  0  0  0  0  0  0  0  0  0  0
    3.9651   14.0086   24.8295 H   0  0  0  0  0  0  0  0  0  0  0  0
    4.3873   13.8393   26.5672 H   0  0  0  0  0  0  0  0  0  0  0  0
    5.3135   14.9709   25.5239 H   0  0  0  0  0  0  0  0  0  0  0  0
   16.4437   17.1498   21.6826 H   0  0  0  0  0  0  0  0  0  0  0  0
   14.9442   18.1229   21.7961 H   0  0  0  0  0  0  0  0  0  0  0  0
   15.2147   17.0541   20.3944 H   0  0  0  0  0  0  0  0  0  0  0  0
    7.5803   16.4224   20.5976 H   0  0  0  0  0  0  0  0  0  0  0  0
    9.0939   16.5668   19.6509 H   0  0  0  0  0  0  0  0  0  0  0  0
    8.8233   17.6094   21.0722 H   0  0  0  0  0  0  0  0  0  0  0  0
    9.5761   12.7522   21.5307 H   0  0  0  0  0  0  0  0  0  0  0  0
    8.5775   13.9436   22.4165 H   0  0  0  0  0  0  0  0  0  0  0  0
  1  2  2  0  0  0  0
  1  5  1  0  0  0  0
  2  6  1  0  0  0  0
  3  4  1  0  0  0  0
  3  5  2  0  0  0  0
  4  6  2  0  0  0  0
  4 12  1  0  0  0  0
  5 25  1  0  0  0  0
  6 26  1  0  0  0  0
  7  8  2  0  0  0  0
  7 10  1  0  0  0  0
  7 19  1  0  0  0  0
  8 18  1  0  0  0  0
  8 20  1  0  0  0  0
  9 18  2  0  0  0  0
  9 19  1  0  0  0  0
  9 27  1  0  0  0  0
 10 21  1  0  0  0  0
 10 22  2  0  0  0  0
 11 20  1  0  0  0  0
 11 21  1  0  0  0  0
 11 23  2  0  0  0  0
 12 17  1  0  0  0  0
 12 24  2  0  0  0  0
 13 20  1  0  0  0  0
 14 21  1  0  0  0  0
 15 25  1  0  0  0  0
 16 26  1  0  0  0  0
 17 19  1  0  0  0  0
  1 28  1  0  0  0  0
  2 29  1  0  0  0  0
  3 30  1  0  0  0  0
 13 31  1  0  0  0  0
 13 32  1  0  0  0  0
 13 33  1  0  0  0  0
 14 34  1  0  0  0  0
 14 35  1  0  0  0  0
 14 36  1  0  0  0  0
 15 37  1  0  0  0  0
 15 38  1  0  0  0  0
 15 39  1  0  0  0  0
 16 40  1  0  0  0  0
 16 41  1  0  0  0  0
 16 42  1  0  0  0  0
 17 43  1  0  0  0  0
 17 44  1  0  0  0  0
M  END
> <idnumber>
Z18371853

> <heavy_atoms>
27

> <LogS>
-4.26

> <LogP>
2.01

> <rotating_bonds>
5

> <PSA>
93.97

> <hb_acceptors>
6

> <hb_donors>
0

> <Collection>
Legacy

> <link>
https://www.enaminestore.com/catalog/Z18371853

> <ROCS_ShapeQuery>
x0446_0A_x1080_0A_x0929_0A_x0812_0A_x0719_0A_x1140_0A_x0528_0A_x0310_0A

> <ROCS_TanimotoCombo>
0.457 

> <ROCS_ShapeTanimoto>
0.268 

> <ROCS_ColorTanimoto>
0.188 

> <ROCS_RefTversky>
0.244 

> <ROCS_RefColorTversky>
0.209 

> <ROCS_RefTverskyCombo>
0.453 

> <ROCS_FitTversky>
1.597 

> <ROCS_FitColorTversky>
0.658 

> <ROCS_FitTverskyCombo>
2.255 

> <ROCS_ColorScore>
-7.487

> <ROCS_Overlap>
2881.805

> <ROCS_Rank>
388                 

$$$$
untitled-dbase-218383_127
  -OEChem-02092406493D

 38 41  0     0  0  0  0  0  0999 V2000
   14.9401   16.3194   22.0666 C   0  0  0  0  0  0  0  0  0  0  0  0
    5.5818   11.9762   25.2468 C   0  0  0  0  0  0  0  0  0  0  0  0
    6.0608   13.2712   25.1160 C   0  0  0  0  0  0  0  0  0  0  0  0
   14.5209   15.7577   20.8607 C   0  0  0  0  0  0  0  0  0  0  0  0
   14.0300   16.4910   23.1098 C   0  0  0  0  0  0  0  0  0  0  0  0
    6.3837   10.9042   24.8592 C   0  0  0  0  0  0  0  0  0  0  0  0
    7.3374   13.4830   24.5984 C   0  0  0  0  0  0  0  0  0  0  0  0
   13.1917   15.3676   20.6978 C   0  0  0  0  0  0  0  0  0  0  0  0
   12.7007   16.1009   22.9468 C   0  0  0  0  0  0  0  0  0  0  0  0
    7.6609   11.1049   24.3409 C   0  0  0  0  0  0  0  0  0  0  0  0
    8.1467   12.4187   24.2080 C   0  0  0  0  0  0  0  0  0  0  0  0
   12.2815   15.5392   21.7408 C   0  0  0  0  0  0  0  0  0  0  0  0
    9.6412   10.3057   23.4797 C   0  0  0  0  0  0  0  0  0  0  0  0
   10.1140   11.5845   23.3503 C   0  0  0  0  0  0  0  0  0  0  0  0
   10.4484   13.9203   21.3026 C   0  0  0  0  0  0  0  0  0  0  0  0
   10.4574    9.1252   23.0804 C   0  0  0  0  0  0  0  0  0  0  0  0
   11.4701   11.8656   22.8018 C   0  0  0  0  0  0  0  0  0  0  0  0
    8.4156   10.0544   23.9740 N   0  0  0  0  0  0  0  0  0  0  0  0
    9.3749   12.6487   23.7115 N   0  0  0  0  0  0  0  0  0  0  0  0
    9.1405   14.0153   21.2334 N   0  0  0  0  0  0  0  0  0  0  0  0
    8.8513   15.3397   21.4728 N   0  0  0  0  0  0  0  0  0  0  0  0
    9.9594   16.0392   21.6847 N   0  0  0  0  0  0  0  0  0  0  0  0
   10.9563   15.1498   21.5776 N   0  0  0  0  0  0  0  0  0  0  0  0
   11.4190   12.4617   21.0834 S   0  0  0  0  0  0  0  0  0  0  0  0
   15.9753   16.6217   22.1947 H   0  0  0  0  0  0  0  0  0  0  0  0
    4.5896   11.7972   25.6495 H   0  0  0  0  0  0  0  0  0  0  0  0
    5.4460   14.1149   25.4139 H   0  0  0  0  0  0  0  0  0  0  0  0
   15.2296   15.6228   20.0489 H   0  0  0  0  0  0  0  0  0  0  0  0
   14.3575   16.9272   24.0490 H   0  0  0  0  0  0  0  0  0  0  0  0
    5.9958    9.8931   24.9684 H   0  0  0  0  0  0  0  0  0  0  0  0
    7.7001   14.5044   24.5007 H   0  0  0  0  0  0  0  0  0  0  0  0
   12.8782   14.9303   19.7529 H   0  0  0  0  0  0  0  0  0  0  0  0
   12.0020   16.2396   23.7683 H   0  0  0  0  0  0  0  0  0  0  0  0
   11.0606    8.7720   23.9265 H   0  0  0  0  0  0  0  0  0  0  0  0
    9.8225    8.2971   22.7378 H   0  0  0  0  0  0  0  0  0  0  0  0
   11.1341    9.3690   22.2502 H   0  0  0  0  0  0  0  0  0  0  0  0
   11.9933   12.6177   23.4118 H   0  0  0  0  0  0  0  0  0  0  0  0
   12.0990   10.9629   22.8326 H   0  0  0  0  0  0  0  0  0  0  0  0
  1  4  1  0  0  0  0
  1  5  2  0  0  0  0
  2  3  1  0  0  0  0
  2  6  2  0  0  0  0
  3  7  2  0  0  0  0
  4  8  2  0  0  0  0
  5  9  1  0  0  0  0
  6 10  1  0  0  0  0
  7 11  1  0  0  0  0
  8 12  1  0  0  0  0
  9 12  2  0  0  0  0
 10 11  1  0  0  0  0
 10 18  2  0  0  0  0
 11 19  2  0  0  0  0
 12 23  1  0  0  0  0
 13 14  2  0  0  0  0
 13 16  1  0  0  0  0
 13 18  1  0  0  0  0
 14 17  1  0  0  0  0
 14 19  1  0  0  0  0
 15 20  2  0  0  0  0
 15 23  1  0  0  0  0
 15 24  1  0  0  0  0
 17 24  1  0  0  0  0
 20 21  1  0  0  0  0
 21 22  2  0  0  0  0
 22 23  1  0  0  0  0
  1 25  1  0  0  0  0
  2 26  1  0  0  0  0
  3 27  1  0  0  0  0
  4 28  1  0  0  0  0
  5 29  1  0  0  0  0
  6 30  1  0  0  0  0
  7 31  1  0  0  0  0
  8 32  1  0  0  0  0
  9 33  1  0  0  0  0
 16 34  1  0  0  0  0
 16 35  1  0  0  0  0
 16 36  1  0  0  0  0
 17 37  1  0  0  0  0
 17 38  1  0  0  0  0
M  END
> <idnumber>
Z19657135

> <heavy_atoms>
24

> <LogS>
-4.426

> <LogP>
2.961

> <rotating_bonds>
4

> <PSA>
69.38

> <hb_acceptors>
5

> <hb_donors>
0

> <Collection>
HTS

> <link>
https://www.enaminestore.com/catalog/Z19657135

> <ROCS_ShapeQuery>
x0446_0A_x1080_0A_x0929_0A_x0812_0A_x0719_0A_x1140_0A_x0528_0A_x0310_0A

> <ROCS_TanimotoCombo>
0.457 

> <ROCS_ShapeTanimoto>
0.260 

> <ROCS_ColorTanimoto>
0.196 

> <ROCS_RefTversky>
0.236 

> <ROCS_RefColorTversky>
0.215 

> <ROCS_RefTverskyCombo>
0.451 

> <ROCS_FitTversky>
1.659 

> <ROCS_FitColorTversky>
0.696 

> <ROCS_FitTverskyCombo>
2.355 

> <ROCS_ColorScore>
-7.688

> <ROCS_Overlap>
2787.910

> <ROCS_Rank>
389                 

$$$$
untitled-dbase-668456_20
  -OEChem-02092406493D

 41 44  0     0  0  0  0  0  0999 V2000
    6.0461   13.5101   24.8740 C   0  0  0  0  0  0  0  0  0  0  0  0
    5.4896   12.2493   24.6897 C   0  0  0  0  0  0  0  0  0  0  0  0
    7.4094   13.6957   24.6668 C   0  0  0  0  0  0  0  0  0  0  0  0
   12.9464   15.0997   21.2827 C   0  0  0  0  0  0  0  0  0  0  0  0
    6.2969   11.1771   24.2985 C   0  0  0  0  0  0  0  0  0  0  0  0
   11.6162   14.8701   20.9317 C   0  0  0  0  0  0  0  0  0  0  0  0
   10.2679    8.7456   21.9306 C   0  0  0  0  0  0  0  0  0  0  0  0
   11.6077    8.9961   23.9122 C   0  0  0  0  0  0  0  0  0  0  0  0
   12.4350   14.5515   23.5795 C   0  0  0  0  0  0  0  0  0  0  0  0
   11.0756    7.6742   21.5851 C   0  0  0  0  0  0  0  0  0  0  0  0
   12.3553    7.9133   23.4781 C   0  0  0  0  0  0  0  0  0  0  0  0
    8.2144   12.6125   24.2735 C   0  0  0  0  0  0  0  0  0  0  0  0
   10.5457    9.4138   23.1179 C   0  0  0  0  0  0  0  0  0  0  0  0
   13.3559   14.9403   22.6066 C   0  0  0  0  0  0  0  0  0  0  0  0
    7.6640   11.3344   24.0840 C   0  0  0  0  0  0  0  0  0  0  0  0
   10.6953   14.4813   21.9045 C   0  0  0  0  0  0  0  0  0  0  0  0
   11.1047   14.3220   23.2285 C   0  0  0  0  0  0  0  0  0  0  0  0
    9.5833   12.7304   24.0497 C   0  0  0  0  0  0  0  0  0  0  0  0
    9.7380   10.5348   23.5227 C   0  0  0  0  0  0  0  0  0  0  0  0
   14.7785   15.1840   22.9807 C   0  0  0  0  0  0  0  0  0  0  0  0
   12.1159    7.2392   22.3309 N   0  0  0  0  0  0  0  0  0  0  0  0
    8.4246   10.2915   23.7078 N   0  0  0  0  0  0  0  0  0  0  0  0
   10.3738   11.7079   23.6728 N   0  0  0  0  0  0  0  0  0  0  0  0
    9.3434   14.2517   21.5283 N   0  3  0  0  0  0  0  0  0  0  0  0
    9.0016   13.1003   21.1683 O   0  5  0  0  0  0  0  0  0  0  0  0
    8.5327   15.2076   21.5672 O   0  0  0  0  0  0  0  0  0  0  0  0
   10.2115   13.9385   24.2084 O   0  0  0  0  0  0  0  0  0  0  0  0
    5.4205   14.3439   25.1778 H   0  0  0  0  0  0  0  0  0  0  0  0
    4.4261   12.0961   24.8498 H   0  0  0  0  0  0  0  0  0  0  0  0
    7.8296   14.6872   24.8143 H   0  0  0  0  0  0  0  0  0  0  0  0
   13.6574   15.4016   20.5182 H   0  0  0  0  0  0  0  0  0  0  0  0
    5.8359   10.2004   24.1621 H   0  0  0  0  0  0  0  0  0  0  0  0
   11.3111   14.9981   19.8959 H   0  0  0  0  0  0  0  0  0  0  0  0
    9.4486    9.0429   21.2839 H   0  0  0  0  0  0  0  0  0  0  0  0
   11.8539    9.4927   24.8452 H   0  0  0  0  0  0  0  0  0  0  0  0
   12.7523   14.4264   24.6119 H   0  0  0  0  0  0  0  0  0  0  0  0
   10.9018    7.1209   20.6680 H   0  0  0  0  0  0  0  0  0  0  0  0
   13.1934    7.5477   24.0620 H   0  0  0  0  0  0  0  0  0  0  0  0
   14.9252   16.2339   23.2630 H   0  0  0  0  0  0  0  0  0  0  0  0
   15.0829   14.5513   23.8248 H   0  0  0  0  0  0  0  0  0  0  0  0
   15.4554   14.9498   22.1485 H   0  0  0  0  0  0  0  0  0  0  0  0
  1  2  1  0  0  0  0
  1  3  2  0  0  0  0
  2  5  2  0  0  0  0
  3 12  1  0  0  0  0
  4  6  2  0  0  0  0
  4 14  1  0  0  0  0
  5 15  1  0  0  0  0
  6 16  1  0  0  0  0
  7 10  2  0  0  0  0
  7 13  1  0  0  0  0
  8 11  1  0  0  0  0
  8 13  2  0  0  0  0
  9 14  2  0  0  0  0
  9 17  1  0  0  0  0
 10 21  1  0  0  0  0
 11 21  2  0  0  0  0
 12 15  1  0  0  0  0
 12 18  2  0  0  0  0
 13 19  1  0  0  0  0
 14 20  1  0  0  0  0
 15 22  2  0  0  0  0
 16 17  2  0  0  0  0
 16 24  1  0  0  0  0
 17 27  1  0  0  0  0
 18 23  1  0  0  0  0
 18 27  1  0  0  0  0
 19 22  1  0  0  0  0
 19 23  2  0  0  0  0
 24 25  1  0  0  0  0
 24 26  2  0  0  0  0
  1 28  1  0  0  0  0
  2 29  1  0  0  0  0
  3 30  1  0  0  0  0
  4 31  1  0  0  0  0
  5 32  1  0  0  0  0
  6 33  1  0  0  0  0
  7 34  1  0  0  0  0
  8 35  1  0  0  0  0
  9 36  1  0  0  0  0
 10 37  1  0  0  0  0
 11 38  1  0  0  0  0
 20 39  1  0  0  0  0
 20 40  1  0  0  0  0
 20 41  1  0  0  0  0
M  CHG  2  24   1  25  -1
M  END
> <idnumber>
Z239634348

> <heavy_atoms>
27

> <LogS>
-6.68

> <LogP>
3.844

> <rotating_bonds>
4

> <PSA>
91.04

> <hb_acceptors>
5

> <hb_donors>
0

> <Collection>
HTS

> <link>
https://www.enaminestore.com/catalog/Z239634348

> <ROCS_ShapeQuery>
x0446_0A_x1080_0A_x0929_0A_x0812_0A_x0719_0A_x1140_0A_x0528_0A_x0310_0A

> <ROCS_TanimotoCombo>
0.457 

> <ROCS_ShapeTanimoto>
0.277 

> <ROCS_ColorTanimoto>
0.180 

> <ROCS_RefTversky>
0.250 

> <ROCS_RefColorTversky>
0.201 

> <ROCS_RefTverskyCombo>
0.451 

> <ROCS_FitTversky>
1.613 

> <ROCS_FitColorTversky>
0.632 

> <ROCS_FitTverskyCombo>
2.245 

> <ROCS_ColorScore>
-7.201

> <ROCS_Overlap>
2960.582

> <ROCS_Rank>
390                 

$$$$
untitled-dbase-739406_95
  -OEChem-02092406493D

 53 57  0     0  0  0  0  0  0999 V2000
   11.2546    8.1878   23.2837 C   0  0  0  0  0  0  0  0  0  0  0  0
   12.1163    9.2480   23.5174 C   0  0  0  0  0  0  0  0  0  0  0  0
   13.2149   16.1802   21.4599 C   0  0  0  0  0  0  0  0  0  0  0  0
   13.4130   15.2588   22.4881 C   0  0  0  0  0  0  0  0  0  0  0  0
    3.8465   11.7382   24.4812 C   0  0  0  0  0  0  0  0  0  0  0  0
    4.0023   13.0821   24.8143 C   0  0  0  0  0  0  0  0  0  0  0  0
    9.8789    8.3846   23.3891 C   0  0  0  0  0  0  0  0  0  0  0  0
   11.5950   10.4959   23.8541 C   0  0  0  0  0  0  0  0  0  0  0  0
   11.9223   16.4712   21.0236 C   0  0  0  0  0  0  0  0  0  0  0  0
   12.3186   14.6283   23.0800 C   0  0  0  0  0  0  0  0  0  0  0  0
    6.2507   11.4867   24.3204 C   0  0  0  0  0  0  0  0  0  0  0  0
    4.9600   10.9282   24.2316 C   0  0  0  0  0  0  0  0  0  0  0  0
    5.2719   13.6591   24.9087 C   0  0  0  0  0  0  0  0  0  0  0  0
    9.3444    9.6248   23.7245 C   0  0  0  0  0  0  0  0  0  0  0  0
   10.2238   10.7074   23.9628 C   0  0  0  0  0  0  0  0  0  0  0  0
    7.5666   10.9844   24.1402 C   0  0  0  0  0  0  0  0  0  0  0  0
    6.3778   12.8391   24.6569 C   0  0  0  0  0  0  0  0  0  0  0  0
   10.8279   15.8407   21.6155 C   0  0  0  0  0  0  0  0  0  0  0  0
   11.0261   14.9192   22.6437 C   0  0  0  0  0  0  0  0  0  0  0  0
    8.4498   12.0208   24.3664 C   0  0  0  0  0  0  0  0  0  0  0  0
    4.7273    9.4934   23.8781 C   0  0  0  0  0  0  0  0  0  0  0  0
    5.3731   15.1064   25.2645 C   0  0  0  0  0  0  0  0  0  0  0  0
    8.8938   17.2082   21.8270 C   0  0  0  0  0  0  0  0  0  0  0  0
    8.3089   14.4255   24.9811 C   0  0  0  0  0  0  0  0  0  0  0  0
    9.7890   14.4929   24.6296 C   0  0  0  0  0  0  0  0  0  0  0  0
    8.0126    9.7509   23.8103 N   0  0  0  0  0  0  0  0  0  0  0  0
    9.7850   11.9313   24.2900 N   0  0  0  0  0  0  0  0  0  0  0  0
    7.7249   13.1358   24.6775 N   0  0  0  0  0  0  0  0  0  0  0  0
    9.5707   16.1326   21.1797 O   0  0  0  0  0  0  0  0  0  0  0  0
    9.9592   14.2922   23.2325 O   0  0  0  0  0  0  0  0  0  0  0  0
   11.6472    7.2103   23.0210 H   0  0  0  0  0  0  0  0  0  0  0  0
   13.1901    9.1086   23.4383 H   0  0  0  0  0  0  0  0  0  0  0  0
   14.0672   16.6714   20.9990 H   0  0  0  0  0  0  0  0  0  0  0  0
   14.4192   15.0322   22.8277 H   0  0  0  0  0  0  0  0  0  0  0  0
    2.8435   11.3224   24.4164 H   0  0  0  0  0  0  0  0  0  0  0  0
    3.1156   13.6844   24.9999 H   0  0  0  0  0  0  0  0  0  0  0  0
    9.2163    7.5415   23.2016 H   0  0  0  0  0  0  0  0  0  0  0  0
   12.2861   11.3175   24.0341 H   0  0  0  0  0  0  0  0  0  0  0  0
   11.7748   17.1902   20.2222 H   0  0  0  0  0  0  0  0  0  0  0  0
   12.4802   13.9103   23.8794 H   0  0  0  0  0  0  0  0  0  0  0  0
    4.6285    9.3833   22.7928 H   0  0  0  0  0  0  0  0  0  0  0  0
    5.5561    8.8636   24.2214 H   0  0  0  0  0  0  0  0  0  0  0  0
    3.8161    9.1131   24.3545 H   0  0  0  0  0  0  0  0  0  0  0  0
    5.4373   15.2263   26.3520 H   0  0  0  0  0  0  0  0  0  0  0  0
    6.2592   15.5652   24.8089 H   0  0  0  0  0  0  0  0  0  0  0  0
    4.5017   15.6652   24.9016 H   0  0  0  0  0  0  0  0  0  0  0  0
    7.9028   17.3350   21.3843 H   0  0  0  0  0  0  0  0  0  0  0  0
    9.4753   18.1266   21.7139 H   0  0  0  0  0  0  0  0  0  0  0  0
    8.7887   16.9742   22.8890 H   0  0  0  0  0  0  0  0  0  0  0  0
    7.7374   15.1841   24.4337 H   0  0  0  0  0  0  0  0  0  0  0  0
    8.1608   14.6015   26.0528 H   0  0  0  0  0  0  0  0  0  0  0  0
   10.1836   15.4835   24.8765 H   0  0  0  0  0  0  0  0  0  0  0  0
   10.3704   13.7366   25.1670 H   0  0  0  0  0  0  0  0  0  0  0  0
  1  2  1  0  0  0  0
  1  7  2  0  0  0  0
  2  8  2  0  0  0  0
  3  4  1  0  0  0  0
  3  9  2  0  0  0  0
  4 10  2  0  0  0  0
  5  6  1  0  0  0  0
  5 12  2  0  0  0  0
  6 13  2  0  0  0  0
  7 14  1  0  0  0  0
  8 15  1  0  0  0  0
  9 18  1  0  0  0  0
 10 19  1  0  0  0  0
 11 12  1  0  0  0  0
 11 16  1  0  0  0  0
 11 17  2  0  0  0  0
 12 21  1  0  0  0  0
 13 17  1  0  0  0  0
 13 22  1  0  0  0  0
 14 15  1  0  0  0  0
 14 26  2  0  0  0  0
 15 27  2  0  0  0  0
 16 20  2  0  0  0  0
 16 26  1  0  0  0  0
 17 28  1  0  0  0  0
 18 19  2  0  0  0  0
 18 29  1  0  0  0  0
 19 30  1  0  0  0  0
 20 27  1  0  0  0  0
 20 28  1  0  0  0  0
 23 29  1  0  0  0  0
 24 25  1  0  0  0  0
 24 28  1  0  0  0  0
 25 30  1  0  0  0  0
  1 31  1  0  0  0  0
  2 32  1  0  0  0  0
  3 33  1  0  0  0  0
  4 34  1  0  0  0  0
  5 35  1  0  0  0  0
  6 36  1  0  0  0  0
  7 37  1  0  0  0  0
  8 38  1  0  0  0  0
  9 39  1  0  0  0  0
 10 40  1  0  0  0  0
 21 41  1  0  0  0  0
 21 42  1  0  0  0  0
 21 43  1  0  0  0  0
 22 44  1  0  0  0  0
 22 45  1  0  0  0  0
 22 46  1  0  0  0  0
 23 47  1  0  0  0  0
 23 48  1  0  0  0  0
 23 49  1  0  0  0  0
 24 50  1  0  0  0  0
 24 51  1  0  0  0  0
 25 52  1  0  0  0  0
 25 53  1  0  0  0  0
M  END
> <idnumber>
Z451350102

> <heavy_atoms>
30

> <LogS>
-6.19

> <LogP>
6.049

> <rotating_bonds>
5

> <PSA>
49.17

> <hb_acceptors>
4

> <hb_donors>
0

> <Collection>
Legacy

> <link>
https://www.enaminestore.com/catalog/Z451350102

> <ROCS_ShapeQuery>
x0446_0A_x1080_0A_x0929_0A_x0812_0A_x0719_0A_x1140_0A_x0528_0A_x0310_0A

> <ROCS_TanimotoCombo>
0.457 

> <ROCS_ShapeTanimoto>
0.258 

> <ROCS_ColorTanimoto>
0.198 

> <ROCS_RefTversky>
0.239 

> <ROCS_RefColorTversky>
0.214 

> <ROCS_RefTverskyCombo>
0.453 

> <ROCS_FitTversky>
1.439 

> <ROCS_FitColorTversky>
0.731 

> <ROCS_FitTverskyCombo>
2.171 

> <ROCS_ColorScore>
-7.650

> <ROCS_Overlap>
2833.366

> <ROCS_Rank>
391                 

$$$$
untitled-dbase-323241_20
  -OEChem-02092406493D

 45 48  0     0  0  0  0  0  0999 V2000
   13.1583   14.6150   22.3288 C   0  0  0  0  0  0  0  0  0  0  0  0
   12.2088   14.2674   23.2896 C   0  0  0  0  0  0  0  0  0  0  0  0
   11.3952   15.3698   20.8595 C   0  0  0  0  0  0  0  0  0  0  0  0
    8.0596   12.5757   24.0908 C   0  0  0  0  0  0  0  0  0  0  0  0
   12.7515   15.1663   21.1137 C   0  0  0  0  0  0  0  0  0  0  0  0
    6.9134   13.3784   24.2938 C   0  0  0  0  0  0  0  0  0  0  0  0
   10.8525   14.4709   23.0353 C   0  0  0  0  0  0  0  0  0  0  0  0
   10.4457   15.0222   21.8203 C   0  0  0  0  0  0  0  0  0  0  0  0
    5.7631   12.6418   24.3732 C   0  0  0  0  0  0  0  0  0  0  0  0
    9.4229   12.8450   23.9490 C   0  0  0  0  0  0  0  0  0  0  0  0
    7.6837   11.2312   24.0271 C   0  0  0  0  0  0  0  0  0  0  0  0
    9.7955   10.5823   23.7202 C   0  0  0  0  0  0  0  0  0  0  0  0
   13.7420   15.5311   20.1131 C   0  0  0  0  0  0  0  0  0  0  0  0
   13.5073   15.7072   18.7929 C   0  0  0  0  0  0  0  0  0  0  0  0
    6.6320   14.8273   24.4484 C   0  0  0  0  0  0  0  0  0  0  0  0
    4.5413   13.4507   24.5878 C   0  0  0  0  0  0  0  0  0  0  0  0
    5.0803   14.8827   24.2830 C   0  0  0  0  0  0  0  0  0  0  0  0
   10.7931    9.4915   23.5112 C   0  0  0  0  0  0  0  0  0  0  0  0
   14.5600   16.0738   17.7978 C   0  0  0  0  0  0  0  0  0  0  0  0
    8.5746   16.4853   21.9391 C   0  0  0  0  0  0  0  0  0  0  0  0
   10.2975   11.8331   23.7617 N   0  0  0  0  0  0  0  0  0  0  0  0
    8.5150   10.1871   23.8423 N   0  0  0  0  0  0  0  0  0  0  0  0
    9.9239   14.1228   23.9938 O   0  0  0  0  0  0  0  0  0  0  0  0
    9.1237   15.2246   21.5609 O   0  0  0  0  0  0  0  0  0  0  0  0
    5.9894   10.9936   24.2135 S   0  0  0  0  0  0  0  0  0  0  0  0
   14.2120   14.4514   22.5417 H   0  0  0  0  0  0  0  0  0  0  0  0
   12.5323   13.8381   24.2340 H   0  0  0  0  0  0  0  0  0  0  0  0
   11.0693   15.7996   19.9148 H   0  0  0  0  0  0  0  0  0  0  0  0
   14.7719   15.6545   20.4664 H   0  0  0  0  0  0  0  0  0  0  0  0
   12.5065   15.5724   18.3925 H   0  0  0  0  0  0  0  0  0  0  0  0
    6.9230   15.1692   25.4470 H   0  0  0  0  0  0  0  0  0  0  0  0
    7.1315   15.4407   23.6935 H   0  0  0  0  0  0  0  0  0  0  0  0
    3.7207   13.1850   23.9160 H   0  0  0  0  0  0  0  0  0  0  0  0
    4.2051   13.3804   25.6272 H   0  0  0  0  0  0  0  0  0  0  0  0
    4.6209   15.6441   24.9209 H   0  0  0  0  0  0  0  0  0  0  0  0
    4.8425   15.1384   23.2418 H   0  0  0  0  0  0  0  0  0  0  0  0
   11.1698    9.1306   24.4755 H   0  0  0  0  0  0  0  0  0  0  0  0
   10.3493    8.6458   22.9711 H   0  0  0  0  0  0  0  0  0  0  0  0
   11.6438    9.8409   22.9126 H   0  0  0  0  0  0  0  0  0  0  0  0
   14.6244   17.1625   17.7083 H   0  0  0  0  0  0  0  0  0  0  0  0
   15.5327   15.6981   18.1298 H   0  0  0  0  0  0  0  0  0  0  0  0
   14.3560   15.6613   16.8047 H   0  0  0  0  0  0  0  0  0  0  0  0
    7.5143   16.5154   21.6765 H   0  0  0  0  0  0  0  0  0  0  0  0
    9.1112   17.2865   21.4247 H   0  0  0  0  0  0  0  0  0  0  0  0
    8.6839   16.6111   23.0189 H   0  0  0  0  0  0  0  0  0  0  0  0
  1  2  2  0  0  0  0
  1  5  1  0  0  0  0
  2  7  1  0  0  0  0
  3  5  2  0  0  0  0
  3  8  1  0  0  0  0
  4  6  1  0  0  0  0
  4 10  2  0  0  0  0
  4 11  1  0  0  0  0
  5 13  1  0  0  0  0
  6  9  2  0  0  0  0
  6 15  1  0  0  0  0
  7  8  2  0  0  0  0
  7 23  1  0  0  0  0
  8 24  1  0  0  0  0
  9 16  1  0  0  0  0
  9 25  1  0  0  0  0
 10 21  1  0  0  0  0
 10 23  1  0  0  0  0
 11 22  2  0  0  0  0
 11 25  1  0  0  0  0
 12 18  1  0  0  0  0
 12 21  2  0  0  0  0
 12 22  1  0  0  0  0
 13 14  2  0  0  0  0
 14 19  1  4  0  0  0
 15 17  1  0  0  0  0
 16 17  1  0  0  0  0
 20 24  1  0  0  0  0
  1 26  1  0  0  0  0
  2 27  1  0  0  0  0
  3 28  1  0  0  0  0
 13 29  1  0  0  0  0
 14 30  1  0  0  0  0
 15 31  1  0  0  0  0
 15 32  1  0  0  0  0
 16 33  1  0  0  0  0
 16 34  1  0  0  0  0
 17 35  1  0  0  0  0
 17 36  1  0  0  0  0
 18 37  1  0  0  0  0
 18 38  1  0  0  0  0
 18 39  1  0  0  0  0
 19 40  1  0  0  0  0
 19 41  1  0  0  0  0
 19 42  1  0  0  0  0
 20 43  1  0  0  0  0
 20 44  1  0  0  0  0
 20 45  1  0  0  0  0
M  END
> <idnumber>
Z31120888

> <heavy_atoms>
25

> <LogS>
-6.54

> <LogP>
5.318

> <rotating_bonds>
4

> <PSA>
44.24

> <hb_acceptors>
3

> <hb_donors>
0

> <Collection>
Legacy

> <link>
https://www.enaminestore.com/catalog/Z31120888

> <ROCS_ShapeQuery>
x0446_0A_x1080_0A_x0929_0A_x0812_0A_x0719_0A_x1140_0A_x0528_0A_x0310_0A

> <ROCS_TanimotoCombo>
0.456 

> <ROCS_ShapeTanimoto>
0.252 

> <ROCS_ColorTanimoto>
0.205 

> <ROCS_RefTversky>
0.230 

> <ROCS_RefColorTversky>
0.220 

> <ROCS_RefTverskyCombo>
0.450 

> <ROCS_FitTversky>
1.598 

> <ROCS_FitColorTversky>
0.750 

> <ROCS_FitTverskyCombo>
2.348 

> <ROCS_ColorScore>
-7.856

> <ROCS_Overlap>
2721.135

> <ROCS_Rank>
392                 

$$$$
untitled-dbase-323304_15
  -OEChem-02092406493D

 48 51  0     0  0  0  0  0  0999 V2000
   13.1576   14.6036   22.3388 C   0  0  0  0  0  0  0  0  0  0  0  0
   12.2030   14.2602   23.2961 C   0  0  0  0  0  0  0  0  0  0  0  0
   11.4033   15.3656   20.8627 C   0  0  0  0  0  0  0  0  0  0  0  0
    8.0428   12.5778   24.0870 C   0  0  0  0  0  0  0  0  0  0  0  0
   12.7577   15.1563   21.1221 C   0  0  0  0  0  0  0  0  0  0  0  0
    6.8929   13.4124   24.2904 C   0  0  0  0  0  0  0  0  0  0  0  0
   10.8486   14.4695   23.0367 C   0  0  0  0  0  0  0  0  0  0  0  0
   10.4487   15.0222   21.8200 C   0  0  0  0  0  0  0  0  0  0  0  0
    5.7312   12.6680   24.3841 C   0  0  0  0  0  0  0  0  0  0  0  0
    9.4087   12.8496   23.9451 C   0  0  0  0  0  0  0  0  0  0  0  0
    7.6793   11.2375   24.0280 C   0  0  0  0  0  0  0  0  0  0  0  0
    9.7927   10.5913   23.7226 C   0  0  0  0  0  0  0  0  0  0  0  0
   13.7535   15.5167   20.1252 C   0  0  0  0  0  0  0  0  0  0  0  0
   15.0678   15.7327   20.3598 C   0  0  0  0  0  0  0  0  0  0  0  0
    6.8867   14.9069   24.4245 C   0  0  0  0  0  0  0  0  0  0  0  0
    4.3581   13.2325   24.5756 C   0  0  0  0  0  0  0  0  0  0  0  0
    5.4758   15.4925   24.2603 C   0  0  0  0  0  0  0  0  0  0  0  0
    4.4348   14.6905   25.0533 C   0  0  0  0  0  0  0  0  0  0  0  0
   10.7928    9.5025   23.5168 C   0  0  0  0  0  0  0  0  0  0  0  0
   16.0549   16.1110   19.3036 C   0  0  0  0  0  0  0  0  0  0  0  0
    8.8030   15.7990   20.2890 C   0  0  0  0  0  0  0  0  0  0  0  0
   10.2889   11.8427   23.7610 N   0  0  0  0  0  0  0  0  0  0  0  0
    8.5138   10.1956   23.8461 N   0  0  0  0  0  0  0  0  0  0  0  0
    9.9149   14.1256   23.9917 O   0  0  0  0  0  0  0  0  0  0  0  0
    9.1285   15.2301   21.5557 O   0  0  0  0  0  0  0  0  0  0  0  0
    6.0032   10.9977   24.2160 S   0  0  0  0  0  0  0  0  0  0  0  0
   14.2098   14.4356   22.5557 H   0  0  0  0  0  0  0  0  0  0  0  0
   12.5212   13.8299   24.2418 H   0  0  0  0  0  0  0  0  0  0  0  0
   11.0827   15.7965   19.9167 H   0  0  0  0  0  0  0  0  0  0  0  0
   13.3944   15.6401   19.0973 H   0  0  0  0  0  0  0  0  0  0  0  0
   15.4653   15.6454   21.3670 H   0  0  0  0  0  0  0  0  0  0  0  0
    7.2763   15.1697   25.4157 H   0  0  0  0  0  0  0  0  0  0  0  0
    7.5469   15.3629   23.6787 H   0  0  0  0  0  0  0  0  0  0  0  0
    3.8219   13.1926   23.6191 H   0  0  0  0  0  0  0  0  0  0  0  0
    3.7860   12.6418   25.3000 H   0  0  0  0  0  0  0  0  0  0  0  0
    5.4740   16.5378   24.5890 H   0  0  0  0  0  0  0  0  0  0  0  0
    5.1979   15.4897   23.1985 H   0  0  0  0  0  0  0  0  0  0  0  0
    3.4486   15.1585   24.9586 H   0  0  0  0  0  0  0  0  0  0  0  0
    4.6999   14.7148   26.1182 H   0  0  0  0  0  0  0  0  0  0  0  0
   11.1705    9.1450   24.4820 H   0  0  0  0  0  0  0  0  0  0  0  0
   10.3513    8.6541   22.9789 H   0  0  0  0  0  0  0  0  0  0  0  0
   11.6428    9.8522   22.9172 H   0  0  0  0  0  0  0  0  0  0  0  0
   16.5038   15.2102   18.8741 H   0  0  0  0  0  0  0  0  0  0  0  0
   15.5502   16.6592   18.5021 H   0  0  0  0  0  0  0  0  0  0  0  0
   16.8605   16.7414   19.6930 H   0  0  0  0  0  0  0  0  0  0  0  0
    7.7191   15.9115   20.2070 H   0  0  0  0  0  0  0  0  0  0  0  0
    9.1741   15.1508   19.4912 H   0  0  0  0  0  0  0  0  0  0  0  0
    9.2761   16.7805   20.2080 H   0  0  0  0  0  0  0  0  0  0  0  0
  1  2  2  0  0  0  0
  1  5  1  0  0  0  0
  2  7  1  0  0  0  0
  3  5  2  0  0  0  0
  3  8  1  0  0  0  0
  4  6  1  0  0  0  0
  4 10  2  0  0  0  0
  4 11  1  0  0  0  0
  5 13  1  0  0  0  0
  6  9  2  0  0  0  0
  6 15  1  0  0  0  0
  7  8  2  0  0  0  0
  7 24  1  0  0  0  0
  8 25  1  0  0  0  0
  9 16  1  0  0  0  0
  9 26  1  0  0  0  0
 10 22  1  0  0  0  0
 10 24  1  0  0  0  0
 11 23  2  0  0  0  0
 11 26  1  0  0  0  0
 12 19  1  0  0  0  0
 12 22  2  0  0  0  0
 12 23  1  0  0  0  0
 13 14  2  0  0  0  0
 14 20  1  4  0  0  0
 15 17  1  0  0  0  0
 16 18  1  0  0  0  0
 17 18  1  0  0  0  0
 21 25  1  0  0  0  0
  1 27  1  0  0  0  0
  2 28  1  0  0  0  0
  3 29  1  0  0  0  0
 13 30  1  0  0  0  0
 14 31  1  0  0  0  0
 15 32  1  0  0  0  0
 15 33  1  0  0  0  0
 16 34  1  0  0  0  0
 16 35  1  0  0  0  0
 17 36  1  0  0  0  0
 17 37  1  0  0  0  0
 18 38  1  0  0  0  0
 18 39  1  0  0  0  0
 19 40  1  0  0  0  0
 19 41  1  0  0  0  0
 19 42  1  0  0  0  0
 20 43  1  0  0  0  0
 20 44  1  0  0  0  0
 20 45  1  0  0  0  0
 21 46  1  0  0  0  0
 21 47  1  0  0  0  0
 21 48  1  0  0  0  0
M  END
> <idnumber>
Z31120911

> <heavy_atoms>
26

> <LogS>
-7.04

> <LogP>
5.877

> <rotating_bonds>
4

> <PSA>
44.24

> <hb_acceptors>
3

> <hb_donors>
0

> <Collection>
Legacy

> <link>
https://www.enaminestore.com/catalog/Z31120911

> <ROCS_ShapeQuery>
x0446_0A_x1080_0A_x0929_0A_x0812_0A_x0719_0A_x1140_0A_x0528_0A_x0310_0A

> <ROCS_TanimotoCombo>
0.456 

> <ROCS_ShapeTanimoto>
0.252 

> <ROCS_ColorTanimoto>
0.204 

> <ROCS_RefTversky>
0.231 

> <ROCS_RefColorTversky>
0.219 

> <ROCS_RefTverskyCombo>
0.450 

> <ROCS_FitTversky>
1.573 

> <ROCS_FitColorTversky>
0.750 

> <ROCS_FitTverskyCombo>
2.323 

> <ROCS_ColorScore>
-7.835

> <ROCS_Overlap>
2733.192

> <ROCS_Rank>
393                 

$$$$
untitled-dbase-849454_99
  -OEChem-02092406493D

 53 57  0     0  0  0  0  0  0999 V2000
   11.2500    8.1906   23.2692 C   0  0  0  0  0  0  0  0  0  0  0  0
   12.1129    9.2495   23.5039 C   0  0  0  0  0  0  0  0  0  0  0  0
   13.2142   16.1752   21.4572 C   0  0  0  0  0  0  0  0  0  0  0  0
   13.4130   15.2539   22.4854 C   0  0  0  0  0  0  0  0  0  0  0  0
    9.8747    8.3879   23.3781 C   0  0  0  0  0  0  0  0  0  0  0  0
   11.5930   10.4968   23.8452 C   0  0  0  0  0  0  0  0  0  0  0  0
   11.9212   16.4672   21.0228 C   0  0  0  0  0  0  0  0  0  0  0  0
   12.3190   14.6245   23.0792 C   0  0  0  0  0  0  0  0  0  0  0  0
    4.9592   10.9320   24.2382 C   0  0  0  0  0  0  0  0  0  0  0  0
    4.0040   13.0849   24.8289 C   0  0  0  0  0  0  0  0  0  0  0  0
    6.2503   11.4895   24.3258 C   0  0  0  0  0  0  0  0  0  0  0  0
    3.8467   11.7420   24.4924 C   0  0  0  0  0  0  0  0  0  0  0  0
    5.2742   13.6609   24.9221 C   0  0  0  0  0  0  0  0  0  0  0  0
    9.3417    9.6274   23.7181 C   0  0  0  0  0  0  0  0  0  0  0  0
   10.2223   10.7089   23.9575 C   0  0  0  0  0  0  0  0  0  0  0  0
    7.5656   10.9870   24.1413 C   0  0  0  0  0  0  0  0  0  0  0  0
    6.3790   12.8410   24.6657 C   0  0  0  0  0  0  0  0  0  0  0  0
   10.8271   15.8379   21.6166 C   0  0  0  0  0  0  0  0  0  0  0  0
   11.0260   14.9165   22.6448 C   0  0  0  0  0  0  0  0  0  0  0  0
    8.4499   12.0222   24.3685 C   0  0  0  0  0  0  0  0  0  0  0  0
    2.4764   11.1566   24.4016 C   0  0  0  0  0  0  0  0  0  0  0  0
    5.3769   15.1059   25.2874 C   0  0  0  0  0  0  0  0  0  0  0  0
    8.8945   17.2072   21.8307 C   0  0  0  0  0  0  0  0  0  0  0  0
    8.3120   14.4260   24.9866 C   0  0  0  0  0  0  0  0  0  0  0  0
    9.7917   14.4919   24.6328 C   0  0  0  0  0  0  0  0  0  0  0  0
    8.0101    9.7541   23.8071 N   0  0  0  0  0  0  0  0  0  0  0  0
    9.7848   11.9321   24.2889 N   0  0  0  0  0  0  0  0  0  0  0  0
    7.7263   13.1367   24.6843 N   0  0  0  0  0  0  0  0  0  0  0  0
    9.5695   16.1308   21.1827 O   0  0  0  0  0  0  0  0  0  0  0  0
    9.9594   14.2907   23.2354 O   0  0  0  0  0  0  0  0  0  0  0  0
   11.6414    7.2136   23.0020 H   0  0  0  0  0  0  0  0  0  0  0  0
   13.1866    9.1097   23.4230 H   0  0  0  0  0  0  0  0  0  0  0  0
   14.0662   16.6654   20.9949 H   0  0  0  0  0  0  0  0  0  0  0  0
   14.4195   15.0265   22.8235 H   0  0  0  0  0  0  0  0  0  0  0  0
    9.2116    7.5451   23.1907 H   0  0  0  0  0  0  0  0  0  0  0  0
   12.2854   11.3173   24.0255 H   0  0  0  0  0  0  0  0  0  0  0  0
   11.7730   17.1861   20.2215 H   0  0  0  0  0  0  0  0  0  0  0  0
   12.4811   13.9066   23.8785 H   0  0  0  0  0  0  0  0  0  0  0  0
    4.8322    9.8850   23.9764 H   0  0  0  0  0  0  0  0  0  0  0  0
    3.1236   13.6954   25.0224 H   0  0  0  0  0  0  0  0  0  0  0  0
    2.1697   10.7534   25.3739 H   0  0  0  0  0  0  0  0  0  0  0  0
    1.7427   11.9101   24.0890 H   0  0  0  0  0  0  0  0  0  0  0  0
    2.4384   10.3481   23.6606 H   0  0  0  0  0  0  0  0  0  0  0  0
    5.4454   15.2182   26.3754 H   0  0  0  0  0  0  0  0  0  0  0  0
    6.2612   15.5676   24.8315 H   0  0  0  0  0  0  0  0  0  0  0  0
    4.5041   15.6671   24.9317 H   0  0  0  0  0  0  0  0  0  0  0  0
    7.9030   17.3349   21.3895 H   0  0  0  0  0  0  0  0  0  0  0  0
    9.4768   18.1251   21.7164 H   0  0  0  0  0  0  0  0  0  0  0  0
    8.7909   16.9737   22.8930 H   0  0  0  0  0  0  0  0  0  0  0  0
    7.7404   15.1850   24.4398 H   0  0  0  0  0  0  0  0  0  0  0  0
    8.1657   14.6024   26.0584 H   0  0  0  0  0  0  0  0  0  0  0  0
   10.1875   15.4823   24.8788 H   0  0  0  0  0  0  0  0  0  0  0  0
   10.3732   13.7353   25.1694 H   0  0  0  0  0  0  0  0  0  0  0  0
  1  2  1  0  0  0  0
  1  5  2  0  0  0  0
  2  6  2  0  0  0  0
  3  4  1  0  0  0  0
  3  7  2  0  0  0  0
  4  8  2  0  0  0  0
  5 14  1  0  0  0  0
  6 15  1  0  0  0  0
  7 18  1  0  0  0  0
  8 19  1  0  0  0  0
  9 11  1  0  0  0  0
  9 12  2  0  0  0  0
 10 12  1  0  0  0  0
 10 13  2  0  0  0  0
 11 16  1  0  0  0  0
 11 17  2  0  0  0  0
 12 21  1  0  0  0  0
 13 17  1  0  0  0  0
 13 22  1  0  0  0  0
 14 15  1  0  0  0  0
 14 26  2  0  0  0  0
 15 27  2  0  0  0  0
 16 20  2  0  0  0  0
 16 26  1  0  0  0  0
 17 28  1  0  0  0  0
 18 19  2  0  0  0  0
 18 29  1  0  0  0  0
 19 30  1  0  0  0  0
 20 27  1  0  0  0  0
 20 28  1  0  0  0  0
 23 29  1  0  0  0  0
 24 25  1  0  0  0  0
 24 28  1  0  0  0  0
 25 30  1  0  0  0  0
  1 31  1  0  0  0  0
  2 32  1  0  0  0  0
  3 33  1  0  0  0  0
  4 34  1  0  0  0  0
  5 35  1  0  0  0  0
  6 36  1  0  0  0  0
  7 37  1  0  0  0  0
  8 38  1  0  0  0  0
  9 39  1  0  0  0  0
 10 40  1  0  0  0  0
 21 41  1  0  0  0  0
 21 42  1  0  0  0  0
 21 43  1  0  0  0  0
 22 44  1  0  0  0  0
 22 45  1  0  0  0  0
 22 46  1  0  0  0  0
 23 47  1  0  0  0  0
 23 48  1  0  0  0  0
 23 49  1  0  0  0  0
 24 50  1  0  0  0  0
 24 51  1  0  0  0  0
 25 52  1  0  0  0  0
 25 53  1  0  0  0  0
M  END
> <idnumber>
Z1763365043

> <heavy_atoms>
30

> <LogS>
-6.19

> <LogP>
6.049

> <rotating_bonds>
5

> <PSA>
49.17

> <hb_acceptors>
4

> <hb_donors>
0

> <Collection>
Legacy

> <link>
https://www.enaminestore.com/catalog/Z1763365043

> <ROCS_ShapeQuery>
x0446_0A_x1080_0A_x0929_0A_x0812_0A_x0719_0A_x1140_0A_x0528_0A_x0310_0A

> <ROCS_TanimotoCombo>
0.456 

> <ROCS_ShapeTanimoto>
0.258 

> <ROCS_ColorTanimoto>
0.198 

> <ROCS_RefTversky>
0.239 

> <ROCS_RefColorTversky>
0.214 

> <ROCS_RefTverskyCombo>
0.453 

> <ROCS_FitTversky>
1.439 

> <ROCS_FitColorTversky>
0.732 

> <ROCS_FitTverskyCombo>
2.171 

> <ROCS_ColorScore>
-7.657

> <ROCS_Overlap>
2831.110

> <ROCS_Rank>
394                 

$$$$
untitled-dbase-1070419_2
  -OEChem-02092406493D

 49 52  0     1  0  0  0  0  0999 V2000
    7.1431   13.4382   24.9345 C   0  0  0  0  0  0  0  0  0  0  0  0
   10.9378   14.2145   22.1939 C   0  0  0  0  0  0  0  0  0  0  0  0
    9.9000   13.3308   22.0475 C   0  0  0  0  0  0  0  0  0  0  0  0
   10.3658   15.4850   21.9685 C   0  0  0  0  0  0  0  0  0  0  0  0
    7.9189   12.3079   24.8102 C   0  0  0  0  0  0  0  0  0  0  0  0
    9.9025   11.8694   22.1776 C   0  0  0  0  0  0  0  0  0  0  0  0
   12.3732   14.0487   22.5174 C   0  0  0  0  0  0  0  0  0  0  0  0
    9.3791   12.1058   24.6555 C   0  0  0  0  0  0  0  0  0  0  0  0
    8.0196    9.4284   23.5604 C   0  0  0  0  0  0  0  0  0  0  0  0
    7.2511    9.8714   24.8053 C   0  0  0  0  0  0  0  0  0  0  0  0
    9.4869    9.8663   23.5554 C   0  0  0  0  0  0  0  0  0  0  0  0
   11.1771   16.7351   22.0025 C   0  0  1  0  0  0  0  0  0  0  0  0
   13.1378   15.3216   22.0845 C   0  0  2  0  0  0  0  0  0  0  0  0
   10.5232   17.8508   22.8076 C   0  0  0  0  0  0  0  0  0  0  0  0
   14.5601   15.3112   22.6265 C   0  0  0  0  0  0  0  0  0  0  0  0
    6.9608   14.0451   20.1184 C   0  0  0  0  0  0  0  0  0  0  0  0
    7.4672   13.6273   21.4883 C   0  0  0  0  0  0  0  0  0  0  0  0
    5.8265   13.0893   25.0449 N   0  0  0  0  0  0  0  0  0  0  0  0
    9.0654   15.4193   21.6751 N   0  0  0  0  0  0  0  0  0  0  0  0
    5.7491   11.7647   24.9984 N   0  0  0  0  0  0  0  0  0  0  0  0
    8.8096   14.0974   21.7419 N   0  0  0  0  0  0  0  0  0  0  0  0
    7.0015   11.2940   24.8586 N   0  0  0  0  0  0  0  0  0  0  0  0
    9.6428   11.3197   23.4404 N   0  0  0  0  0  0  0  0  0  0  0  0
   10.1255   11.2336   21.1485 O   0  0  0  0  0  0  0  0  0  0  0  0
   12.4794   16.4992   22.5978 O   0  0  0  0  0  0  0  0  0  0  0  0
    7.4619   14.4697   24.9463 H   0  0  0  0  0  0  0  0  0  0  0  0
   12.4650   13.9061   23.6012 H   0  0  0  0  0  0  0  0  0  0  0  0
   12.7935   13.1676   22.0207 H   0  0  0  0  0  0  0  0  0  0  0  0
    9.8923   13.0710   24.6025 H   0  0  0  0  0  0  0  0  0  0  0  0
    9.7932   11.5724   25.5186 H   0  0  0  0  0  0  0  0  0  0  0  0
    7.9967    8.3325   23.5187 H   0  0  0  0  0  0  0  0  0  0  0  0
    7.5192    9.7886   22.6529 H   0  0  0  0  0  0  0  0  0  0  0  0
    6.2793    9.3644   24.8285 H   0  0  0  0  0  0  0  0  0  0  0  0
    7.7873    9.6018   25.7222 H   0  0  0  0  0  0  0  0  0  0  0  0
   10.0003    9.5316   24.4642 H   0  0  0  0  0  0  0  0  0  0  0  0
    9.9911    9.3825   22.7115 H   0  0  0  0  0  0  0  0  0  0  0  0
   11.3455   17.0844   20.9765 H   0  0  0  0  0  0  0  0  0  0  0  0
   13.1763   15.3948   20.9894 H   0  0  0  0  0  0  0  0  0  0  0  0
   10.3488   17.5192   23.8313 H   0  0  0  0  0  0  0  0  0  0  0  0
    9.5690   18.1255   22.3577 H   0  0  0  0  0  0  0  0  0  0  0  0
   11.1713   18.7272   22.8253 H   0  0  0  0  0  0  0  0  0  0  0  0
   14.5457   15.2388   23.7146 H   0  0  0  0  0  0  0  0  0  0  0  0
   15.0762   16.2286   22.3411 H   0  0  0  0  0  0  0  0  0  0  0  0
   15.1080   14.4585   22.2237 H   0  0  0  0  0  0  0  0  0  0  0  0
    6.9560   15.1352   20.0139 H   0  0  0  0  0  0  0  0  0  0  0  0
    5.9396   13.6830   19.9648 H   0  0  0  0  0  0  0  0  0  0  0  0
    7.5917   13.6364   19.3221 H   0  0  0  0  0  0  0  0  0  0  0  0
    7.4684   12.5355   21.5832 H   0  0  0  0  0  0  0  0  0  0  0  0
    6.8169   14.0216   22.2773 H   0  0  0  0  0  0  0  0  0  0  0  0
  1  5  2  0  0  0  0
  1 18  1  0  0  0  0
  2  3  2  0  0  0  0
  2  4  1  0  0  0  0
  2  7  1  0  0  0  0
  3  6  1  0  0  0  0
  3 21  1  0  0  0  0
  4 12  1  0  0  0  0
  4 19  2  0  0  0  0
  5  8  1  0  0  0  0
  5 22  1  0  0  0  0
  6 23  1  0  0  0  0
  6 24  2  0  0  0  0
  7 13  1  0  0  0  0
  8 23  1  0  0  0  0
  9 10  1  0  0  0  0
  9 11  1  0  0  0  0
 10 22  1  0  0  0  0
 11 23  1  0  0  0  0
 12 14  1  1  0  0  0
 12 25  1  0  0  0  0
 13 15  1  1  0  0  0
 13 25  1  0  0  0  0
 16 17  1  0  0  0  0
 17 21  1  0  0  0  0
 18 20  2  0  0  0  0
 19 21  1  0  0  0  0
 20 22  1  0  0  0  0
  1 26  1  0  0  0  0
  7 27  1  0  0  0  0
  7 28  1  0  0  0  0
  8 29  1  0  0  0  0
  8 30  1  0  0  0  0
  9 31  1  0  0  0  0
  9 32  1  0  0  0  0
 10 33  1  0  0  0  0
 10 34  1  0  0  0  0
 11 35  1  0  0  0  0
 11 36  1  0  0  0  0
 12 37  1  0  0  0  0
 13 38  1  0  0  0  0
 14 39  1  0  0  0  0
 14 40  1  0  0  0  0
 14 41  1  0  0  0  0
 15 42  1  0  0  0  0
 15 43  1  0  0  0  0
 15 44  1  0  0  0  0
 16 45  1  0  0  0  0
 16 46  1  0  0  0  0
 16 47  1  0  0  0  0
 17 48  1  0  0  0  0
 17 49  1  0  0  0  0
M  END
> <idnumber>
Z4105194716

> <heavy_atoms>
25

> <LogS>
-1.436

> <LogP>
-0.469

> <rotating_bonds>
2

> <PSA>
78.07

> <hb_acceptors>
5

> <hb_donors>
0

> <Collection>
HTS

> <link>
https://www.enaminestore.com/catalog/Z4105194716

> <ROCS_ShapeQuery>
x0446_0A_x1080_0A_x0929_0A_x0812_0A_x0719_0A_x1140_0A_x0528_0A_x0310_0A

> <ROCS_TanimotoCombo>
0.456 

> <ROCS_ShapeTanimoto>
0.265 

> <ROCS_ColorTanimoto>
0.191 

> <ROCS_RefTversky>
0.240 

> <ROCS_RefColorTversky>
0.209 

> <ROCS_RefTverskyCombo>
0.449 

> <ROCS_FitTversky>
1.654 

> <ROCS_FitColorTversky>
0.695 

> <ROCS_FitTverskyCombo>
2.349 

> <ROCS_ColorScore>
-7.479

> <ROCS_Overlap>
2836.655

> <ROCS_Rank>
395                 

$$$$
untitled-dbase-1053324_0
  -OEChem-02092406493D

 52 58  0     1  0  0  0  0  0999 V2000
    5.5449   15.3050   20.4089 C   0  0  0  0  0  0  0  0  0  0  0  0
    6.8454   15.7541   20.6384 C   0  0  0  0  0  0  0  0  0  0  0  0
    5.5772   14.1323   22.5210 C   0  0  0  0  0  0  0  0  0  0  0  0
    4.9108   14.4941   21.3503 C   0  0  0  0  0  0  0  0  0  0  0  0
    6.8778   14.5814   22.7504 C   0  0  0  0  0  0  0  0  0  0  0  0
    7.5118   15.3923   21.8091 C   0  0  0  0  0  0  0  0  0  0  0  0
    3.5424   14.0209   21.1084 C   0  0  0  0  0  0  0  0  0  0  0  0
    7.5476   14.1795   23.9932 C   0  0  0  0  0  0  0  0  0  0  0  0
    4.3815   10.9069   17.4345 C   0  0  0  0  0  0  0  0  0  0  0  0
    8.1804    9.4171   23.0890 C   0  0  0  0  0  0  0  0  0  0  0  0
    3.7604   10.5529   20.1836 C   0  0  0  0  0  0  0  0  0  0  0  0
    9.9470   11.6409   23.1396 C   0  0  0  0  0  0  0  0  0  0  0  0
    2.0925   12.2188   20.1484 C   0  0  0  0  0  0  0  0  0  0  0  0
    9.0124   12.4951   25.1284 C   0  0  0  0  0  0  0  0  0  0  0  0
    3.0947   11.4143   18.0331 C   0  0  2  0  0  0  0  0  0  0  0  0
    8.4038   10.2298   24.3384 C   0  0  2  0  0  0  0  0  0  0  0  0
    4.4036   12.0532   18.4137 C   0  0  1  0  0  0  0  0  0  0  0  0
    7.6778   10.8364   23.1675 C   0  0  1  0  0  0  0  0  0  0  0  0
    2.5113   10.9502   19.3694 C   0  0  1  0  0  0  0  0  0  0  0  0
    9.5863   11.1740   24.5654 C   0  0  1  0  0  0  0  0  0  0  0  0
    4.4490   11.9053   19.9337 C   0  0  1  0  0  0  0  0  0  0  0  0
    8.5041   12.0775   22.8339 C   0  0  1  0  0  0  0  0  0  0  0  0
    3.4022   12.8196   20.4440 N   0  0  0  0  0  0  0  0  0  0  0  0
    8.2780   13.0091   23.9622 N   0  0  0  0  0  0  0  0  0  0  0  0
    8.8379   15.8636   22.0190 N   0  3  0  0  0  0  0  0  0  0  0  0
    9.0054   16.9565   22.6094 O   0  5  0  0  0  0  0  0  0  0  0  0
    2.6189   14.7168   21.5231 O   0  0  0  0  0  0  0  0  0  0  0  0
    7.4238   14.9154   24.9691 O   0  0  0  0  0  0  0  0  0  0  0  0
    9.7983   15.1718   21.6067 O   0  0  0  0  0  0  0  0  0  0  0  0
    5.0347   15.5934   19.4935 H   0  0  0  0  0  0  0  0  0  0  0  0
    7.3256   16.3870   19.8959 H   0  0  0  0  0  0  0  0  0  0  0  0
    5.0814   13.4990   23.2540 H   0  0  0  0  0  0  0  0  0  0  0  0
    4.7682    9.9407   17.7258 H   0  0  0  0  0  0  0  0  0  0  0  0
    4.5708   11.1408   16.3922 H   0  0  0  0  0  0  0  0  0  0  0  0
    9.0148    9.1747   22.4463 H   0  0  0  0  0  0  0  0  0  0  0  0
    7.4405    8.6252   23.1371 H   0  0  0  0  0  0  0  0  0  0  0  0
    3.5487   10.3656   21.2426 H   0  0  0  0  0  0  0  0  0  0  0  0
    4.3018    9.6958   19.7758 H   0  0  0  0  0  0  0  0  0  0  0  0
   10.6621   12.4712   23.1209 H   0  0  0  0  0  0  0  0  0  0  0  0
   10.3171   10.8428   22.4916 H   0  0  0  0  0  0  0  0  0  0  0  0
    1.4788   12.9136   19.5632 H   0  0  0  0  0  0  0  0  0  0  0  0
    1.5926   11.9833   21.0958 H   0  0  0  0  0  0  0  0  0  0  0  0
    8.3308   12.3547   25.9754 H   0  0  0  0  0  0  0  0  0  0  0  0
    9.7972   13.2140   25.3936 H   0  0  0  0  0  0  0  0  0  0  0  0
    2.4034   11.9570   17.4042 H   0  0  0  0  0  0  0  0  0  0  0  0
    7.8507    9.9781   25.2321 H   0  0  0  0  0  0  0  0  0  0  0  0
    4.6343   13.0451   18.0501 H   0  0  0  0  0  0  0  0  0  0  0  0
    6.6125   11.0092   23.2366 H   0  0  0  0  0  0  0  0  0  0  0  0
    1.7396   10.1834   19.2851 H   0  0  0  0  0  0  0  0  0  0  0  0
   10.4062   10.7430   25.1421 H   0  0  0  0  0  0  0  0  0  0  0  0
    5.4258   12.0578   20.3884 H   0  0  0  0  0  0  0  0  0  0  0  0
    8.3135   12.5160   21.8565 H   0  0  0  0  0  0  0  0  0  0  0  0
  1  2  2  0  0  0  0
  1  4  1  0  0  0  0
  2  6  1  0  0  0  0
  3  4  2  0  0  0  0
  3  5  1  0  0  0  0
  4  7  1  0  0  0  0
  5  6  2  0  0  0  0
  5  8  1  0  0  0  0
  6 25  1  0  0  0  0
  7 23  1  0  0  0  0
  7 27  2  0  0  0  0
  8 24  1  0  0  0  0
  8 28  2  0  0  0  0
  9 15  1  1  0  0  0
  9 17  1  1  0  0  0
 10 16  1  1  0  0  0
 10 18  1  1  0  0  0
 11 19  1  1  0  0  0
 11 21  1  1  0  0  0
 12 20  1  1  0  0  0
 12 22  1  1  0  0  0
 13 19  1  0  0  0  0
 13 23  1  0  0  0  0
 14 20  1  0  0  0  0
 14 24  1  0  0  0  0
 15 17  1  0  0  0  0
 15 19  1  0  0  0  0
 16 18  1  0  0  0  0
 16 20  1  0  0  0  0
 17 21  1  0  0  0  0
 18 22  1  0  0  0  0
 21 23  1  0  0  0  0
 22 24  1  0  0  0  0
 25 26  1  0  0  0  0
 25 29  2  0  0  0  0
  1 30  1  0  0  0  0
  2 31  1  0  0  0  0
  3 32  1  0  0  0  0
  9 33  1  0  0  0  0
  9 34  1  0  0  0  0
 10 35  1  0  0  0  0
 10 36  1  0  0  0  0
 11 37  1  0  0  0  0
 11 38  1  0  0  0  0
 12 39  1  0  0  0  0
 12 40  1  0  0  0  0
 13 41  1  0  0  0  0
 13 42  1  0  0  0  0
 14 43  1  0  0  0  0
 14 44  1  0  0  0  0
 15 45  1  0  0  0  0
 16 46  1  0  0  0  0
 17 47  1  0  0  0  0
 18 48  1  0  0  0  0
 19 49  1  0  0  0  0
 20 50  1  0  0  0  0
 21 51  1  0  0  0  0
 22 52  1  0  0  0  0
M  CHG  2  25   1  26  -1
M  END
> <idnumber>
Z3713295002

> <heavy_atoms>
29

> <LogS>
-6.151

> <LogP>
0.528

> <rotating_bonds>
3

> <PSA>
83.76

> <hb_acceptors>
4

> <hb_donors>
0

> <Collection>
Advanced

> <link>
https://www.enaminestore.com/catalog/Z3713295002

> <ROCS_ShapeQuery>
x0446_0A_x1080_0A_x0929_0A_x0812_0A_x0719_0A_x1140_0A_x0528_0A_x0310_0A

> <ROCS_TanimotoCombo>
0.456 

> <ROCS_ShapeTanimoto>
0.236 

> <ROCS_ColorTanimoto>
0.221 

> <ROCS_RefTversky>
0.222 

> <ROCS_RefColorTversky>
0.371 

> <ROCS_RefTverskyCombo>
0.593 

> <ROCS_FitTversky>
1.360 

> <ROCS_FitColorTversky>
0.352 

> <ROCS_FitTverskyCombo>
1.712 

> <ROCS_ColorScore>
-13.832

> <ROCS_Overlap>
2626.469

> <ROCS_Rank>
396                 

$$$$
untitled-dbase-301265_84
  -OEChem-02092406493D

 54 58  0     1  0  0  0  0  0999 V2000
    5.5215   12.7537   25.2129 C   0  0  0  0  0  0  0  0  0  0  0  0
    5.2121   11.4040   25.2854 C   0  0  0  0  0  0  0  0  0  0  0  0
    6.2819   13.4972   20.9698 C   0  0  0  0  0  0  0  0  0  0  0  0
    6.7812   13.1442   24.7630 C   0  0  0  0  0  0  0  0  0  0  0  0
    6.1673   10.4613   24.9101 C   0  0  0  0  0  0  0  0  0  0  0  0
    4.9987   12.9782   21.1417 C   0  0  0  0  0  0  0  0  0  0  0  0
    4.4252   14.8608   22.5431 C   0  0  0  0  0  0  0  0  0  0  0  0
    8.5167   16.4792   21.3777 C   0  0  0  0  0  0  0  0  0  0  0  0
    6.6369   14.6979   21.5846 C   0  0  0  0  0  0  0  0  0  0  0  0
    7.7374   12.2035   24.3849 C   0  0  0  0  0  0  0  0  0  0  0  0
    7.4289   10.8486   24.4621 C   0  0  0  0  0  0  0  0  0  0  0  0
    4.0703   13.6601   21.9283 C   0  0  0  0  0  0  0  0  0  0  0  0
    5.7085   15.3797   22.3712 C   0  0  0  0  0  0  0  0  0  0  0  0
    7.9561   15.2264   21.4054 C   0  0  0  0  0  0  0  0  0  0  0  0
    9.8592   11.6685   23.5545 C   0  0  0  0  0  0  0  0  0  0  0  0
    9.5863   10.3035   23.7012 C   0  0  0  0  0  0  0  0  0  0  0  0
   10.0649   15.0887   21.0731 C   0  0  0  0  0  0  0  0  0  0  0  0
   11.4991   13.4837   23.2111 C   0  0  0  0  0  0  0  0  0  0  0  0
   12.6347   10.2500   22.6711 C   0  0  0  0  0  0  0  0  0  0  0  0
   11.7579   11.2862   21.9829 C   0  0  0  0  0  0  0  0  0  0  0  0
   11.9325    9.5705   23.8366 C   0  0  0  0  0  0  0  0  0  0  0  0
   10.0940    7.9134   23.4838 C   0  0  0  0  0  0  0  0  0  0  0  0
   11.3594   14.3482   20.8403 C   0  0  0  0  0  0  0  0  0  0  0  0
   12.2166   14.2036   22.0933 C   0  0  0  0  0  0  0  0  0  0  0  0
    9.8682   16.3845   21.1647 N   0  0  0  0  0  0  0  0  0  0  0  0
    8.9383   12.5910   23.9378 N   0  0  0  0  0  0  0  0  0  0  0  0
    8.3454    9.9320   24.1209 N   0  0  0  0  0  0  0  0  0  0  0  0
   11.0726   12.1711   22.9388 N   0  0  0  0  0  0  0  0  0  0  0  0
   10.5368    9.2996   23.5077 N   0  0  1  0  0  0  0  0  0  0  0  0
   11.3526   14.0722   24.2860 O   0  0  0  0  0  0  0  0  0  0  0  0
    8.9515   14.3174   21.2089 O   0  0  0  0  0  0  0  0  0  0  0  0
    2.8381   13.1614   22.0928 F   0  0  0  0  0  0  0  0  0  0  0  0
    6.0351   16.5339   22.9711 F   0  0  0  0  0  0  0  0  0  0  0  0
    4.7889   13.5007   25.5024 H   0  0  0  0  0  0  0  0  0  0  0  0
    4.2352   11.0831   25.6336 H   0  0  0  0  0  0  0  0  0  0  0  0
    6.9944   12.9531   20.3542 H   0  0  0  0  0  0  0  0  0  0  0  0
    7.0120   14.2059   24.7044 H   0  0  0  0  0  0  0  0  0  0  0  0
    5.9157    9.4046   24.9737 H   0  0  0  0  0  0  0  0  0  0  0  0
    4.7225   12.0429   20.6638 H   0  0  0  0  0  0  0  0  0  0  0  0
    3.7025   15.3924   23.1549 H   0  0  0  0  0  0  0  0  0  0  0  0
    8.0276   17.4350   21.4968 H   0  0  0  0  0  0  0  0  0  0  0  0
   12.9325    9.4970   21.9311 H   0  0  0  0  0  0  0  0  0  0  0  0
   13.5584   10.7171   23.0324 H   0  0  0  0  0  0  0  0  0  0  0  0
   12.3679   11.8601   21.2808 H   0  0  0  0  0  0  0  0  0  0  0  0
   10.9967   10.8016   21.3569 H   0  0  0  0  0  0  0  0  0  0  0  0
   12.4667    8.6424   24.0754 H   0  0  0  0  0  0  0  0  0  0  0  0
   12.0010   10.1862   24.7434 H   0  0  0  0  0  0  0  0  0  0  0  0
   10.9598    7.2541   23.3232 H   0  0  0  0  0  0  0  0  0  0  0  0
    9.6168    7.6644   24.4431 H   0  0  0  0  0  0  0  0  0  0  0  0
    9.3705    7.7736   22.6672 H   0  0  0  0  0  0  0  0  0  0  0  0
   11.9302   14.8328   20.0375 H   0  0  0  0  0  0  0  0  0  0  0  0
   11.1182   13.3446   20.4663 H   0  0  0  0  0  0  0  0  0  0  0  0
   13.1401   13.6640   21.8811 H   0  0  0  0  0  0  0  0  0  0  0  0
   12.4867   15.1912   22.4692 H   0  0  0  0  0  0  0  0  0  0  0  0
  1  2  1  0  0  0  0
  1  4  2  0  0  0  0
  2  5  2  0  0  0  0
  3  6  2  0  0  0  0
  3  9  1  0  0  0  0
  4 10  1  0  0  0  0
  5 11  1  0  0  0  0
  6 12  1  0  0  0  0
  7 12  2  0  0  0  0
  7 13  1  0  0  0  0
  8 14  2  0  0  0  0
  8 25  1  0  0  0  0
  9 13  2  0  0  0  0
  9 14  1  0  0  0  0
 10 11  1  0  0  0  0
 10 26  2  0  0  0  0
 11 27  2  0  0  0  0
 12 32  1  0  0  0  0
 13 33  1  0  0  0  0
 14 31  1  0  0  0  0
 15 16  2  0  0  0  0
 15 26  1  0  0  0  0
 15 28  1  0  0  0  0
 16 27  1  0  0  0  0
 16 29  1  0  0  0  0
 17 23  1  0  0  0  0
 17 25  2  0  0  0  0
 17 31  1  0  0  0  0
 18 24  1  0  0  0  0
 18 28  1  0  0  0  0
 18 30  2  0  0  0  0
 19 20  1  0  0  0  0
 19 21  1  0  0  0  0
 20 28  1  0  0  0  0
 21 29  1  0  0  0  0
 22 29  1  0  0  0  0
 23 24  1  0  0  0  0
  1 34  1  0  0  0  0
  2 35  1  0  0  0  0
  3 36  1  0  0  0  0
  4 37  1  0  0  0  0
  5 38  1  0  0  0  0
  6 39  1  0  0  0  0
  7 40  1  0  0  0  0
  8 41  1  0  0  0  0
 19 42  1  0  0  0  0
 19 43  1  0  0  0  0
 20 44  1  0  0  0  0
 20 45  1  0  0  0  0
 21 46  1  0  0  0  0
 21 47  1  0  0  0  0
 22 48  1  0  0  0  0
 22 49  1  0  0  0  0
 22 50  1  0  0  0  0
 23 51  1  0  0  0  0
 23 52  1  0  0  0  0
 24 53  1  0  0  0  0
 24 54  1  0  0  0  0
M  END
> <idnumber>
Z225589626

> <heavy_atoms>
33

> <LogS>
-5.08

> <LogP>
3.421

> <rotating_bonds>
4

> <PSA>
75.36

> <hb_acceptors>
5

> <hb_donors>
0

> <Collection>
Legacy

> <link>
https://www.enaminestore.com/catalog/Z225589626

> <ROCS_ShapeQuery>
x0446_0A_x1080_0A_x0929_0A_x0812_0A_x0719_0A_x1140_0A_x0528_0A_x0310_0A

> <ROCS_TanimotoCombo>
0.456 

> <ROCS_ShapeTanimoto>
0.297 

> <ROCS_ColorTanimoto>
0.160 

> <ROCS_RefTversky>
0.269 

> <ROCS_RefColorTversky>
0.178 

> <ROCS_RefTverskyCombo>
0.447 

> <ROCS_FitTversky>
1.522 

> <ROCS_FitColorTversky>
0.610 

> <ROCS_FitTverskyCombo>
2.133 

> <ROCS_ColorScore>
-6.361

> <ROCS_Overlap>
3188.740

> <ROCS_Rank>
397                 

$$$$
untitled-dbase-1035760_5
  -OEChem-02092406493D

 43 47  0     1  0  0  0  0  0999 V2000
    6.0054   13.5663   25.0321 C   0  0  0  0  0  0  0  0  0  0  0  0
    5.6749   12.3036   25.5208 C   0  0  0  0  0  0  0  0  0  0  0  0
    7.1093   13.7288   24.1923 C   0  0  0  0  0  0  0  0  0  0  0  0
    6.4431   11.1956   25.1663 C   0  0  0  0  0  0  0  0  0  0  0  0
    7.8913   12.6218   23.8461 C   0  0  0  0  0  0  0  0  0  0  0  0
    7.5480   11.3594   24.3247 C   0  0  0  0  0  0  0  0  0  0  0  0
    9.5309   14.0149   22.4532 C   0  0  0  0  0  0  0  0  0  0  0  0
   10.6693   15.8134   21.9677 C   0  0  0  0  0  0  0  0  0  0  0  0
    9.0748   12.7060   22.9622 C   0  0  0  0  0  0  0  0  0  0  0  0
    8.3528   10.1970   23.9165 C   0  0  0  0  0  0  0  0  0  0  0  0
   11.8038   16.7724   21.9244 C   0  0  0  0  0  0  0  0  0  0  0  0
   14.4921   15.9610   23.4634 C   0  0  0  0  0  0  0  0  0  0  0  0
   14.3424   16.6673   22.1120 C   0  0  0  0  0  0  0  0  0  0  0  0
   14.3970   14.4361   23.3507 C   0  0  0  0  0  0  0  0  0  0  0  0
   13.1641   14.6666   21.1868 C   0  0  0  0  0  0  0  0  0  0  0  0
   11.8693   14.1282   23.3796 C   0  0  0  0  0  0  0  0  0  0  0  0
   13.1079   16.1982   21.3176 C   0  0  1  0  0  0  0  0  0  0  0  0
   13.1671   13.9632   22.5536 C   0  0  2  0  0  0  0  0  0  0  0  0
    8.7634   14.7843   21.7135 N   0  0  0  0  0  0  0  0  0  0  0  0
    9.4830   15.9231   21.4055 N   0  0  0  0  0  0  0  0  0  0  0  0
    9.7621   11.6686   22.5944 N   0  0  0  0  0  0  0  0  0  0  0  0
   10.7314   14.6205   22.6380 N   0  0  0  0  0  0  0  0  0  0  0  0
    9.4000   10.4513   23.0583 N   0  0  0  0  0  0  0  0  0  0  0  0
    8.0781    9.0734   24.3275 O   0  0  0  0  0  0  0  0  0  0  0  0
    5.4022   14.4275   25.3051 H   0  0  0  0  0  0  0  0  0  0  0  0
    4.8152   12.1818   26.1732 H   0  0  0  0  0  0  0  0  0  0  0  0
    7.3394   14.7258   23.8280 H   0  0  0  0  0  0  0  0  0  0  0  0
    6.1632   10.2181   25.5490 H   0  0  0  0  0  0  0  0  0  0  0  0
   11.5005   17.6543   21.3659 H   0  0  0  0  0  0  0  0  0  0  0  0
   12.0189   17.0935   22.9417 H   0  0  0  0  0  0  0  0  0  0  0  0
   15.4610   16.2252   23.8967 H   0  0  0  0  0  0  0  0  0  0  0  0
   13.7499   16.3342   24.1682 H   0  0  0  0  0  0  0  0  0  0  0  0
   14.3181   17.7436   22.2564 H   0  0  0  0  0  0  0  0  0  0  0  0
   15.2280   16.4391   21.5199 H   0  0  0  0  0  0  0  0  0  0  0  0
   15.2894   14.0846   22.8332 H   0  0  0  0  0  0  0  0  0  0  0  0
   14.4023   13.9916   24.3425 H   0  0  0  0  0  0  0  0  0  0  0  0
   12.3383   14.3047   20.5723 H   0  0  0  0  0  0  0  0  0  0  0  0
   14.0850   14.4004   20.6611 H   0  0  0  0  0  0  0  0  0  0  0  0
   11.5737   13.1762   23.8122 H   0  0  0  0  0  0  0  0  0  0  0  0
   12.0725   14.8175   24.1939 H   0  0  0  0  0  0  0  0  0  0  0  0
   13.1990   16.6232   20.3333 H   0  0  0  0  0  0  0  0  0  0  0  0
   13.2928   12.9054   22.3875 H   0  0  0  0  0  0  0  0  0  0  0  0
    9.9861    9.6891   22.7326 H   0  0  0  0  0  0  0  0  0  0  0  0
  1  2  1  0  0  0  0
  1  3  2  0  0  0  0
  2  4  2  0  0  0  0
  3  5  1  0  0  0  0
  4  6  1  0  0  0  0
  5  6  2  0  0  0  0
  5  9  1  0  0  0  0
  6 10  1  0  0  0  0
  7  9  1  0  0  0  0
  7 19  2  0  0  0  0
  7 22  1  0  0  0  0
  8 11  1  0  0  0  0
  8 20  2  0  0  0  0
  8 22  1  0  0  0  0
  9 21  2  0  0  0  0
 10 23  1  0  0  0  0
 10 24  2  0  0  0  0
 11 17  1  0  0  0  0
 12 13  1  0  0  0  0
 12 14  1  0  0  0  0
 13 17  1  0  0  0  0
 14 18  1  0  0  0  0
 15 17  1  0  0  0  0
 15 18  1  0  0  0  0
 16 18  1  0  0  0  0
 16 22  1  0  0  0  0
 19 20  1  0  0  0  0
 21 23  1  0  0  0  0
  1 25  1  0  0  0  0
  2 26  1  0  0  0  0
  3 27  1  0  0  0  0
  4 28  1  0  0  0  0
 11 29  1  0  0  0  0
 11 30  1  0  0  0  0
 12 31  1  0  0  0  0
 12 32  1  0  0  0  0
 13 33  1  0  0  0  0
 13 34  1  0  0  0  0
 14 35  1  0  0  0  0
 14 36  1  0  0  0  0
 15 37  1  0  0  0  0
 15 38  1  0  0  0  0
 16 39  1  0  0  0  0
 16 40  1  0  0  0  0
 17 41  1  0  0  0  0
 18 42  1  0  0  0  0
 23 43  1  0  0  0  0
M  END
> <idnumber>
Z3492794447

> <heavy_atoms>
24

> <LogS>
-4.812

> <LogP>
1.52

> <rotating_bonds>
1

> <PSA>
72.17

> <hb_acceptors>
4

> <hb_donors>
1

> <Collection>
Advanced

> <link>
https://www.enaminestore.com/catalog/Z3492794447

> <ROCS_ShapeQuery>
x0446_0A_x1080_0A_x0929_0A_x0812_0A_x0719_0A_x1140_0A_x0528_0A_x0310_0A

> <ROCS_TanimotoCombo>
0.456 

> <ROCS_ShapeTanimoto>
0.255 

> <ROCS_ColorTanimoto>
0.201 

> <ROCS_RefTversky>
0.232 

> <ROCS_RefColorTversky>
0.223 

> <ROCS_RefTverskyCombo>
0.455 

> <ROCS_FitTversky>
1.620 

> <ROCS_FitColorTversky>
0.675 

> <ROCS_FitTverskyCombo>
2.295 

> <ROCS_ColorScore>
-8.000

> <ROCS_Overlap>
2744.923

> <ROCS_Rank>
398                 

$$$$
untitled-dbase-329174_14
  -OEChem-02092406493D

 39 42  0     0  0  0  0  0  0999 V2000
   12.4278   15.2440   21.4591 C   0  0  0  0  0  0  0  0  0  0  0  0
   13.5052   14.7298   22.1804 C   0  0  0  0  0  0  0  0  0  0  0  0
   11.9786   13.8498   23.8334 C   0  0  0  0  0  0  0  0  0  0  0  0
    9.6902   10.6333   23.5530 C   0  0  0  0  0  0  0  0  0  0  0  0
    7.9274   12.5312   24.2256 C   0  0  0  0  0  0  0  0  0  0  0  0
    6.7928   13.3125   24.6572 C   0  0  0  0  0  0  0  0  0  0  0  0
   11.1258   15.0612   21.9249 C   0  0  0  0  0  0  0  0  0  0  0  0
   10.9012   14.3641   23.1120 C   0  0  0  0  0  0  0  0  0  0  0  0
   13.2806   14.0327   23.3676 C   0  0  0  0  0  0  0  0  0  0  0  0
    5.7402   12.5027   25.0523 C   0  0  0  0  0  0  0  0  0  0  0  0
    9.1996   12.8728   23.7468 C   0  0  0  0  0  0  0  0  0  0  0  0
    7.6650   11.1712   24.3194 C   0  0  0  0  0  0  0  0  0  0  0  0
    6.7364   14.8133   24.6837 C   0  0  0  0  0  0  0  0  0  0  0  0
    4.4002   12.9369   25.5641 C   0  0  0  0  0  0  0  0  0  0  0  0
    6.4484   15.3798   26.0751 C   0  0  0  0  0  0  0  0  0  0  0  0
    4.5161   13.8236   26.8050 C   0  0  0  0  0  0  0  0  0  0  0  0
    4.9872   15.2515   26.5150 C   0  0  0  0  0  0  0  0  0  0  0  0
   10.0853   11.9116   23.4088 N   0  0  0  0  0  0  0  0  0  0  0  0
    8.5092   10.1720   23.9969 N   0  0  0  0  0  0  0  0  0  0  0  0
   10.0394   15.5913   21.1759 N   0  3  0  0  0  0  0  0  0  0  0  0
   10.2813   16.2123   20.1139 O   0  5  0  0  0  0  0  0  0  0  0  0
    8.8715   15.4223   21.5998 O   0  0  0  0  0  0  0  0  0  0  0  0
    9.6230   14.1695   23.5929 O   0  0  0  0  0  0  0  0  0  0  0  0
   14.3152   13.5380   24.0599 F   0  0  0  0  0  0  0  0  0  0  0  0
    6.1062   10.8406   24.9058 S   0  0  0  0  0  0  0  0  0  0  0  0
   12.6174   15.7856   20.5358 H   0  0  0  0  0  0  0  0  0  0  0  0
   14.5190   14.8716   21.8182 H   0  0  0  0  0  0  0  0  0  0  0  0
   11.8116   13.3051   24.7586 H   0  0  0  0  0  0  0  0  0  0  0  0
   10.4187    9.8798   23.2754 H   0  0  0  0  0  0  0  0  0  0  0  0
    7.6770   15.2476   24.3394 H   0  0  0  0  0  0  0  0  0  0  0  0
    5.9733   15.1551   23.9729 H   0  0  0  0  0  0  0  0  0  0  0  0
    3.8590   13.4641   24.7688 H   0  0  0  0  0  0  0  0  0  0  0  0
    3.7908   12.0621   25.8242 H   0  0  0  0  0  0  0  0  0  0  0  0
    7.1065   14.9203   26.8230 H   0  0  0  0  0  0  0  0  0  0  0  0
    6.6920   16.4499   26.0589 H   0  0  0  0  0  0  0  0  0  0  0  0
    3.5209   13.8921   27.2624 H   0  0  0  0  0  0  0  0  0  0  0  0
    5.1725   13.3591   27.5517 H   0  0  0  0  0  0  0  0  0  0  0  0
    4.8633   15.8371   27.4348 H   0  0  0  0  0  0  0  0  0  0  0  0
    4.3318   15.7139   25.7668 H   0  0  0  0  0  0  0  0  0  0  0  0
  1  2  2  0  0  0  0
  1  7  1  0  0  0  0
  2  9  1  0  0  0  0
  3  8  1  0  0  0  0
  3  9  2  0  0  0  0
  4 18  2  0  0  0  0
  4 19  1  0  0  0  0
  5  6  1  0  0  0  0
  5 11  2  0  0  0  0
  5 12  1  0  0  0  0
  6 10  2  0  0  0  0
  6 13  1  0  0  0  0
  7  8  2  0  0  0  0
  7 20  1  0  0  0  0
  8 23  1  0  0  0  0
  9 24  1  0  0  0  0
 10 14  1  0  0  0  0
 10 25  1  0  0  0  0
 11 18  1  0  0  0  0
 11 23  1  0  0  0  0
 12 19  2  0  0  0  0
 12 25  1  0  0  0  0
 13 15  1  0  0  0  0
 14 16  1  0  0  0  0
 15 17  1  0  0  0  0
 16 17  1  0  0  0  0
 20 21  1  0  0  0  0
 20 22  2  0  0  0  0
  1 26  1  0  0  0  0
  2 27  1  0  0  0  0
  3 28  1  0  0  0  0
  4 29  1  0  0  0  0
 13 30  1  0  0  0  0
 13 31  1  0  0  0  0
 14 32  1  0  0  0  0
 14 33  1  0  0  0  0
 15 34  1  0  0  0  0
 15 35  1  0  0  0  0
 16 36  1  0  0  0  0
 16 37  1  0  0  0  0
 17 38  1  0  0  0  0
 17 39  1  0  0  0  0
M  CHG  2  20   1  21  -1
M  END
> <idnumber>
Z31266433

> <heavy_atoms>
25

> <LogS>
-7.52

> <LogP>
4.721

> <rotating_bonds>
3

> <PSA>
78.15

> <hb_acceptors>
4

> <hb_donors>
0

> <Collection>
HTS

> <link>
https://www.enaminestore.com/catalog/Z31266433

> <ROCS_ShapeQuery>
x0446_0A_x1080_0A_x0929_0A_x0812_0A_x0719_0A_x1140_0A_x0528_0A_x0310_0A

> <ROCS_TanimotoCombo>
0.456 

> <ROCS_ShapeTanimoto>
0.256 

> <ROCS_ColorTanimoto>
0.200 

> <ROCS_RefTversky>
0.234 

> <ROCS_RefColorTversky>
0.215 

> <ROCS_RefTverskyCombo>
0.449 

> <ROCS_FitTversky>
1.613 

> <ROCS_FitColorTversky>
0.737 

> <ROCS_FitTverskyCombo>
2.351 

> <ROCS_ColorScore>
-7.710

> <ROCS_Overlap>
2760.348

> <ROCS_Rank>
399                 

$$$$
untitled-dbase-412226_9
  -OEChem-02092406493D

 41 44  0     0  0  0  0  0  0999 V2000
   13.3246   15.8529   22.2147 C   0  0  0  0  0  0  0  0  0  0  0  0
   12.6487   16.3578   21.1039 C   0  0  0  0  0  0  0  0  0  0  0  0
   12.6449   15.0708   23.1486 C   0  0  0  0  0  0  0  0  0  0  0  0
   11.2931   16.0808   20.9270 C   0  0  0  0  0  0  0  0  0  0  0  0
   11.7651   10.7476   23.1438 C   0  0  0  0  0  0  0  0  0  0  0  0
    9.4556   11.8918   23.8495 C   0  0  0  0  0  0  0  0  0  0  0  0
    8.1044   12.2137   24.2114 C   0  0  0  0  0  0  0  0  0  0  0  0
   11.2893   14.7938   22.9717 C   0  0  0  0  0  0  0  0  0  0  0  0
   10.6134   15.2988   21.8609 C   0  0  0  0  0  0  0  0  0  0  0  0
    7.3018   11.0880   24.2433 C   0  0  0  0  0  0  0  0  0  0  0  0
   10.6140   12.6626   23.6958 C   0  0  0  0  0  0  0  0  0  0  0  0
    9.5957   10.5287   23.6165 C   0  0  0  0  0  0  0  0  0  0  0  0
    7.5718   13.5740   24.5542 C   0  0  0  0  0  0  0  0  0  0  0  0
    5.8396   11.0800   24.5639 C   0  0  0  0  0  0  0  0  0  0  0  0
    6.0361   13.6130   24.5274 C   0  0  0  0  0  0  0  0  0  0  0  0
    5.4269   12.3969   25.2385 C   0  0  0  0  0  0  0  0  0  0  0  0
    7.4251   14.1381   20.4733 C   0  0  0  0  0  0  0  0  0  0  0  0
    8.9245   14.3462   20.4840 C   0  0  0  0  0  0  0  0  0  0  0  0
   11.7784   12.0801   23.3388 N   0  0  0  0  0  0  0  0  0  0  0  0
   10.7305    9.8968   23.2586 N   0  0  0  0  0  0  0  0  0  0  0  0
   10.6285   14.0204   23.9028 O   0  0  0  0  0  0  0  0  0  0  0  0
    9.2893   15.0363   21.6777 O   0  0  0  0  0  0  0  0  0  0  0  0
    8.1417    9.6677   23.8320 S   0  0  0  0  0  0  0  0  0  0  0  0
   14.3804   16.0685   22.3523 H   0  0  0  0  0  0  0  0  0  0  0  0
   13.1778   16.9667   20.3770 H   0  0  0  0  0  0  0  0  0  0  0  0
   13.1773   14.6803   24.0117 H   0  0  0  0  0  0  0  0  0  0  0  0
   10.7723   16.4787   20.0604 H   0  0  0  0  0  0  0  0  0  0  0  0
   12.7123   10.3038   22.8580 H   0  0  0  0  0  0  0  0  0  0  0  0
    7.9246   13.8439   25.5574 H   0  0  0  0  0  0  0  0  0  0  0  0
    7.9562   14.3253   23.8558 H   0  0  0  0  0  0  0  0  0  0  0  0
    5.2732   10.9574   23.6321 H   0  0  0  0  0  0  0  0  0  0  0  0
    5.5840   10.2401   25.2199 H   0  0  0  0  0  0  0  0  0  0  0  0
    5.6861   14.5377   24.9997 H   0  0  0  0  0  0  0  0  0  0  0  0
    5.6869   13.6323   23.4868 H   0  0  0  0  0  0  0  0  0  0  0  0
    4.3341   12.4757   25.2464 H   0  0  0  0  0  0  0  0  0  0  0  0
    5.7559   12.3925   26.2856 H   0  0  0  0  0  0  0  0  0  0  0  0
    7.1080   13.5406   21.3326 H   0  0  0  0  0  0  0  0  0  0  0  0
    6.9018   15.0995   20.4988 H   0  0  0  0  0  0  0  0  0  0  0  0
    7.1126   13.6298   19.5551 H   0  0  0  0  0  0  0  0  0  0  0  0
    9.2351   14.9444   19.6221 H   0  0  0  0  0  0  0  0  0  0  0  0
    9.4459   13.3846   20.4594 H   0  0  0  0  0  0  0  0  0  0  0  0
  1  2  1  0  0  0  0
  1  3  2  0  0  0  0
  2  4  2  0  0  0  0
  3  8  1  0  0  0  0
  4  9  1  0  0  0  0
  5 19  2  0  0  0  0
  5 20  1  0  0  0  0
  6  7  1  0  0  0  0
  6 11  2  0  0  0  0
  6 12  1  0  0  0  0
  7 10  2  0  0  0  0
  7 13  1  0  0  0  0
  8  9  2  0  0  0  0
  8 21  1  0  0  0  0
  9 22  1  0  0  0  0
 10 14  1  0  0  0  0
 10 23  1  0  0  0  0
 11 19  1  0  0  0  0
 11 21  1  0  0  0  0
 12 20  2  0  0  0  0
 12 23  1  0  0  0  0
 13 15  1  0  0  0  0
 14 16  1  0  0  0  0
 15 16  1  0  0  0  0
 17 18  1  0  0  0  0
 18 22  1  0  0  0  0
  1 24  1  0  0  0  0
  2 25  1  0  0  0  0
  3 26  1  0  0  0  0
  4 27  1  0  0  0  0
  5 28  1  0  0  0  0
 13 29  1  0  0  0  0
 13 30  1  0  0  0  0
 14 31  1  0  0  0  0
 14 32  1  0  0  0  0
 15 33  1  0  0  0  0
 15 34  1  0  0  0  0
 16 35  1  0  0  0  0
 16 36  1  0  0  0  0
 17 37  1  0  0  0  0
 17 38  1  0  0  0  0
 17 39  1  0  0  0  0
 18 40  1  0  0  0  0
 18 41  1  0  0  0  0
M  END
> <idnumber>
Z52587524

> <heavy_atoms>
23

> <LogS>
-6.4

> <LogP>
4.654

> <rotating_bonds>
4

> <PSA>
44.24

> <hb_acceptors>
3

> <hb_donors>
0

> <Collection>
Legacy

> <link>
https://www.enaminestore.com/catalog/Z52587524

> <ROCS_ShapeQuery>
x0446_0A_x1080_0A_x0929_0A_x0812_0A_x0719_0A_x1140_0A_x0528_0A_x0310_0A

> <ROCS_TanimotoCombo>
0.456 

> <ROCS_ShapeTanimoto>
0.265 

> <ROCS_ColorTanimoto>
0.191 

> <ROCS_RefTversky>
0.238 

> <ROCS_RefColorTversky>
0.203 

> <ROCS_RefTverskyCombo>
0.441 

> <ROCS_FitTversky>
1.743 

> <ROCS_FitColorTversky>
0.764 

> <ROCS_FitTverskyCombo>
2.507 

> <ROCS_ColorScore>
-7.253

> <ROCS_Overlap>
2816.508

> <ROCS_Rank>
400                 

$$$$
untitled-dbase-1138250_94
  -OEChem-02092406493D

 50 54  0     1  0  0  0  0  0999 V2000
   10.9319   14.2965   21.7820 C   0  0  0  0  0  0  0  0  0  0  0  0
   10.9190   16.4789   21.6374 C   0  0  0  0  0  0  0  0  0  0  0  0
   13.7353   14.1429   21.9145 C   0  0  0  0  0  0  0  0  0  0  0  0
   12.9055   12.9451   21.9571 C   0  0  0  0  0  0  0  0  0  0  0  0
   13.1461   15.3457   21.8095 C   0  0  0  0  0  0  0  0  0  0  0  0
   11.5610   13.0254   21.8930 C   0  0  0  0  0  0  0  0  0  0  0  0
    5.9913   14.3938   23.6867 C   0  0  0  0  0  0  0  0  0  0  0  0
    6.0216   15.6595   23.2405 C   0  0  0  0  0  0  0  0  0  0  0  0
    4.2148   14.6339   22.2945 C   0  0  0  0  0  0  0  0  0  0  0  0
   10.7729   11.7786   21.9410 C   0  0  0  0  0  0  0  0  0  0  0  0
    6.9189   13.7214   24.6168 C   0  0  0  0  0  0  0  0  0  0  0  0
    8.4083   10.4567   24.3141 C   0  0  0  0  0  0  0  0  0  0  0  0
    9.9644   12.2362   24.3354 C   0  0  0  0  0  0  0  0  0  0  0  0
    7.4891   12.0106   22.7880 C   0  0  0  0  0  0  0  0  0  0  0  0
    8.5813   11.8634   24.8982 C   0  0  1  0  0  0  0  0  0  0  0  0
    8.5976   10.9465   22.8739 C   0  0  1  0  0  0  0  0  0  0  0  0
    6.9560   16.7770   23.5131 C   0  0  0  0  0  0  0  0  0  0  0  0
   11.8128   18.4338   22.9282 C   0  0  0  0  0  0  0  0  0  0  0  0
   11.3834   17.8775   21.5662 C   0  0  0  0  0  0  0  0  0  0  0  0
    9.6778   14.6900   21.7012 N   0  0  0  0  0  0  0  0  0  0  0  0
    9.6712   16.0674   21.6099 N   0  0  0  0  0  0  0  0  0  0  0  0
   11.7599   15.4085   21.7449 N   0  0  0  0  0  0  0  0  0  0  0  0
    4.9163   13.7373   23.1409 N   0  0  0  0  0  0  0  0  0  0  0  0
    4.9529   15.8431   22.3885 N   0  0  0  0  0  0  0  0  0  0  0  0
    9.8807   11.6624   22.9823 N   0  0  0  0  0  0  0  0  0  0  0  0
    7.5791   12.6183   24.1259 N   0  0  0  0  0  0  0  0  0  0  0  0
    3.2092   14.4166   21.6375 O   0  0  0  0  0  0  0  0  0  0  0  0
   10.9500   10.9273   21.0709 O   0  0  0  0  0  0  0  0  0  0  0  0
    7.0506   14.1685   25.7551 O   0  0  0  0  0  0  0  0  0  0  0  0
   14.8120   14.0363   21.9680 H   0  0  0  0  0  0  0  0  0  0  0  0
   13.4232   11.9950   22.0429 H   0  0  0  0  0  0  0  0  0  0  0  0
   13.7081   16.2706   21.7731 H   0  0  0  0  0  0  0  0  0  0  0  0
    9.1829    9.7521   24.6352 H   0  0  0  0  0  0  0  0  0  0  0  0
    7.4179   10.0289   24.5039 H   0  0  0  0  0  0  0  0  0  0  0  0
   10.1430   13.3147   24.2909 H   0  0  0  0  0  0  0  0  0  0  0  0
   10.7795   11.7417   24.8739 H   0  0  0  0  0  0  0  0  0  0  0  0
    7.6591   12.7588   22.0079 H   0  0  0  0  0  0  0  0  0  0  0  0
    6.4949   11.5665   22.6736 H   0  0  0  0  0  0  0  0  0  0  0  0
    8.4750   11.9696   25.9790 H   0  0  0  0  0  0  0  0  0  0  0  0
    8.5802   10.1920   22.0858 H   0  0  0  0  0  0  0  0  0  0  0  0
    7.7777   16.7710   22.7912 H   0  0  0  0  0  0  0  0  0  0  0  0
    7.3738   16.6877   24.5203 H   0  0  0  0  0  0  0  0  0  0  0  0
    6.4341   17.7359   23.4424 H   0  0  0  0  0  0  0  0  0  0  0  0
   10.9982   18.3502   23.6556 H   0  0  0  0  0  0  0  0  0  0  0  0
   12.0954   19.4887   22.8554 H   0  0  0  0  0  0  0  0  0  0  0  0
   12.6718   17.8788   23.3204 H   0  0  0  0  0  0  0  0  0  0  0  0
   12.2335   17.9815   20.8639 H   0  0  0  0  0  0  0  0  0  0  0  0
   10.5978   18.5393   21.1518 H   0  0  0  0  0  0  0  0  0  0  0  0
    4.6653   12.7716   23.3141 H   0  0  0  0  0  0  0  0  0  0  0  0
    4.7296   16.7050   21.9058 H   0  0  0  0  0  0  0  0  0  0  0  0
  1  6  1  0  0  0  0
  1 20  2  0  0  0  0
  1 22  1  0  0  0  0
  2 19  1  0  0  0  0
  2 21  2  0  0  0  0
  2 22  1  0  0  0  0
  3  4  1  0  0  0  0
  3  5  2  0  0  0  0
  4  6  2  0  0  0  0
  5 22  1  0  0  0  0
  6 10  1  0  0  0  0
  7  8  2  0  0  0  0
  7 11  1  0  0  0  0
  7 23  1  0  0  0  0
  8 17  1  0  0  0  0
  8 24  1  0  0  0  0
  9 23  1  0  0  0  0
  9 24  1  0  0  0  0
  9 27  2  0  0  0  0
 10 25  1  0  0  0  0
 10 28  2  0  0  0  0
 11 26  1  0  0  0  0
 11 29  2  0  0  0  0
 12 15  1  1  0  0  0
 12 16  1  1  0  0  0
 13 15  1  0  0  0  0
 13 25  1  0  0  0  0
 14 16  1  0  0  0  0
 14 26  1  0  0  0  0
 15 26  1  0  0  0  0
 16 25  1  0  0  0  0
 18 19  1  0  0  0  0
 20 21  1  0  0  0  0
  3 30  1  0  0  0  0
  4 31  1  0  0  0  0
  5 32  1  0  0  0  0
 12 33  1  0  0  0  0
 12 34  1  0  0  0  0
 13 35  1  0  0  0  0
 13 36  1  0  0  0  0
 14 37  1  0  0  0  0
 14 38  1  0  0  0  0
 15 39  1  0  0  0  0
 16 40  1  0  0  0  0
 17 41  1  0  0  0  0
 17 42  1  0  0  0  0
 17 43  1  0  0  0  0
 18 44  1  0  0  0  0
 18 45  1  0  0  0  0
 18 46  1  0  0  0  0
 19 47  1  0  0  0  0
 19 48  1  0  0  0  0
 23 49  1  0  0  0  0
 24 50  1  0  0  0  0
M  END
> <idnumber>
Z6326728710

> <heavy_atoms>
29

> <LogS>
-4.204

> <LogP>
0.065

> <rotating_bonds>
3

> <PSA>
111.94

> <hb_acceptors>
5

> <hb_donors>
2

> <Collection>
Advanced

> <link>
https://www.enaminestore.com/catalog/Z6326728710

> <ROCS_ShapeQuery>
x0446_0A_x1080_0A_x0929_0A_x0812_0A_x0719_0A_x1140_0A_x0528_0A_x0310_0A

> <ROCS_TanimotoCombo>
0.456 

> <ROCS_ShapeTanimoto>
0.258 

> <ROCS_ColorTanimoto>
0.198 

> <ROCS_RefTversky>
0.238 

> <ROCS_RefColorTversky>
0.255 

> <ROCS_RefTverskyCombo>
0.494 

> <ROCS_FitTversky>
1.463 

> <ROCS_FitColorTversky>
0.471 

> <ROCS_FitTverskyCombo>
1.934 

> <ROCS_ColorScore>
-9.261

> <ROCS_Overlap>
2821.516

> <ROCS_Rank>
401                 

$$$$
untitled-dbase-719552_1
  -OEChem-02092406493D

 40 43  0     1  0  0  0  0  0999 V2000
   12.9876   14.8973   22.3896 C   0  0  0  0  0  0  0  0  0  0  0  0
   11.7995   15.1228   21.6542 C   0  0  0  0  0  0  0  0  0  0  0  0
   12.5943   14.3774   23.6008 C   0  0  0  0  0  0  0  0  0  0  0  0
   10.7649   14.7244   22.4683 C   0  0  0  0  0  0  0  0  0  0  0  0
    9.3100   14.7172   22.2628 C   0  0  0  0  0  0  0  0  0  0  0  0
    9.3667    9.9406   24.8445 C   0  0  0  0  0  0  0  0  0  0  0  0
    8.1431   10.7847   25.2498 C   0  0  0  0  0  0  0  0  0  0  0  0
   10.1582   11.7315   23.2938 C   0  0  0  0  0  0  0  0  0  0  0  0
    6.5368   12.3245   23.9409 C   0  0  0  0  0  0  0  0  0  0  0  0
    9.5626   10.3017   23.3514 C   0  0  2  0  0  0  0  0  0  0  0  0
    9.0151   12.6080   23.8350 C   0  0  2  0  0  0  0  0  0  0  0  0
    7.8500   11.5772   23.9512 C   0  0  1  0  0  0  0  0  0  0  0  0
    8.1203   10.5143   22.8380 C   0  0  0  0  0  0  0  0  0  0  0  0
    8.0566   10.9748   21.3703 C   0  0  0  0  0  0  0  0  0  0  0  0
    7.2338    9.2510   22.9092 C   0  0  0  0  0  0  0  0  0  0  0  0
    8.5420   13.7026   22.9380 N   0  0  0  0  0  0  0  0  0  0  0  0
    8.8140   15.5765   21.5425 O   0  0  0  0  0  0  0  0  0  0  0  0
    6.4058   14.9478   23.7752 O   0  0  0  0  0  0  0  0  0  0  0  0
    6.2709   13.6058   21.6355 O   0  0  0  0  0  0  0  0  0  0  0  0
   11.2409   14.2687   23.6567 O   0  0  0  0  0  0  0  0  0  0  0  0
    6.7929   13.8053   22.9714 S   0  0  0  0  0  0  0  0  0  0  0  0
   14.0034   15.0903   22.0763 H   0  0  0  0  0  0  0  0  0  0  0  0
   11.7127   15.5259   20.6552 H   0  0  0  0  0  0  0  0  0  0  0  0
   13.1262   14.0517   24.4827 H   0  0  0  0  0  0  0  0  0  0  0  0
   10.2456   10.1856   25.4505 H   0  0  0  0  0  0  0  0  0  0  0  0
    9.1638    8.8726   24.9766 H   0  0  0  0  0  0  0  0  0  0  0  0
    7.3007   10.1526   25.5487 H   0  0  0  0  0  0  0  0  0  0  0  0
    8.3724   11.4357   26.1007 H   0  0  0  0  0  0  0  0  0  0  0  0
   11.0528   11.8169   23.9235 H   0  0  0  0  0  0  0  0  0  0  0  0
   10.4577   11.9977   22.2734 H   0  0  0  0  0  0  0  0  0  0  0  0
    5.7183   11.7496   23.5036 H   0  0  0  0  0  0  0  0  0  0  0  0
    6.2572   12.6491   24.9478 H   0  0  0  0  0  0  0  0  0  0  0  0
   10.1583    9.5661   22.8036 H   0  0  0  0  0  0  0  0  0  0  0  0
    9.2733   13.0509   24.8102 H   0  0  0  0  0  0  0  0  0  0  0  0
    7.0191   11.1029   21.0809 H   0  0  0  0  0  0  0  0  0  0  0  0
    8.5224   10.2247   20.7402 H   0  0  0  0  0  0  0  0  0  0  0  0
    8.5840   11.9173   21.2686 H   0  0  0  0  0  0  0  0  0  0  0  0
    6.2477    9.4918   22.5317 H   0  0  0  0  0  0  0  0  0  0  0  0
    7.1664    8.9265   23.9401 H   0  0  0  0  0  0  0  0  0  0  0  0
    7.6819    8.4725   22.3043 H   0  0  0  0  0  0  0  0  0  0  0  0
  1  2  1  0  0  0  0
  1  3  2  0  0  0  0
  2  4  2  0  0  0  0
  3 20  1  0  0  0  0
  4  5  1  0  0  0  0
  4 20  1  0  0  0  0
  5 16  1  0  0  0  0
  5 17  2  0  0  0  0
  6  7  1  0  0  0  0
  6 10  1  6  0  0  0
  7 12  1  6  0  0  0
  8 10  1  0  0  0  0
  8 11  1  0  0  0  0
  9 12  1  0  0  0  0
  9 21  1  0  0  0  0
 10 13  1  0  0  0  0
 11 12  1  0  0  0  0
 11 16  1  1  0  0  0
 12 13  1  0  0  0  0
 13 14  1  0  0  0  0
 13 15  1  0  0  0  0
 16 21  1  0  0  0  0
 18 21  2  0  0  0  0
 19 21  2  0  0  0  0
  1 22  1  0  0  0  0
  2 23  1  0  0  0  0
  3 24  1  0  0  0  0
  6 25  1  0  0  0  0
  6 26  1  0  0  0  0
  7 27  1  0  0  0  0
  7 28  1  0  0  0  0
  8 29  1  0  0  0  0
  8 30  1  0  0  0  0
  9 31  1  0  0  0  0
  9 32  1  0  0  0  0
 10 33  1  0  0  0  0
 11 34  1  0  0  0  0
 14 35  1  0  0  0  0
 14 36  1  0  0  0  0
 14 37  1  0  0  0  0
 15 38  1  0  0  0  0
 15 39  1  0  0  0  0
 15 40  1  0  0  0  0
M  END
> <idnumber>
Z1629977774

> <heavy_atoms>
21

> <LogS>
-3.569

> <LogP>
2.273

> <rotating_bonds>
1

> <PSA>
67.59

> <hb_acceptors>
3

> <hb_donors>
0

> <Collection>
Legacy

> <link>
https://www.enaminestore.com/catalog/Z1629977774

> <ROCS_ShapeQuery>
x0446_0A_x1080_0A_x0929_0A_x0812_0A_x0719_0A_x1140_0A_x0528_0A_x0310_0A

> <ROCS_TanimotoCombo>
0.456 

> <ROCS_ShapeTanimoto>
0.256 

> <ROCS_ColorTanimoto>
0.200 

> <ROCS_RefTversky>
0.230 

> <ROCS_RefColorTversky>
0.234 

> <ROCS_RefTverskyCombo>
0.465 

> <ROCS_FitTversky>
1.783 

> <ROCS_FitColorTversky>
0.579 

> <ROCS_FitTverskyCombo>
2.361 

> <ROCS_ColorScore>
-8.439

> <ROCS_Overlap>
2718.903

> <ROCS_Rank>
402                 

$$$$
untitled-dbase-917626_2
  -OEChem-02092406493D

 46 49  0     0  0  0  0  0  0999 V2000
    6.1552   13.5102   24.9444 C   0  0  0  0  0  0  0  0  0  0  0  0
    5.8503   12.2280   25.3954 C   0  0  0  0  0  0  0  0  0  0  0  0
    7.2363   13.7128   24.0848 C   0  0  0  0  0  0  0  0  0  0  0  0
    6.6214   11.1425   24.9824 C   0  0  0  0  0  0  0  0  0  0  0  0
    8.0207   12.6267   23.6806 C   0  0  0  0  0  0  0  0  0  0  0  0
    7.7051   11.3451   24.1197 C   0  0  0  0  0  0  0  0  0  0  0  0
    9.6118   14.0871   22.3059 C   0  0  0  0  0  0  0  0  0  0  0  0
   10.7361   15.9069   21.8760 C   0  0  0  0  0  0  0  0  0  0  0  0
    9.1783   12.7559   22.7754 C   0  0  0  0  0  0  0  0  0  0  0  0
    8.5095   10.2016   23.6538 C   0  0  0  0  0  0  0  0  0  0  0  0
   11.8548   16.8839   21.8437 C   0  0  0  0  0  0  0  0  0  0  0  0
   11.9603   14.1567   23.1993 C   0  0  0  0  0  0  0  0  0  0  0  0
   13.1300   16.2782   21.2646 C   0  0  0  0  0  0  0  0  0  0  0  0
   13.2183   14.1338   22.3389 C   0  0  0  0  0  0  0  0  0  0  0  0
   13.6595    9.8878   24.2817 C   0  0  0  0  0  0  0  0  0  0  0  0
   12.1718    9.7103   24.0210 C   0  0  0  0  0  0  0  0  0  0  0  0
   11.8681    9.6718   22.5215 C   0  0  0  0  0  0  0  0  0  0  0  0
   10.3903    9.4345   22.2289 C   0  0  0  0  0  0  0  0  0  0  0  0
    8.8274   14.8827   21.6145 N   0  0  0  0  0  0  0  0  0  0  0  0
    9.5376   16.0347   21.3422 N   0  0  0  0  0  0  0  0  0  0  0  0
    9.8659   11.7422   22.3518 N   0  0  0  0  0  0  0  0  0  0  0  0
   10.8153   14.6894   22.4937 N   0  0  0  0  0  0  0  0  0  0  0  0
    9.5426   10.4853   22.7676 N   0  0  0  0  0  0  0  0  0  0  0  0
    8.2290    9.0749   24.0577 O   0  0  0  0  0  0  0  0  0  0  0  0
   13.7957   15.4328   22.2038 O   0  0  0  0  0  0  0  0  0  0  0  0
    5.5504   14.3545   25.2627 H   0  0  0  0  0  0  0  0  0  0  0  0
    5.0086   12.0733   26.0642 H   0  0  0  0  0  0  0  0  0  0  0  0
    7.4480   14.7245   23.7508 H   0  0  0  0  0  0  0  0  0  0  0  0
    6.3593   10.1498   25.3383 H   0  0  0  0  0  0  0  0  0  0  0  0
   11.5528   17.7374   21.2257 H   0  0  0  0  0  0  0  0  0  0  0  0
   12.0363   17.2558   22.8589 H   0  0  0  0  0  0  0  0  0  0  0  0
   11.7199   13.1390   23.5226 H   0  0  0  0  0  0  0  0  0  0  0  0
   12.0989   14.7811   24.0890 H   0  0  0  0  0  0  0  0  0  0  0  0
   12.9528   15.7433   20.3236 H   0  0  0  0  0  0  0  0  0  0  0  0
   13.8283   17.0932   21.0449 H   0  0  0  0  0  0  0  0  0  0  0  0
   13.9709   13.5197   22.8449 H   0  0  0  0  0  0  0  0  0  0  0  0
   13.0438   13.6862   21.3531 H   0  0  0  0  0  0  0  0  0  0  0  0
   14.0309   10.8095   23.8224 H   0  0  0  0  0  0  0  0  0  0  0  0
   13.8516    9.9430   25.3578 H   0  0  0  0  0  0  0  0  0  0  0  0
   14.2321    9.0470   23.8773 H   0  0  0  0  0  0  0  0  0  0  0  0
   11.8331    8.7807   24.4930 H   0  0  0  0  0  0  0  0  0  0  0  0
   11.6277   10.5337   24.4971 H   0  0  0  0  0  0  0  0  0  0  0  0
   12.1922   10.6112   22.0567 H   0  0  0  0  0  0  0  0  0  0  0  0
   12.4490    8.8650   22.0583 H   0  0  0  0  0  0  0  0  0  0  0  0
   10.0504    8.4818   22.6468 H   0  0  0  0  0  0  0  0  0  0  0  0
   10.2222    9.4115   21.1475 H   0  0  0  0  0  0  0  0  0  0  0  0
  1  2  1  0  0  0  0
  1  3  2  0  0  0  0
  2  4  2  0  0  0  0
  3  5  1  0  0  0  0
  4  6  1  0  0  0  0
  5  6  2  0  0  0  0
  5  9  1  0  0  0  0
  6 10  1  0  0  0  0
  7  9  1  0  0  0  0
  7 19  2  0  0  0  0
  7 22  1  0  0  0  0
  8 11  1  0  0  0  0
  8 20  2  0  0  0  0
  8 22  1  0  0  0  0
  9 21  2  0  0  0  0
 10 23  1  0  0  0  0
 10 24  2  0  0  0  0
 11 13  1  0  0  0  0
 12 14  1  0  0  0  0
 12 22  1  0  0  0  0
 13 25  1  0  0  0  0
 14 25  1  0  0  0  0
 15 16  1  0  0  0  0
 16 17  1  0  0  0  0
 17 18  1  0  0  0  0
 18 23  1  0  0  0  0
 19 20  1  0  0  0  0
 21 23  1  0  0  0  0
  1 26  1  0  0  0  0
  2 27  1  0  0  0  0
  3 28  1  0  0  0  0
  4 29  1  0  0  0  0
 11 30  1  0  0  0  0
 11 31  1  0  0  0  0
 12 32  1  0  0  0  0
 12 33  1  0  0  0  0
 13 34  1  0  0  0  0
 13 35  1  0  0  0  0
 14 36  1  0  0  0  0
 14 37  1  0  0  0  0
 15 38  1  0  0  0  0
 15 39  1  0  0  0  0
 15 40  1  0  0  0  0
 16 41  1  0  0  0  0
 16 42  1  0  0  0  0
 17 43  1  0  0  0  0
 17 44  1  0  0  0  0
 18 45  1  0  0  0  0
 18 46  1  0  0  0  0
M  END
> <idnumber>
Z2523776001

> <heavy_atoms>
25

> <LogS>
-3.642

> <LogP>
0.874

> <rotating_bonds>
4

> <PSA>
72.61

> <hb_acceptors>
5

> <hb_donors>
0

> <Collection>
Advanced

> <link>
https://www.enaminestore.com/catalog/Z2523776001

> <ROCS_ShapeQuery>
x0446_0A_x1080_0A_x0929_0A_x0812_0A_x0719_0A_x1140_0A_x0528_0A_x0310_0A

> <ROCS_TanimotoCombo>
0.456 

> <ROCS_ShapeTanimoto>
0.276 

> <ROCS_ColorTanimoto>
0.180 

> <ROCS_RefTversky>
0.248 

> <ROCS_RefColorTversky>
0.202 

> <ROCS_RefTverskyCombo>
0.450 

> <ROCS_FitTversky>
1.705 

> <ROCS_FitColorTversky>
0.623 

> <ROCS_FitTverskyCombo>
2.327 

> <ROCS_ColorScore>
-7.257

> <ROCS_Overlap>
2928.188

> <ROCS_Rank>
403                 

$$$$
untitled-dbase-1163039_4
  -OEChem-02092406493D

 37 40  0     0  0  0  0  0  0999 V2000
   13.3504   15.7662   22.3549 C   0  0  0  0  0  0  0  0  0  0  0  0
   12.8190   16.4914   21.2880 C   0  0  0  0  0  0  0  0  0  0  0  0
   12.5309   14.9214   23.1041 C   0  0  0  0  0  0  0  0  0  0  0  0
   11.4661   16.3675   20.9705 C   0  0  0  0  0  0  0  0  0  0  0  0
   10.6400   15.5423   21.7375 C   0  0  0  0  0  0  0  0  0  0  0  0
   11.1751   14.8070   22.7956 C   0  0  0  0  0  0  0  0  0  0  0  0
    8.6457   11.9279   25.0968 C   0  0  0  0  0  0  0  0  0  0  0  0
    8.1638   12.0955   23.0649 C   0  0  0  0  0  0  0  0  0  0  0  0
    9.7260   16.6316   19.4576 C   0  0  0  0  0  0  0  0  0  0  0  0
    8.8001   16.4376   20.6425 C   0  0  0  0  0  0  0  0  0  0  0  0
    9.6735   10.2395   23.6335 C   0  0  0  0  0  0  0  0  0  0  0  0
    9.5184   11.7674   23.7965 C   0  0  0  0  0  0  0  0  0  0  0  0
    7.6725   11.0902   24.1785 C   0  0  0  0  0  0  0  0  0  0  0  0
   10.7437   12.6016   23.5740 C   0  0  0  0  0  0  0  0  0  0  0  0
    6.2184   10.9476   24.5108 C   0  0  0  0  0  0  0  0  0  0  0  0
   11.0071   17.0892   19.8996 O   0  0  0  0  0  0  0  0  0  0  0  0
    9.2980   15.4039   21.4963 O   0  0  0  0  0  0  0  0  0  0  0  0
    8.3286    9.8186   23.9180 O   0  0  0  0  0  0  0  0  0  0  0  0
   10.3845   13.9799   23.5474 O   0  0  0  0  0  0  0  0  0  0  0  0
    5.6058   12.1520   24.5504 F   0  0  0  0  0  0  0  0  0  0  0  0
    5.5789   10.1911   23.5911 F   0  0  0  0  0  0  0  0  0  0  0  0
    6.0482   10.3603   25.7164 F   0  0  0  0  0  0  0  0  0  0  0  0
   14.4046   15.8562   22.6004 H   0  0  0  0  0  0  0  0  0  0  0  0
   13.4665   17.1400   20.7044 H   0  0  0  0  0  0  0  0  0  0  0  0
   12.9550   14.3579   23.9309 H   0  0  0  0  0  0  0  0  0  0  0  0
    9.0160   11.4199   25.9920 H   0  0  0  0  0  0  0  0  0  0  0  0
    8.3297   12.9434   25.3602 H   0  0  0  0  0  0  0  0  0  0  0  0
    7.8011   13.1272   23.1309 H   0  0  0  0  0  0  0  0  0  0  0  0
    8.0770   11.7463   22.0320 H   0  0  0  0  0  0  0  0  0  0  0  0
    9.8615   15.6999   18.8941 H   0  0  0  0  0  0  0  0  0  0  0  0
    9.3198   17.3863   18.7769 H   0  0  0  0  0  0  0  0  0  0  0  0
    8.6977   17.3587   21.2299 H   0  0  0  0  0  0  0  0  0  0  0  0
    7.8045   16.1366   20.3016 H   0  0  0  0  0  0  0  0  0  0  0  0
    9.9453    9.9482   22.6149 H   0  0  0  0  0  0  0  0  0  0  0  0
   10.3605    9.8036   24.3644 H   0  0  0  0  0  0  0  0  0  0  0  0
   11.2255   12.3550   22.6171 H   0  0  0  0  0  0  0  0  0  0  0  0
   11.4779   12.4547   24.3791 H   0  0  0  0  0  0  0  0  0  0  0  0
  1  2  1  0  0  0  0
  1  3  2  0  0  0  0
  2  4  2  0  0  0  0
  3  6  1  0  0  0  0
  4  5  1  0  0  0  0
  4 16  1  0  0  0  0
  5  6  2  0  0  0  0
  5 17  1  0  0  0  0
  6 19  1  0  0  0  0
  7 12  1  0  0  0  0
  7 13  1  0  0  0  0
  8 12  1  0  0  0  0
  8 13  1  0  0  0  0
  9 10  1  0  0  0  0
  9 16  1  0  0  0  0
 10 17  1  0  0  0  0
 11 12  1  0  0  0  0
 11 18  1  0  0  0  0
 12 14  1  0  0  0  0
 13 15  1  0  0  0  0
 13 18  1  0  0  0  0
 14 19  1  0  0  0  0
 15 20  1  0  0  0  0
 15 21  1  0  0  0  0
 15 22  1  0  0  0  0
  1 23  1  0  0  0  0
  2 24  1  0  0  0  0
  3 25  1  0  0  0  0
  7 26  1  0  0  0  0
  7 27  1  0  0  0  0
  8 28  1  0  0  0  0
  8 29  1  0  0  0  0
  9 30  1  0  0  0  0
  9 31  1  0  0  0  0
 10 32  1  0  0  0  0
 10 33  1  0  0  0  0
 11 34  1  0  0  0  0
 11 35  1  0  0  0  0
 14 36  1  0  0  0  0
 14 37  1  0  0  0  0
M  END
> <idnumber>
Z8154547162

> <heavy_atoms>
22

> <LogS>
-3.935

> <LogP>
2.552

> <rotating_bonds>
4

> <PSA>
36.92

> <hb_acceptors>
4

> <hb_donors>
0

> <Collection>
Advanced

> <link>
https://www.enaminestore.com/catalog/Z8154547162

> <ROCS_ShapeQuery>
x0446_0A_x1080_0A_x0929_0A_x0812_0A_x0719_0A_x1140_0A_x0528_0A_x0310_0A

> <ROCS_TanimotoCombo>
0.456 

> <ROCS_ShapeTanimoto>
0.228 

> <ROCS_ColorTanimoto>
0.228 

> <ROCS_RefTversky>
0.211 

> <ROCS_RefColorTversky>
0.258 

> <ROCS_RefTverskyCombo>
0.469 

> <ROCS_FitTversky>
1.558 

> <ROCS_FitColorTversky>
0.663 

> <ROCS_FitTverskyCombo>
2.221 

> <ROCS_ColorScore>
-9.284

> <ROCS_Overlap>
2491.800

> <ROCS_Rank>
404                 

$$$$
untitled-dbase-326248_29
  -OEChem-02092406493D

 41 44  0     0  0  0  0  0  0999 V2000
   13.1564   14.5783   22.3338 C   0  0  0  0  0  0  0  0  0  0  0  0
   12.7588   15.1297   21.1159 C   0  0  0  0  0  0  0  0  0  0  0  0
   12.2007   14.2448   23.2935 C   0  0  0  0  0  0  0  0  0  0  0  0
   11.4055   15.3478   20.8577 C   0  0  0  0  0  0  0  0  0  0  0  0
    9.7972   10.6049   23.7281 C   0  0  0  0  0  0  0  0  0  0  0  0
    8.0284   12.5801   24.0902 C   0  0  0  0  0  0  0  0  0  0  0  0
    6.8677   13.4208   24.2888 C   0  0  0  0  0  0  0  0  0  0  0  0
   10.8474   14.4628   23.0354 C   0  0  0  0  0  0  0  0  0  0  0  0
   10.4498   15.0143   21.8174 C   0  0  0  0  0  0  0  0  0  0  0  0
    5.7077   12.6629   24.3924 C   0  0  0  0  0  0  0  0  0  0  0  0
    9.3955   12.8586   23.9526 C   0  0  0  0  0  0  0  0  0  0  0  0
    7.6789   11.2392   24.0274 C   0  0  0  0  0  0  0  0  0  0  0  0
    6.9402   14.9244   24.3891 C   0  0  0  0  0  0  0  0  0  0  0  0
    4.2907   13.1174   24.6161 C   0  0  0  0  0  0  0  0  0  0  0  0
    5.7149   15.6470   23.8330 C   0  0  0  0  0  0  0  0  0  0  0  0
    4.1999   14.3563   25.5042 C   0  0  0  0  0  0  0  0  0  0  0  0
    4.5152   15.6678   24.7821 C   0  0  0  0  0  0  0  0  0  0  0  0
    8.4099   14.1719   20.9315 C   0  0  0  0  0  0  0  0  0  0  0  0
   10.2839   11.8587   23.7703 N   0  0  0  0  0  0  0  0  0  0  0  0
    8.5207   10.2030   23.8464 N   0  0  0  0  0  0  0  0  0  0  0  0
    9.9123   14.1298   23.9932 O   0  0  0  0  0  0  0  0  0  0  0  0
    9.1313   15.2332   21.5539 O   0  0  0  0  0  0  0  0  0  0  0  0
    6.0117   10.9868   24.2071 S   0  0  0  0  0  0  0  0  0  0  0  0
   14.2104   14.4083   22.5348 H   0  0  0  0  0  0  0  0  0  0  0  0
   13.5028   15.3894   20.3688 H   0  0  0  0  0  0  0  0  0  0  0  0
   12.5171   13.8153   24.2403 H   0  0  0  0  0  0  0  0  0  0  0  0
   11.1028   15.7792   19.9075 H   0  0  0  0  0  0  0  0  0  0  0  0
   10.5291    9.8190   23.5799 H   0  0  0  0  0  0  0  0  0  0  0  0
    7.0656   15.2384   25.4311 H   0  0  0  0  0  0  0  0  0  0  0  0
    7.8498   15.2692   23.8723 H   0  0  0  0  0  0  0  0  0  0  0  0
    3.8150   13.3078   23.6434 H   0  0  0  0  0  0  0  0  0  0  0  0
    3.7071   12.3127   25.0865 H   0  0  0  0  0  0  0  0  0  0  0  0
    5.9727   16.6706   23.5325 H   0  0  0  0  0  0  0  0  0  0  0  0
    5.4008   15.1233   22.9206 H   0  0  0  0  0  0  0  0  0  0  0  0
    3.1709   14.4265   25.8791 H   0  0  0  0  0  0  0  0  0  0  0  0
    4.8471   14.2504   26.3839 H   0  0  0  0  0  0  0  0  0  0  0  0
    4.7119   16.4328   25.5510 H   0  0  0  0  0  0  0  0  0  0  0  0
    3.6205   16.0170   24.2411 H   0  0  0  0  0  0  0  0  0  0  0  0
    7.3719   14.4770   20.7778 H   0  0  0  0  0  0  0  0  0  0  0  0
    8.4494   13.2825   21.5654 H   0  0  0  0  0  0  0  0  0  0  0  0
    8.8686   13.9490   19.9653 H   0  0  0  0  0  0  0  0  0  0  0  0
  1  2  1  0  0  0  0
  1  3  2  0  0  0  0
  2  4  2  0  0  0  0
  3  8  1  0  0  0  0
  4  9  1  0  0  0  0
  5 19  2  0  0  0  0
  5 20  1  0  0  0  0
  6  7  1  0  0  0  0
  6 11  2  0  0  0  0
  6 12  1  0  0  0  0
  7 10  2  0  0  0  0
  7 13  1  0  0  0  0
  8  9  2  0  0  0  0
  8 21  1  0  0  0  0
  9 22  1  0  0  0  0
 10 14  1  0  0  0  0
 10 23  1  0  0  0  0
 11 19  1  0  0  0  0
 11 21  1  0  0  0  0
 12 20  2  0  0  0  0
 12 23  1  0  0  0  0
 13 15  1  0  0  0  0
 14 16  1  0  0  0  0
 15 17  1  0  0  0  0
 16 17  1  0  0  0  0
 18 22  1  0  0  0  0
  1 24  1  0  0  0  0
  2 25  1  0  0  0  0
  3 26  1  0  0  0  0
  4 27  1  0  0  0  0
  5 28  1  0  0  0  0
 13 29  1  0  0  0  0
 13 30  1  0  0  0  0
 14 31  1  0  0  0  0
 14 32  1  0  0  0  0
 15 33  1  0  0  0  0
 15 34  1  0  0  0  0
 16 35  1  0  0  0  0
 16 36  1  0  0  0  0
 17 37  1  0  0  0  0
 17 38  1  0  0  0  0
 18 39  1  0  0  0  0
 18 40  1  0  0  0  0
 18 41  1  0  0  0  0
M  END
> <idnumber>
Z31211775

> <heavy_atoms>
23

> <LogS>
-6.57

> <LogP>
4.684

> <rotating_bonds>
3

> <PSA>
44.24

> <hb_acceptors>
3

> <hb_donors>
0

> <Collection>
Legacy

> <link>
https://www.enaminestore.com/catalog/Z31211775

> <ROCS_ShapeQuery>
x0446_0A_x1080_0A_x0929_0A_x0812_0A_x0719_0A_x1140_0A_x0528_0A_x0310_0A

> <ROCS_TanimotoCombo>
0.456 

> <ROCS_ShapeTanimoto>
0.247 

> <ROCS_ColorTanimoto>
0.209 

> <ROCS_RefTversky>
0.225 

> <ROCS_RefColorTversky>
0.219 

> <ROCS_RefTverskyCombo>
0.444 

> <ROCS_FitTversky>
1.650 

> <ROCS_FitColorTversky>
0.823 

> <ROCS_FitTverskyCombo>
2.473 

> <ROCS_ColorScore>
-7.817

> <ROCS_Overlap>
2662.350

> <ROCS_Rank>
405                 

$$$$
untitled-dbase-217315_127
  -OEChem-02092406493D

 58 63  0     1  0  0  0  0  0999 V2000
   12.0022   16.1445   21.8649 C   0  0  0  0  0  0  0  0  0  0  0  0
   10.6454   16.0200   21.5665 C   0  0  0  0  0  0  0  0  0  0  0  0
   12.6574   15.1333   22.5677 C   0  0  0  0  0  0  0  0  0  0  0  0
    9.9437   14.8843   21.9709 C   0  0  0  0  0  0  0  0  0  0  0  0
   11.9558   13.9976   22.9720 C   0  0  0  0  0  0  0  0  0  0  0  0
    2.8215   14.3496   19.2454 C   0  0  0  0  0  0  0  0  0  0  0  0
    3.2424   14.7464   21.5928 C   0  0  0  0  0  0  0  0  0  0  0  0
   10.5989   13.8730   22.6736 C   0  0  0  0  0  0  0  0  0  0  0  0
    3.2996   13.0416   19.3746 C   0  0  0  0  0  0  0  0  0  0  0  0
    3.7093   13.4401   21.7328 C   0  0  0  0  0  0  0  0  0  0  0  0
    3.7265   12.5875   20.6283 C   0  0  0  0  0  0  0  0  0  0  0  0
    2.7959   15.1996   20.3518 C   0  0  0  0  0  0  0  0  0  0  0  0
    6.1146   12.1319   24.1425 C   0  0  0  0  0  0  0  0  0  0  0  0
    3.3267   12.1131   18.1991 C   0  0  0  0  0  0  0  0  0  0  0  0
    9.6867    9.7288   23.8700 C   0  0  0  0  0  0  0  0  0  0  0  0
    9.8390   11.4661   22.0714 C   0  0  0  0  0  0  0  0  0  0  0  0
   10.4395   12.0548   24.4343 C   0  0  0  0  0  0  0  0  0  0  0  0
    7.5967   10.6442   22.8300 C   0  0  0  0  0  0  0  0  0  0  0  0
    8.1913   11.2419   25.1941 C   0  0  0  0  0  0  0  0  0  0  0  0
    8.3343   12.9808   23.3859 C   0  0  0  0  0  0  0  0  0  0  0  0
    3.9666   10.4480   19.7146 C   0  0  0  0  0  0  0  0  0  0  0  0
    9.0543   10.2399   22.5681 C   0  0  2  0  0  0  0  0  0  0  0  0
    9.6503   10.8327   24.9357 C   0  0  1  0  0  0  0  0  0  0  0  0
    9.8264   12.6215   23.1197 C   0  0  0  0  0  0  0  0  0  0  0  0
    7.5473   11.7549   23.8922 C   0  0  0  0  0  0  0  0  0  0  0  0
    4.1799   12.9751   23.0796 C   0  0  0  0  0  0  0  0  0  0  0  0
    5.5620   12.0403   25.2303 O   0  0  0  0  0  0  0  0  0  0  0  0
    4.1967   11.3151   20.8309 O   0  0  0  0  0  0  0  0  0  0  0  0
    4.2346   11.0408   18.4458 O   0  0  0  0  0  0  0  0  0  0  0  0
    5.5521   12.5800   22.9841 O   0  0  0  0  0  0  0  0  0  0  0  0
    2.2133   16.8106   20.1837 Cl  0  0  0  0  0  0  0  0  0  0  0  0
   12.5487   17.0283   21.5488 H   0  0  0  0  0  0  0  0  0  0  0  0
   10.1352   16.8067   21.0184 H   0  0  0  0  0  0  0  0  0  0  0  0
   13.7141   15.2294   22.7992 H   0  0  0  0  0  0  0  0  0  0  0  0
    8.8867   14.7959   21.7341 H   0  0  0  0  0  0  0  0  0  0  0  0
   12.4745   13.2149   23.5192 H   0  0  0  0  0  0  0  0  0  0  0  0
    2.4738   14.7011   18.2764 H   0  0  0  0  0  0  0  0  0  0  0  0
    3.2257   15.4086   22.4557 H   0  0  0  0  0  0  0  0  0  0  0  0
    2.3270   11.7074   18.0067 H   0  0  0  0  0  0  0  0  0  0  0  0
    3.6731   12.6348   17.3013 H   0  0  0  0  0  0  0  0  0  0  0  0
    9.1463    8.8438   24.2275 H   0  0  0  0  0  0  0  0  0  0  0  0
   10.7224    9.4172   23.6874 H   0  0  0  0  0  0  0  0  0  0  0  0
   10.8745   11.1743   21.8486 H   0  0  0  0  0  0  0  0  0  0  0  0
    9.4110   11.8169   21.1224 H   0  0  0  0  0  0  0  0  0  0  0  0
   10.4448   12.8324   25.2099 H   0  0  0  0  0  0  0  0  0  0  0  0
   11.4895   11.7759   24.2720 H   0  0  0  0  0  0  0  0  0  0  0  0
    7.1286   10.9848   21.8969 H   0  0  0  0  0  0  0  0  0  0  0  0
    7.0193    9.7708   23.1609 H   0  0  0  0  0  0  0  0  0  0  0  0
    7.6297   10.3843   25.5876 H   0  0  0  0  0  0  0  0  0  0  0  0
    8.1508   12.0165   25.9712 H   0  0  0  0  0  0  0  0  0  0  0  0
    8.2714   13.7961   24.1208 H   0  0  0  0  0  0  0  0  0  0  0  0
    7.8739   13.3750   22.4686 H   0  0  0  0  0  0  0  0  0  0  0  0
    4.6420    9.5940   19.8254 H   0  0  0  0  0  0  0  0  0  0  0  0
    2.9403   10.0597   19.7509 H   0  0  0  0  0  0  0  0  0  0  0  0
    9.0864    9.4505   21.8086 H   0  0  0  0  0  0  0  0  0  0  0  0
   10.0987   10.4627   25.8646 H   0  0  0  0  0  0  0  0  0  0  0  0
    4.0891   13.7738   23.8236 H   0  0  0  0  0  0  0  0  0  0  0  0
    3.5841   12.1236   23.4256 H   0  0  0  0  0  0  0  0  0  0  0  0
  1  2  1  0  0  0  0
  1  3  2  0  0  0  0
  2  4  2  0  0  0  0
  3  5  1  0  0  0  0
  4  8  1  0  0  0  0
  5  8  2  0  0  0  0
  6  9  1  0  0  0  0
  6 12  2  0  0  0  0
  7 10  2  0  0  0  0
  7 12  1  0  0  0  0
  8 24  1  0  0  0  0
  9 11  2  0  0  0  0
  9 14  1  0  0  0  0
 10 11  1  0  0  0  0
 10 26  1  0  0  0  0
 11 28  1  0  0  0  0
 12 31  1  0  0  0  0
 13 25  1  0  0  0  0
 13 27  2  0  0  0  0
 13 30  1  0  0  0  0
 14 29  1  0  0  0  0
 15 22  1  0  0  0  0
 15 23  1  0  0  0  0
 16 22  1  0  0  0  0
 16 24  1  0  0  0  0
 17 23  1  0  0  0  0
 17 24  1  0  0  0  0
 18 22  1  0  0  0  0
 18 25  1  0  0  0  0
 19 23  1  0  0  0  0
 19 25  1  0  0  0  0
 20 24  1  0  0  0  0
 20 25  1  0  0  0  0
 21 28  1  0  0  0  0
 21 29  1  0  0  0  0
 26 30  1  0  0  0  0
  1 32  1  0  0  0  0
  2 33  1  0  0  0  0
  3 34  1  0  0  0  0
  4 35  1  0  0  0  0
  5 36  1  0  0  0  0
  6 37  1  0  0  0  0
  7 38  1  0  0  0  0
 14 39  1  0  0  0  0
 14 40  1  0  0  0  0
 15 41  1  0  0  0  0
 15 42  1  0  0  0  0
 16 43  1  0  0  0  0
 16 44  1  0  0  0  0
 17 45  1  0  0  0  0
 17 46  1  0  0  0  0
 18 47  1  0  0  0  0
 18 48  1  0  0  0  0
 19 49  1  0  0  0  0
 19 50  1  0  0  0  0
 20 51  1  0  0  0  0
 20 52  1  0  0  0  0
 21 53  1  0  0  0  0
 21 54  1  0  0  0  0
 22 55  1  0  0  0  0
 23 56  1  0  0  0  0
 26 57  1  0  0  0  0
 26 58  1  0  0  0  0
M  END
> <idnumber>
Z19594715

> <heavy_atoms>
31

> <LogS>
-7.1

> <LogP>
5.849

> <rotating_bonds>
5

> <PSA>
44.76

> <hb_acceptors>
3

> <hb_donors>
0

> <Collection>
Legacy

> <link>
https://www.enaminestore.com/catalog/Z19594715

> <ROCS_ShapeQuery>
x0446_0A_x1080_0A_x0929_0A_x0812_0A_x0719_0A_x1140_0A_x0528_0A_x0310_0A

> <ROCS_TanimotoCombo>
0.456 

> <ROCS_ShapeTanimoto>
0.280 

> <ROCS_ColorTanimoto>
0.176 

> <ROCS_RefTversky>
0.256 

> <ROCS_RefColorTversky>
0.207 

> <ROCS_RefTverskyCombo>
0.462 

> <ROCS_FitTversky>
1.526 

> <ROCS_FitColorTversky>
0.542 

> <ROCS_FitTverskyCombo>
2.068 

> <ROCS_ColorScore>
-7.432

> <ROCS_Overlap>
3024.319

> <ROCS_Rank>
406                 

$$$$
untitled-dbase-157048_127
  -OEChem-02092406493D

 60 65  0     1  0  0  0  0  0999 V2000
   10.7117   15.0388   23.5402 C   0  0  0  0  0  0  0  0  0  0  0  0
   11.4290   16.1676   23.1441 C   0  0  0  0  0  0  0  0  0  0  0  0
   11.3951   13.8969   21.5237 C   0  0  0  0  0  0  0  0  0  0  0  0
   10.6948   13.9034   22.7300 C   0  0  0  0  0  0  0  0  0  0  0  0
   12.1292   16.1611   21.9378 C   0  0  0  0  0  0  0  0  0  0  0  0
   12.1123   15.0258   21.1276 C   0  0  0  0  0  0  0  0  0  0  0  0
    2.6473   13.4723   21.0029 C   0  0  0  0  0  0  0  0  0  0  0  0
    2.2641   11.6301   17.7994 C   0  0  0  0  0  0  0  0  0  0  0  0
    2.9709   10.5725   17.3854 C   0  0  0  0  0  0  0  0  0  0  0  0
    3.6534   12.7051   21.4622 C   0  0  0  0  0  0  0  0  0  0  0  0
    2.0455   13.1867   19.6718 C   0  0  0  0  0  0  0  0  0  0  0  0
    3.6695   11.3952   19.6274 C   0  0  0  0  0  0  0  0  0  0  0  0
    6.1415   12.1747   23.9859 C   0  0  0  0  0  0  0  0  0  0  0  0
    9.7356    9.7889   23.9907 C   0  0  0  0  0  0  0  0  0  0  0  0
    9.9835   11.4751   22.1545 C   0  0  0  0  0  0  0  0  0  0  0  0
   10.4425   12.1351   24.5303 C   0  0  0  0  0  0  0  0  0  0  0  0
    7.7050   10.6601   22.8051 C   0  0  0  0  0  0  0  0  0  0  0  0
    8.1580   11.3291   25.1815 C   0  0  0  0  0  0  0  0  0  0  0  0
    8.3971   13.0166   23.3352 C   0  0  0  0  0  0  0  0  0  0  0  0
    9.1775   10.2583   22.6401 C   0  0  2  0  0  0  0  0  0  0  0  0
    9.6316   10.9226   25.0202 C   0  0  1  0  0  0  0  0  0  0  0  0
    9.9040   12.6599   23.1665 C   0  0  0  0  0  0  0  0  0  0  0  0
    7.5882   11.8003   23.8301 C   0  0  0  0  0  0  0  0  0  0  0  0
   12.8891   17.3819   21.5341 C   0  0  0  0  0  0  0  0  0  0  0  0
   12.8543   14.9959   19.8317 C   0  0  0  0  0  0  0  0  0  0  0  0
    4.2676   12.9740   22.7885 C   0  0  0  0  0  0  0  0  0  0  0  0
    4.1976   11.6351   20.7803 N   0  0  0  0  0  0  0  0  0  0  0  0
    2.6324   12.1045   19.0391 N   0  0  0  0  0  0  0  0  0  0  0  0
    1.1281   13.8791   19.2428 O   0  0  0  0  0  0  0  0  0  0  0  0
    5.5270   12.1104   25.0420 O   0  0  0  0  0  0  0  0  0  0  0  0
    5.6451   12.5856   22.7843 O   0  0  0  0  0  0  0  0  0  0  0  0
    4.1700   10.0969   18.5543 S   0  0  0  0  0  0  0  0  0  0  0  0
   10.1686   15.0530   24.4815 H   0  0  0  0  0  0  0  0  0  0  0  0
   11.4353   17.0475   23.7821 H   0  0  0  0  0  0  0  0  0  0  0  0
   11.3820   13.0111   20.8930 H   0  0  0  0  0  0  0  0  0  0  0  0
    2.2448   14.3060   21.5669 H   0  0  0  0  0  0  0  0  0  0  0  0
    1.4657   12.1085   17.2504 H   0  0  0  0  0  0  0  0  0  0  0  0
    2.8335   10.0588   16.4448 H   0  0  0  0  0  0  0  0  0  0  0  0
    9.1798    8.9109   24.3417 H   0  0  0  0  0  0  0  0  0  0  0  0
   10.7818    9.4792   23.8776 H   0  0  0  0  0  0  0  0  0  0  0  0
   11.0316   11.1841   22.0008 H   0  0  0  0  0  0  0  0  0  0  0  0
    9.6097   11.7958   21.1726 H   0  0  0  0  0  0  0  0  0  0  0  0
   10.3986   12.9346   25.2821 H   0  0  0  0  0  0  0  0  0  0  0  0
   11.5015   11.8588   24.4374 H   0  0  0  0  0  0  0  0  0  0  0  0
    7.2903   10.9707   21.8370 H   0  0  0  0  0  0  0  0  0  0  0  0
    7.1138    9.7926   23.1271 H   0  0  0  0  0  0  0  0  0  0  0  0
    7.5788   10.4793   25.5664 H   0  0  0  0  0  0  0  0  0  0  0  0
    8.0683   12.1252   25.9323 H   0  0  0  0  0  0  0  0  0  0  0  0
    8.2874   13.8521   24.0413 H   0  0  0  0  0  0  0  0  0  0  0  0
    7.9889   13.3812   22.3817 H   0  0  0  0  0  0  0  0  0  0  0  0
    9.2577    9.4479   21.9069 H   0  0  0  0  0  0  0  0  0  0  0  0
   10.0270   10.5822   25.9838 H   0  0  0  0  0  0  0  0  0  0  0  0
   13.9151   17.3345   21.9169 H   0  0  0  0  0  0  0  0  0  0  0  0
   12.9274   17.4820   20.4424 H   0  0  0  0  0  0  0  0  0  0  0  0
   12.4130   18.2912   21.9216 H   0  0  0  0  0  0  0  0  0  0  0  0
   12.2104   15.3471   19.0172 H   0  0  0  0  0  0  0  0  0  0  0  0
   13.7467   15.6325   19.8712 H   0  0  0  0  0  0  0  0  0  0  0  0
   13.1964   13.9809   19.5943 H   0  0  0  0  0  0  0  0  0  0  0  0
    3.7494   12.4185   23.5752 H   0  0  0  0  0  0  0  0  0  0  0  0
    4.2125   14.0413   23.0187 H   0  0  0  0  0  0  0  0  0  0  0  0
  1  2  2  0  0  0  0
  1  4  1  0  0  0  0
  2  5  1  0  0  0  0
  3  4  2  0  0  0  0
  3  6  1  0  0  0  0
  4 22  1  0  0  0  0
  5  6  2  0  0  0  0
  5 24  1  0  0  0  0
  6 25  1  0  0  0  0
  7 10  2  0  0  0  0
  7 11  1  0  0  0  0
  8  9  2  0  0  0  0
  8 28  1  0  0  0  0
  9 32  1  0  0  0  0
 10 26  1  0  0  0  0
 10 27  1  0  0  0  0
 11 28  1  0  0  0  0
 11 29  2  0  0  0  0
 12 27  2  0  0  0  0
 12 28  1  0  0  0  0
 12 32  1  0  0  0  0
 13 23  1  0  0  0  0
 13 30  2  0  0  0  0
 13 31  1  0  0  0  0
 14 20  1  0  0  0  0
 14 21  1  0  0  0  0
 15 20  1  0  0  0  0
 15 22  1  0  0  0  0
 16 21  1  0  0  0  0
 16 22  1  0  0  0  0
 17 20  1  0  0  0  0
 17 23  1  0  0  0  0
 18 21  1  0  0  0  0
 18 23  1  0  0  0  0
 19 22  1  0  0  0  0
 19 23  1  0  0  0  0
 26 31  1  0  0  0  0
  1 33  1  0  0  0  0
  2 34  1  0  0  0  0
  3 35  1  0  0  0  0
  7 36  1  0  0  0  0
  8 37  1  0  0  0  0
  9 38  1  0  0  0  0
 14 39  1  0  0  0  0
 14 40  1  0  0  0  0
 15 41  1  0  0  0  0
 15 42  1  0  0  0  0
 16 43  1  0  0  0  0
 16 44  1  0  0  0  0
 17 45  1  0  0  0  0
 17 46  1  0  0  0  0
 18 47  1  0  0  0  0
 18 48  1  0  0  0  0
 19 49  1  0  0  0  0
 19 50  1  0  0  0  0
 20 51  1  0  0  0  0
 21 52  1  0  0  0  0
 24 53  1  0  0  0  0
 24 54  1  0  0  0  0
 24 55  1  0  0  0  0
 25 56  1  0  0  0  0
 25 57  1  0  0  0  0
 25 58  1  0  0  0  0
 26 59  1  0  0  0  0
 26 60  1  0  0  0  0
M  END
> <idnumber>
Z15746085

> <heavy_atoms>
32

> <LogS>
-7.217

> <LogP>
4.966

> <rotating_bonds>
5

> <PSA>
58.97

> <hb_acceptors>
3

> <hb_donors>
0

> <Collection>
Legacy

> <link>
https://www.enaminestore.com/catalog/Z15746085

> <ROCS_ShapeQuery>
x0446_0A_x1080_0A_x0929_0A_x0812_0A_x0719_0A_x1140_0A_x0528_0A_x0310_0A

> <ROCS_TanimotoCombo>
0.456 

> <ROCS_ShapeTanimoto>
0.274 

> <ROCS_ColorTanimoto>
0.182 

> <ROCS_RefTversky>
0.252 

> <ROCS_RefColorTversky>
0.213 

> <ROCS_RefTverskyCombo>
0.465 

> <ROCS_FitTversky>
1.472 

> <ROCS_FitColorTversky>
0.558 

> <ROCS_FitTverskyCombo>
2.030 

> <ROCS_ColorScore>
-7.655

> <ROCS_Overlap>
2981.031

> <ROCS_Rank>
407                 

$$$$
untitled-dbase-529471_16
  -OEChem-02092406493D

 54 59  0     1  0  0  0  0  0999 V2000
    5.3618   14.8661   20.7636 C   0  0  0  0  0  0  0  0  0  0  0  0
    6.1040   15.1920   19.6352 C   0  0  0  0  0  0  0  0  0  0  0  0
   12.0596   11.0503   22.2578 C   0  0  0  0  0  0  0  0  0  0  0  0
   11.7323    9.7120   22.4161 C   0  0  0  0  0  0  0  0  0  0  0  0
   13.5813   16.4590   21.9260 C   0  0  0  0  0  0  0  0  0  0  0  0
    5.9868   14.8166   22.0063 C   0  0  0  0  0  0  0  0  0  0  0  0
    7.4686   15.4677   19.7520 C   0  0  0  0  0  0  0  0  0  0  0  0
   11.1888   12.0287   22.7326 C   0  0  0  0  0  0  0  0  0  0  0  0
   10.5364    9.3686   23.0440 C   0  0  0  0  0  0  0  0  0  0  0  0
   12.3345   16.2869   21.2787 C   0  0  0  0  0  0  0  0  0  0  0  0
    9.3702   15.3304   23.4446 C   0  0  0  0  0  0  0  0  0  0  0  0
   13.3561   16.2136   23.2605 C   0  0  0  0  0  0  0  0  0  0  0  0
    7.3594   15.0939   22.1235 C   0  0  0  0  0  0  0  0  0  0  0  0
    8.0137   15.0514   23.3620 C   0  0  0  0  0  0  0  0  0  0  0  0
    8.1191   15.4257   20.9821 C   0  0  0  0  0  0  0  0  0  0  0  0
    9.9939   11.6871   23.3625 C   0  0  0  0  0  0  0  0  0  0  0  0
    9.6614   10.3446   23.5170 C   0  0  0  0  0  0  0  0  0  0  0  0
   10.0294   15.6450   22.2736 C   0  0  0  0  0  0  0  0  0  0  0  0
   11.4362   15.9485   22.2639 C   0  0  0  0  0  0  0  0  0  0  0  0
    8.0079   12.2975   24.4362 C   0  0  0  0  0  0  0  0  0  0  0  0
    7.6358   10.9526   24.5471 C   0  0  0  0  0  0  0  0  0  0  0  0
    7.3171   14.7162   24.6187 C   0  0  0  0  0  0  0  0  0  0  0  0
    5.1217   12.4370   25.9012 C   0  0  0  0  0  0  0  0  0  0  0  0
    6.4707   13.0575   26.2360 C   0  0  0  0  0  0  0  0  0  0  0  0
    5.2218   11.3666   24.8237 C   0  0  0  0  0  0  0  0  0  0  0  0
    6.1951    9.1114   25.2916 C   0  0  0  0  0  0  0  0  0  0  0  0
    9.4357   15.6970   21.0592 N   0  0  0  0  0  0  0  0  0  0  0  0
    9.1732   12.6358   23.8269 N   0  0  0  0  0  0  0  0  0  0  0  0
    8.5058   10.0029   24.1051 N   0  0  0  0  0  0  0  0  0  0  0  0
    7.2456   13.3714   25.0323 N   0  0  0  0  0  0  0  0  0  0  0  0
    6.3978   10.5297   25.0354 N   0  0  1  0  0  0  0  0  0  0  0  0
    6.7737   15.6596   25.1952 O   0  0  0  0  0  0  0  0  0  0  0  0
   12.0510   15.9016   23.4749 O   0  0  0  0  0  0  0  0  0  0  0  0
    4.3010   14.6520   20.6760 H   0  0  0  0  0  0  0  0  0  0  0  0
    5.6239   15.2324   18.6616 H   0  0  0  0  0  0  0  0  0  0  0  0
   12.9846   11.3343   21.7657 H   0  0  0  0  0  0  0  0  0  0  0  0
   12.4015    8.9373   22.0547 H   0  0  0  0  0  0  0  0  0  0  0  0
   14.5259   16.7282   21.4758 H   0  0  0  0  0  0  0  0  0  0  0  0
    5.3816   14.5599   22.8725 H   0  0  0  0  0  0  0  0  0  0  0  0
    8.0279   15.7197   18.8525 H   0  0  0  0  0  0  0  0  0  0  0  0
   11.4531   13.0761   22.6014 H   0  0  0  0  0  0  0  0  0  0  0  0
   10.2902    8.3156   23.1656 H   0  0  0  0  0  0  0  0  0  0  0  0
   12.1226   16.3971   20.2245 H   0  0  0  0  0  0  0  0  0  0  0  0
    9.8926   15.3022   24.3964 H   0  0  0  0  0  0  0  0  0  0  0  0
   13.9855   16.2192   24.1384 H   0  0  0  0  0  0  0  0  0  0  0  0
    4.6792   11.9953   26.8020 H   0  0  0  0  0  0  0  0  0  0  0  0
    4.4407   13.2314   25.5730 H   0  0  0  0  0  0  0  0  0  0  0  0
    6.3530   13.9722   26.8313 H   0  0  0  0  0  0  0  0  0  0  0  0
    7.0304   12.3617   26.8719 H   0  0  0  0  0  0  0  0  0  0  0  0
    4.3122   10.7520   24.7992 H   0  0  0  0  0  0  0  0  0  0  0  0
    5.2637   11.8600   23.8445 H   0  0  0  0  0  0  0  0  0  0  0  0
    5.1751    8.9486   25.6697 H   0  0  0  0  0  0  0  0  0  0  0  0
    6.3344    8.5467   24.3579 H   0  0  0  0  0  0  0  0  0  0  0  0
    6.9231    8.7666   26.0407 H   0  0  0  0  0  0  0  0  0  0  0  0
  1  2  1  0  0  0  0
  1  6  2  0  0  0  0
  2  7  2  0  0  0  0
  3  4  1  0  0  0  0
  3  8  2  0  0  0  0
  4  9  2  0  0  0  0
  5 10  1  0  0  0  0
  5 12  2  0  0  0  0
  6 13  1  0  0  0  0
  7 15  1  0  0  0  0
  8 16  1  0  0  0  0
  9 17  1  0  0  0  0
 10 19  2  0  0  0  0
 11 14  1  0  0  0  0
 11 18  2  0  0  0  0
 12 33  1  0  0  0  0
 13 14  2  0  0  0  0
 13 15  1  0  0  0  0
 14 22  1  0  0  0  0
 15 27  2  0  0  0  0
 16 17  1  0  0  0  0
 16 28  2  0  0  0  0
 17 29  2  0  0  0  0
 18 19  1  0  0  0  0
 18 27  1  0  0  0  0
 19 33  1  0  0  0  0
 20 21  2  0  0  0  0
 20 28  1  0  0  0  0
 20 30  1  0  0  0  0
 21 29  1  0  0  0  0
 21 31  1  0  0  0  0
 22 30  1  0  0  0  0
 22 32  2  0  0  0  0
 23 24  1  0  0  0  0
 23 25  1  0  0  0  0
 24 30  1  0  0  0  0
 25 31  1  0  0  0  0
 26 31  1  0  0  0  0
  1 34  1  0  0  0  0
  2 35  1  0  0  0  0
  3 36  1  0  0  0  0
  4 37  1  0  0  0  0
  5 38  1  0  0  0  0
  6 39  1  0  0  0  0
  7 40  1  0  0  0  0
  8 41  1  0  0  0  0
  9 42  1  0  0  0  0
 10 43  1  0  0  0  0
 11 44  1  0  0  0  0
 12 45  1  0  0  0  0
 23 46  1  0  0  0  0
 23 47  1  0  0  0  0
 24 48  1  0  0  0  0
 24 49  1  0  0  0  0
 25 50  1  0  0  0  0
 25 51  1  0  0  0  0
 26 52  1  0  0  0  0
 26 53  1  0  0  0  0
 26 54  1  0  0  0  0
M  END
> <idnumber>
Z90865239

> <heavy_atoms>
33

> <LogS>
-6.36

> <LogP>
4.504

> <rotating_bonds>
2

> <PSA>
75.36

> <hb_acceptors>
5

> <hb_donors>
0

> <Collection>
Legacy

> <link>
https://www.enaminestore.com/catalog/Z90865239

> <ROCS_ShapeQuery>
x0446_0A_x1080_0A_x0929_0A_x0812_0A_x0719_0A_x1140_0A_x0528_0A_x0310_0A

> <ROCS_TanimotoCombo>
0.456 

> <ROCS_ShapeTanimoto>
0.294 

> <ROCS_ColorTanimoto>
0.162 

> <ROCS_RefTversky>
0.268 

> <ROCS_RefColorTversky>
0.188 

> <ROCS_RefTverskyCombo>
0.456 

> <ROCS_FitTversky>
1.491 

> <ROCS_FitColorTversky>
0.546 

> <ROCS_FitTverskyCombo>
2.038 

> <ROCS_ColorScore>
-6.737

> <ROCS_Overlap>
3171.541

> <ROCS_Rank>
408                 

$$$$
untitled-dbase-876125_7
  -OEChem-02092406493D

 62 67  0     1  0  0  0  0  0999 V2000
    7.5011   15.1803   23.9491 C   0  0  0  0  0  0  0  0  0  0  0  0
    6.9667   14.3096   21.7597 C   0  0  0  0  0  0  0  0  0  0  0  0
    6.9858   16.4230   23.5806 C   0  0  0  0  0  0  0  0  0  0  0  0
    6.4513   15.5523   21.3913 C   0  0  0  0  0  0  0  0  0  0  0  0
    7.4917   14.1236   23.0386 C   0  0  0  0  0  0  0  0  0  0  0  0
    6.4609   16.6090   22.3018 C   0  0  0  0  0  0  0  0  0  0  0  0
   12.6826   15.1196   22.8148 C   0  0  0  0  0  0  0  0  0  0  0  0
   10.8301   15.5930   21.5871 C   0  0  0  0  0  0  0  0  0  0  0  0
   10.9197   10.6118   21.9169 C   0  0  0  0  0  0  0  0  0  0  0  0
   13.4759   12.3942   20.1593 C   0  0  0  0  0  0  0  0  0  0  0  0
   13.6372   13.6747   20.9798 C   0  0  0  0  0  0  0  0  0  0  0  0
    8.0408   10.2753   25.1187 C   0  0  0  0  0  0  0  0  0  0  0  0
    8.6080   12.7059   24.9034 C   0  0  0  0  0  0  0  0  0  0  0  0
    6.9536   11.6629   23.3332 C   0  0  0  0  0  0  0  0  0  0  0  0
   10.3057   10.9665   24.2942 C   0  0  0  0  0  0  0  0  0  0  0  0
    8.6553    9.9268   22.7146 C   0  0  0  0  0  0  0  0  0  0  0  0
    9.2352   12.3623   22.5002 C   0  0  0  0  0  0  0  0  0  0  0  0
   13.1626   11.1920   21.0475 C   0  0  0  0  0  0  0  0  0  0  0  0
   12.1699   12.6527   22.7763 C   0  0  0  0  0  0  0  0  0  0  0  0
    9.1615   11.3149   25.2566 C   0  0  2  0  0  0  0  0  0  0  0  0
    7.5087   10.2701   23.6791 C   0  0  1  0  0  0  0  0  0  0  0  0
    8.0593   12.7540   23.4437 C   0  0  0  0  0  0  0  0  0  0  0  0
   12.4534   13.8940   21.9271 C   0  0  1  0  0  0  0  0  0  0  0  0
    9.7864   10.9642   22.8470 C   0  0  0  0  0  0  0  0  0  0  0  0
    5.9085   17.9376   21.9092 C   0  0  0  0  0  0  0  0  0  0  0  0
   11.7010   16.0440   22.5520 N   0  0  0  0  0  0  0  0  0  0  0  0
   11.2673   14.3239   21.2097 N   0  0  0  0  0  0  0  0  0  0  0  0
   12.0228   11.4647   21.9256 N   0  0  0  0  0  0  0  0  0  0  0  0
   13.5943   15.2391   23.6221 O   0  0  0  0  0  0  0  0  0  0  0  0
    9.8574   16.1868   21.1423 O   0  0  0  0  0  0  0  0  0  0  0  0
   10.8243    9.6102   21.2029 O   0  0  0  0  0  0  0  0  0  0  0  0
    7.9087   15.0447   24.9474 H   0  0  0  0  0  0  0  0  0  0  0  0
    6.9544   13.4913   21.0445 H   0  0  0  0  0  0  0  0  0  0  0  0
    6.9959   17.2402   24.2969 H   0  0  0  0  0  0  0  0  0  0  0  0
    6.0444   15.6887   20.3928 H   0  0  0  0  0  0  0  0  0  0  0  0
   12.6720   12.5288   19.4278 H   0  0  0  0  0  0  0  0  0  0  0  0
   14.3901   12.1969   19.5888 H   0  0  0  0  0  0  0  0  0  0  0  0
   14.5801   13.6268   21.5320 H   0  0  0  0  0  0  0  0  0  0  0  0
   13.7067   14.5180   20.2848 H   0  0  0  0  0  0  0  0  0  0  0  0
    8.4177    9.2798   25.3833 H   0  0  0  0  0  0  0  0  0  0  0  0
    7.2278   10.5043   25.8187 H   0  0  0  0  0  0  0  0  0  0  0  0
    7.8124   12.9755   25.6113 H   0  0  0  0  0  0  0  0  0  0  0  0
    9.3973   13.4592   25.0316 H   0  0  0  0  0  0  0  0  0  0  0  0
    6.5401   11.6515   22.3158 H   0  0  0  0  0  0  0  0  0  0  0  0
    6.1165   11.9041   24.0022 H   0  0  0  0  0  0  0  0  0  0  0  0
   11.1240   11.6900   24.4069 H   0  0  0  0  0  0  0  0  0  0  0  0
   10.7268    9.9857   24.5523 H   0  0  0  0  0  0  0  0  0  0  0  0
    9.0326    8.9186   22.9309 H   0  0  0  0  0  0  0  0  0  0  0  0
    8.2818    9.8985   21.6825 H   0  0  0  0  0  0  0  0  0  0  0  0
    8.8980   12.3833   21.4539 H   0  0  0  0  0  0  0  0  0  0  0  0
   10.0357   13.1130   22.5668 H   0  0  0  0  0  0  0  0  0  0  0  0
   12.9012   10.3212   20.4335 H   0  0  0  0  0  0  0  0  0  0  0  0
   14.0506   10.9234   21.6296 H   0  0  0  0  0  0  0  0  0  0  0  0
   12.9529   12.5131   23.5217 H   0  0  0  0  0  0  0  0  0  0  0  0
   11.2222   12.7660   23.3137 H   0  0  0  0  0  0  0  0  0  0  0  0
    9.5355   11.3187   26.2866 H   0  0  0  0  0  0  0  0  0  0  0  0
    6.7119    9.5238   23.5837 H   0  0  0  0  0  0  0  0  0  0  0  0
    6.6947   18.5633   21.4694 H   0  0  0  0  0  0  0  0  0  0  0  0
    5.0979   17.8313   21.1766 H   0  0  0  0  0  0  0  0  0  0  0  0
    5.4871   18.4653   22.7747 H   0  0  0  0  0  0  0  0  0  0  0  0
   11.6241   16.9425   23.0143 H   0  0  0  0  0  0  0  0  0  0  0  0
   10.8040   13.7611   20.5071 H   0  0  0  0  0  0  0  0  0  0  0  0
  1  3  2  0  0  0  0
  1  5  1  0  0  0  0
  2  4  1  0  0  0  0
  2  5  2  0  0  0  0
  3  6  1  0  0  0  0
  4  6  2  0  0  0  0
  5 22  1  0  0  0  0
  6 25  1  0  0  0  0
  7 23  1  0  0  0  0
  7 26  1  0  0  0  0
  7 29  2  0  0  0  0
  8 26  1  0  0  0  0
  8 27  1  0  0  0  0
  8 30  2  0  0  0  0
  9 24  1  0  0  0  0
  9 28  1  0  0  0  0
  9 31  2  0  0  0  0
 10 11  1  0  0  0  0
 10 18  1  0  0  0  0
 11 23  1  0  0  0  0
 12 20  1  0  0  0  0
 12 21  1  0  0  0  0
 13 20  1  0  0  0  0
 13 22  1  0  0  0  0
 14 21  1  0  0  0  0
 14 22  1  0  0  0  0
 15 20  1  0  0  0  0
 15 24  1  0  0  0  0
 16 21  1  0  0  0  0
 16 24  1  0  0  0  0
 17 22  1  0  0  0  0
 17 24  1  0  0  0  0
 18 28  1  0  0  0  0
 19 23  1  0  0  0  0
 19 28  1  0  0  0  0
 23 27  1  0  0  0  0
  1 32  1  0  0  0  0
  2 33  1  0  0  0  0
  3 34  1  0  0  0  0
  4 35  1  0  0  0  0
 10 36  1  0  0  0  0
 10 37  1  0  0  0  0
 11 38  1  0  0  0  0
 11 39  1  0  0  0  0
 12 40  1  0  0  0  0
 12 41  1  0  0  0  0
 13 42  1  0  0  0  0
 13 43  1  0  0  0  0
 14 44  1  0  0  0  0
 14 45  1  0  0  0  0
 15 46  1  0  0  0  0
 15 47  1  0  0  0  0
 16 48  1  0  0  0  0
 16 49  1  0  0  0  0
 17 50  1  0  0  0  0
 17 51  1  0  0  0  0
 18 52  1  0  0  0  0
 18 53  1  0  0  0  0
 19 54  1  0  0  0  0
 19 55  1  0  0  0  0
 20 56  1  0  0  0  0
 21 57  1  0  0  0  0
 25 58  1  0  0  0  0
 25 59  1  0  0  0  0
 25 60  1  0  0  0  0
 26 61  1  0  0  0  0
 27 62  1  0  0  0  0
M  END
> <idnumber>
Z1929431734

> <heavy_atoms>
31

> <LogS>
-5.798

> <LogP>
2.357

> <rotating_bonds>
2

> <PSA>
78.51

> <hb_acceptors>
3

> <hb_donors>
2

> <Collection>
Advanced

> <link>
https://www.enaminestore.com/catalog/Z1929431734

> <ROCS_ShapeQuery>
x0446_0A_x1080_0A_x0929_0A_x0812_0A_x0719_0A_x1140_0A_x0528_0A_x0310_0A

> <ROCS_TanimotoCombo>
0.456 

> <ROCS_ShapeTanimoto>
0.278 

> <ROCS_ColorTanimoto>
0.178 

> <ROCS_RefTversky>
0.254 

> <ROCS_RefColorTversky>
0.217 

> <ROCS_RefTverskyCombo>
0.471 

> <ROCS_FitTversky>
1.507 

> <ROCS_FitColorTversky>
0.501 

> <ROCS_FitTverskyCombo>
2.008 

> <ROCS_ColorScore>
-7.819

> <ROCS_Overlap>
3006.737

> <ROCS_Rank>
409                 

$$$$
untitled-dbase-326106_51
  -OEChem-02092406493D

 57 62  0     0  0  0  0  0  0999 V2000
   13.1672   14.5960   22.3830 C   0  0  0  0  0  0  0  0  0  0  0  0
    9.6731   16.1000   19.3830 C   0  0  0  0  0  0  0  0  0  0  0  0
   12.7882   15.1403   21.1593 C   0  0  0  0  0  0  0  0  0  0  0  0
   11.0214   15.9008   19.6422 C   0  0  0  0  0  0  0  0  0  0  0  0
   12.1935   14.2641   23.3169 C   0  0  0  0  0  0  0  0  0  0  0  0
    8.7743   15.7419   20.3672 C   0  0  0  0  0  0  0  0  0  0  0  0
   11.4307   15.3545   20.8661 C   0  0  0  0  0  0  0  0  0  0  0  0
    8.0399   12.5832   24.0762 C   0  0  0  0  0  0  0  0  0  0  0  0
    6.8868   13.4155   24.2707 C   0  0  0  0  0  0  0  0  0  0  0  0
   10.4368   15.0199   21.8095 C   0  0  0  0  0  0  0  0  0  0  0  0
   10.8439   14.4770   23.0251 C   0  0  0  0  0  0  0  0  0  0  0  0
    5.7270   12.6683   24.3646 C   0  0  0  0  0  0  0  0  0  0  0  0
    9.4056   12.8581   23.9376 C   0  0  0  0  0  0  0  0  0  0  0  0
    7.6805   11.2415   24.0234 C   0  0  0  0  0  0  0  0  0  0  0  0
    9.7968   10.5997   23.7292 C   0  0  0  0  0  0  0  0  0  0  0  0
    6.8760   14.9107   24.3964 C   0  0  0  0  0  0  0  0  0  0  0  0
    4.3516   13.2299   24.5480 C   0  0  0  0  0  0  0  0  0  0  0  0
    5.4640   15.4913   24.2239 C   0  0  0  0  0  0  0  0  0  0  0  0
    4.4225   14.6907   25.0177 C   0  0  0  0  0  0  0  0  0  0  0  0
   14.0533    9.6403   20.7364 C   0  0  0  0  0  0  0  0  0  0  0  0
   12.7879   10.4456   20.4642 C   0  0  0  0  0  0  0  0  0  0  0  0
   14.3416    9.5904   22.2326 C   0  0  0  0  0  0  0  0  0  0  0  0
   11.6154    9.9407   21.3068 C   0  0  0  0  0  0  0  0  0  0  0  0
   13.1200    9.1128   23.0191 C   0  0  0  0  0  0  0  0  0  0  0  0
   10.8008    9.5127   23.5330 C   0  0  0  0  0  0  0  0  0  0  0  0
    9.1275   15.2121   21.5607 N   0  0  0  0  0  0  0  0  0  0  0  0
   10.2893   11.8527   23.7622 N   0  0  0  0  0  0  0  0  0  0  0  0
    8.5186   10.2010   23.8504 N   0  0  0  0  0  0  0  0  0  0  0  0
   11.9472    9.9528   22.7385 N   0  0  0  0  0  0  0  0  0  0  0  0
    9.9079   14.1358   23.9787 O   0  0  0  0  0  0  0  0  0  0  0  0
    6.0044   10.9979   24.2069 S   0  0  0  0  0  0  0  0  0  0  0  0
   14.2170   14.4312   22.6054 H   0  0  0  0  0  0  0  0  0  0  0  0
    9.3391   16.5217   18.4423 H   0  0  0  0  0  0  0  0  0  0  0  0
   13.5584   15.3950   20.4345 H   0  0  0  0  0  0  0  0  0  0  0  0
   11.7516   16.1742   18.8839 H   0  0  0  0  0  0  0  0  0  0  0  0
   12.4877   13.8396   24.2730 H   0  0  0  0  0  0  0  0  0  0  0  0
    7.7074   15.8754   20.2213 H   0  0  0  0  0  0  0  0  0  0  0  0
    7.2613   15.1802   25.3874 H   0  0  0  0  0  0  0  0  0  0  0  0
    7.5374   15.3644   23.6503 H   0  0  0  0  0  0  0  0  0  0  0  0
    3.8190   13.1830   23.5899 H   0  0  0  0  0  0  0  0  0  0  0  0
    3.7786   12.6417   25.2737 H   0  0  0  0  0  0  0  0  0  0  0  0
    5.4579   16.5384   24.5466 H   0  0  0  0  0  0  0  0  0  0  0  0
    5.1897   15.4817   23.1611 H   0  0  0  0  0  0  0  0  0  0  0  0
    3.4352   15.1554   24.9169 H   0  0  0  0  0  0  0  0  0  0  0  0
    4.6837   14.7219   26.0834 H   0  0  0  0  0  0  0  0  0  0  0  0
   13.9273    8.6200   20.3537 H   0  0  0  0  0  0  0  0  0  0  0  0
   14.9026   10.0822   20.2039 H   0  0  0  0  0  0  0  0  0  0  0  0
   12.9722   11.5041   20.6882 H   0  0  0  0  0  0  0  0  0  0  0  0
   12.5326   10.3842   19.4002 H   0  0  0  0  0  0  0  0  0  0  0  0
   15.1890    8.9221   22.4234 H   0  0  0  0  0  0  0  0  0  0  0  0
   14.6363   10.5881   22.5821 H   0  0  0  0  0  0  0  0  0  0  0  0
   10.7584   10.5960   21.1227 H   0  0  0  0  0  0  0  0  0  0  0  0
   11.3381    8.9321   20.9812 H   0  0  0  0  0  0  0  0  0  0  0  0
   12.9141    8.0649   22.7751 H   0  0  0  0  0  0  0  0  0  0  0  0
   13.3617    9.1637   24.0853 H   0  0  0  0  0  0  0  0  0  0  0  0
   11.1852    9.1517   24.4968 H   0  0  0  0  0  0  0  0  0  0  0  0
   10.3601    8.6463   23.0217 H   0  0  0  0  0  0  0  0  0  0  0  0
  1  3  1  0  0  0  0
  1  5  2  0  0  0  0
  2  4  2  0  0  0  0
  2  6  1  0  0  0  0
  3  7  2  0  0  0  0
  4  7  1  0  0  0  0
  5 11  1  0  0  0  0
  6 26  2  0  0  0  0
  7 10  1  0  0  0  0
  8  9  1  0  0  0  0
  8 13  1  0  0  0  0
  8 14  2  0  0  0  0
  9 12  2  0  0  0  0
  9 16  1  0  0  0  0
 10 11  2  0  0  0  0
 10 26  1  0  0  0  0
 11 30  1  0  0  0  0
 12 17  1  0  0  0  0
 12 31  1  0  0  0  0
 13 27  2  0  0  0  0
 13 30  1  0  0  0  0
 14 28  1  0  0  0  0
 14 31  1  0  0  0  0
 15 25  1  0  0  0  0
 15 27  1  0  0  0  0
 15 28  2  0  0  0  0
 16 18  1  0  0  0  0
 17 19  1  0  0  0  0
 18 19  1  0  0  0  0
 20 21  1  0  0  0  0
 20 22  1  0  0  0  0
 21 23  1  0  0  0  0
 22 24  1  0  0  0  0
 23 29  1  0  0  0  0
 24 29  1  0  0  0  0
 25 29  1  0  0  0  0
  1 32  1  0  0  0  0
  2 33  1  0  0  0  0
  3 34  1  0  0  0  0
  4 35  1  0  0  0  0
  5 36  1  0  0  0  0
  6 37  1  0  0  0  0
 16 38  1  0  0  0  0
 16 39  1  0  0  0  0
 17 40  1  0  0  0  0
 17 41  1  0  0  0  0
 18 42  1  0  0  0  0
 18 43  1  0  0  0  0
 19 44  1  0  0  0  0
 19 45  1  0  0  0  0
 20 46  1  0  0  0  0
 20 47  1  0  0  0  0
 21 48  1  0  0  0  0
 21 49  1  0  0  0  0
 22 50  1  0  0  0  0
 22 51  1  0  0  0  0
 23 52  1  0  0  0  0
 23 53  1  0  0  0  0
 24 54  1  0  0  0  0
 24 55  1  0  0  0  0
 25 56  1  0  0  0  0
 25 57  1  0  0  0  0
M  END
> <idnumber>
Z31203813

> <heavy_atoms>
31

> <LogS>
-6.41

> <LogP>
5.47

> <rotating_bonds>
4

> <PSA>
51.14

> <hb_acceptors>
4

> <hb_donors>
0

> <Collection>
Legacy

> <link>
https://www.enaminestore.com/catalog/Z31203813

> <ROCS_ShapeQuery>
x0446_0A_x1080_0A_x0929_0A_x0812_0A_x0719_0A_x1140_0A_x0528_0A_x0310_0A

> <ROCS_TanimotoCombo>
0.456 

> <ROCS_ShapeTanimoto>
0.262 

> <ROCS_ColorTanimoto>
0.194 

> <ROCS_RefTversky>
0.243 

> <ROCS_RefColorTversky>
0.218 

> <ROCS_RefTverskyCombo>
0.461 

> <ROCS_FitTversky>
1.448 

> <ROCS_FitColorTversky>
0.633 

> <ROCS_FitTverskyCombo>
2.081 

> <ROCS_ColorScore>
-7.827

> <ROCS_Overlap>
2872.575

> <ROCS_Rank>
410                 

$$$$
untitled-dbase-512152_43
  -OEChem-02092406493D

 39 41  0     0  0  0  0  0  0999 V2000
    5.8252   13.2696   25.1352 C   0  0  0  0  0  0  0  0  0  0  0  0
    5.3657   11.9573   25.1481 C   0  0  0  0  0  0  0  0  0  0  0  0
    7.1320   13.5354   24.7383 C   0  0  0  0  0  0  0  0  0  0  0  0
    6.2132   10.9140   24.7641 C   0  0  0  0  0  0  0  0  0  0  0  0
   12.1329   14.5755   23.5166 C   0  0  0  0  0  0  0  0  0  0  0  0
   13.1155   15.1745   22.7284 C   0  0  0  0  0  0  0  0  0  0  0  0
   11.4313   15.8237   21.1224 C   0  0  0  0  0  0  0  0  0  0  0  0
    7.9781   12.4807   24.3536 C   0  0  0  0  0  0  0  0  0  0  0  0
    7.5255   11.1513   24.3623 C   0  0  0  0  0  0  0  0  0  0  0  0
   10.7995   14.6004   23.1077 C   0  0  0  0  0  0  0  0  0  0  0  0
   12.7647   15.7987   21.5313 C   0  0  0  0  0  0  0  0  0  0  0  0
   10.4487   15.2246   21.9106 C   0  0  0  0  0  0  0  0  0  0  0  0
    9.2945   12.6782   23.9463 C   0  0  0  0  0  0  0  0  0  0  0  0
    9.5810   10.4566   23.6218 C   0  0  0  0  0  0  0  0  0  0  0  0
   15.0660   16.3224   21.2388 C   0  0  0  0  0  0  0  0  0  0  0  0
    8.7070   14.1800   20.6733 C   0  0  0  0  0  0  0  0  0  0  0  0
   10.4632    9.3244   23.2174 C   0  0  0  0  0  0  0  0  0  0  0  0
    8.3261   10.1350   23.9961 N   0  0  0  0  0  0  0  0  0  0  0  0
   10.1227   11.6843   23.5737 N   0  0  0  0  0  0  0  0  0  0  0  0
    9.8214   13.9934   23.9110 N   0  0  0  0  0  0  0  0  0  0  0  0
   13.7228   16.3840   20.7617 O   0  0  0  0  0  0  0  0  0  0  0  0
    9.1517   15.2587   21.4928 O   0  0  0  0  0  0  0  0  0  0  0  0
    9.8545    8.1035   23.2881 F   0  0  0  0  0  0  0  0  0  0  0  0
   10.9215    9.4196   21.9341 F   0  0  0  0  0  0  0  0  0  0  0  0
   11.5785    9.2228   23.9977 F   0  0  0  0  0  0  0  0  0  0  0  0
    5.1684   14.0813   25.4328 H   0  0  0  0  0  0  0  0  0  0  0  0
    4.3468   11.7405   25.4558 H   0  0  0  0  0  0  0  0  0  0  0  0
    7.4681   14.5690   24.7374 H   0  0  0  0  0  0  0  0  0  0  0  0
    5.8292    9.8956   24.7849 H   0  0  0  0  0  0  0  0  0  0  0  0
   12.4183   14.0916   24.4473 H   0  0  0  0  0  0  0  0  0  0  0  0
   14.1526   15.1509   23.0517 H   0  0  0  0  0  0  0  0  0  0  0  0
   11.1590   16.3095   20.1886 H   0  0  0  0  0  0  0  0  0  0  0  0
   15.7283   16.8268   20.5310 H   0  0  0  0  0  0  0  0  0  0  0  0
   15.3653   15.2776   21.3534 H   0  0  0  0  0  0  0  0  0  0  0  0
   15.1223   16.8239   22.2079 H   0  0  0  0  0  0  0  0  0  0  0  0
    7.6569   14.3297   20.4108 H   0  0  0  0  0  0  0  0  0  0  0  0
    8.8278   13.2373   21.2130 H   0  0  0  0  0  0  0  0  0  0  0  0
    9.3082   14.1550   19.7614 H   0  0  0  0  0  0  0  0  0  0  0  0
    9.4073   14.6089   24.6008 H   0  0  0  0  0  0  0  0  0  0  0  0
  1  2  1  0  0  0  0
  1  3  2  0  0  0  0
  2  4  2  0  0  0  0
  3  8  1  0  0  0  0
  4  9  1  0  0  0  0
  5  6  2  0  0  0  0
  5 10  1  0  0  0  0
  6 11  1  0  0  0  0
  7 11  2  0  0  0  0
  7 12  1  0  0  0  0
  8  9  1  0  0  0  0
  8 13  2  0  0  0  0
  9 18  2  0  0  0  0
 10 12  2  0  0  0  0
 10 20  1  0  0  0  0
 11 21  1  0  0  0  0
 12 22  1  0  0  0  0
 13 19  1  0  0  0  0
 13 20  1  0  0  0  0
 14 17  1  0  0  0  0
 14 18  1  0  0  0  0
 14 19  2  0  0  0  0
 15 21  1  0  0  0  0
 16 22  1  0  0  0  0
 17 23  1  0  0  0  0
 17 24  1  0  0  0  0
 17 25  1  0  0  0  0
  1 26  1  0  0  0  0
  2 27  1  0  0  0  0
  3 28  1  0  0  0  0
  4 29  1  0  0  0  0
  5 30  1  0  0  0  0
  6 31  1  0  0  0  0
  7 32  1  0  0  0  0
 15 33  1  0  0  0  0
 15 34  1  0  0  0  0
 15 35  1  0  0  0  0
 16 36  1  0  0  0  0
 16 37  1  0  0  0  0
 16 38  1  0  0  0  0
 20 39  1  0  0  0  0
M  END
> <idnumber>
Z86257706

> <heavy_atoms>
25

> <LogS>
-5.07

> <LogP>
4.73

> <rotating_bonds>
5

> <PSA>
56.27

> <hb_acceptors>
5

> <hb_donors>
1

> <Collection>
Legacy

> <link>
https://www.enaminestore.com/catalog/Z86257706

> <ROCS_ShapeQuery>
x0446_0A_x1080_0A_x0929_0A_x0812_0A_x0719_0A_x1140_0A_x0528_0A_x0310_0A

> <ROCS_TanimotoCombo>
0.456 

> <ROCS_ShapeTanimoto>
0.271 

> <ROCS_ColorTanimoto>
0.185 

> <ROCS_RefTversky>
0.244 

> <ROCS_RefColorTversky>
0.197 

> <ROCS_RefTverskyCombo>
0.442 

> <ROCS_FitTversky>
1.674 

> <ROCS_FitColorTversky>
0.745 

> <ROCS_FitTverskyCombo>
2.419 

> <ROCS_ColorScore>
-7.057

> <ROCS_Overlap>
2889.270

> <ROCS_Rank>
411                 

$$$$
untitled-dbase-662249_41
  -OEChem-02092406493D

 60 65  0     1  0  0  0  0  0999 V2000
    4.2281   17.0794   22.2877 C   0  0  0  0  0  0  0  0  0  0  0  0
    3.9927   15.7086   22.5187 C   0  0  0  0  0  0  0  0  0  0  0  0
    6.4669   13.5165   25.3702 C   0  0  0  0  0  0  0  0  0  0  0  0
    5.7119   12.3682   25.1836 C   0  0  0  0  0  0  0  0  0  0  0  0
    5.4412   17.5197   21.7508 C   0  0  0  0  0  0  0  0  0  0  0  0
    4.9655   14.7513   22.2169 C   0  0  0  0  0  0  0  0  0  0  0  0
   11.0652   16.2264   21.9529 C   0  0  0  0  0  0  0  0  0  0  0  0
    7.8117   13.5187   25.0059 C   0  0  0  0  0  0  0  0  0  0  0  0
    6.3103   11.2358   24.6342 C   0  0  0  0  0  0  0  0  0  0  0  0
   12.0276   16.1725   22.9611 C   0  0  0  0  0  0  0  0  0  0  0  0
   11.0626   13.8137   21.8263 C   0  0  0  0  0  0  0  0  0  0  0  0
    6.3864   16.5575   21.4606 C   0  0  0  0  0  0  0  0  0  0  0  0
    6.1547   15.2087   21.6874 C   0  0  0  0  0  0  0  0  0  0  0  0
   12.0251   13.7598   22.8344 C   0  0  0  0  0  0  0  0  0  0  0  0
   10.5827   15.0470   21.3855 C   0  0  0  0  0  0  0  0  0  0  0  0
    8.4126   12.3882   24.4563 C   0  0  0  0  0  0  0  0  0  0  0  0
    7.6546   11.2340   24.2672 C   0  0  0  0  0  0  0  0  0  0  0  0
   12.5076   14.9392   23.4018 C   0  0  0  0  0  0  0  0  0  0  0  0
   10.2777   11.3068   23.5656 C   0  0  0  0  0  0  0  0  0  0  0  0
    9.5278   10.1475   23.3718 C   0  0  0  0  0  0  0  0  0  0  0  0
    7.7301   16.6985   20.9014 C   0  0  0  0  0  0  0  0  0  0  0  0
    7.3472   14.4680   21.2764 C   0  0  0  0  0  0  0  0  0  0  0  0
   12.5181   12.4483   23.2849 C   0  0  0  0  0  0  0  0  0  0  0  0
   12.2920   10.0272   22.9459 C   0  0  0  0  0  0  0  0  0  0  0  0
   11.3743    9.1206   22.1494 C   0  0  0  0  0  0  0  0  0  0  0  0
    9.2455    7.8593   22.5277 C   0  0  0  0  0  0  0  0  0  0  0  0
   13.8829   16.1617   24.9083 C   0  0  0  0  0  0  0  0  0  0  0  0
    9.5548   15.1051   20.3065 C   0  0  0  0  0  0  0  0  0  0  0  0
    9.7063   12.4049   24.1120 N   0  0  0  0  0  0  0  0  0  0  0  0
    8.2189   10.1389   23.7374 N   0  0  0  0  0  0  0  0  0  0  0  0
   11.6754   11.3231   23.2264 N   0  0  0  0  0  0  0  0  0  0  0  0
   10.0950    9.0003   22.8227 N   0  0  2  0  0  0  0  0  0  0  0  0
    8.2431   15.4160   20.8155 N   0  0  0  0  0  0  0  0  0  0  0  0
    8.2347   17.7626   20.5947 O   0  0  0  0  0  0  0  0  0  0  0  0
    7.4570   13.2585   21.3539 O   0  0  0  0  0  0  0  0  0  0  0  0
   13.6980   12.4188   23.6404 O   0  0  0  0  0  0  0  0  0  0  0  0
   13.4484   14.9075   24.3874 O   0  0  0  0  0  0  0  0  0  0  0  0
    3.4536   17.8021   22.5317 H   0  0  0  0  0  0  0  0  0  0  0  0
    3.0403   15.3941   22.9377 H   0  0  0  0  0  0  0  0  0  0  0  0
    6.0143   14.4067   25.7960 H   0  0  0  0  0  0  0  0  0  0  0  0
    4.6630   12.3507   25.4634 H   0  0  0  0  0  0  0  0  0  0  0  0
    5.6220   18.5735   21.5739 H   0  0  0  0  0  0  0  0  0  0  0  0
    4.7842   13.6980   22.3946 H   0  0  0  0  0  0  0  0  0  0  0  0
   10.6981   17.1914   21.6140 H   0  0  0  0  0  0  0  0  0  0  0  0
    8.3952   14.4243   25.1566 H   0  0  0  0  0  0  0  0  0  0  0  0
    5.7087   10.3402   24.4936 H   0  0  0  0  0  0  0  0  0  0  0  0
   12.3999   17.0949   23.3985 H   0  0  0  0  0  0  0  0  0  0  0  0
   10.6852   12.8959   21.3809 H   0  0  0  0  0  0  0  0  0  0  0  0
   12.5573    9.5225   23.8773 H   0  0  0  0  0  0  0  0  0  0  0  0
   13.2203   10.2184   22.3984 H   0  0  0  0  0  0  0  0  0  0  0  0
   11.2422    9.5399   21.1455 H   0  0  0  0  0  0  0  0  0  0  0  0
   11.8263    8.1282   22.0282 H   0  0  0  0  0  0  0  0  0  0  0  0
    9.8546    7.0481   22.1024 H   0  0  0  0  0  0  0  0  0  0  0  0
    8.7656    7.5103   23.4539 H   0  0  0  0  0  0  0  0  0  0  0  0
    8.4724    8.1554   21.8034 H   0  0  0  0  0  0  0  0  0  0  0  0
   14.6322   15.9943   25.6859 H   0  0  0  0  0  0  0  0  0  0  0  0
   13.0274   16.7016   25.3220 H   0  0  0  0  0  0  0  0  0  0  0  0
   14.3251   16.7485   24.0997 H   0  0  0  0  0  0  0  0  0  0  0  0
    9.8082   15.8695   19.5587 H   0  0  0  0  0  0  0  0  0  0  0  0
    9.4795   14.1493   19.7698 H   0  0  0  0  0  0  0  0  0  0  0  0
  1  2  1  0  0  0  0
  1  5  2  0  0  0  0
  2  6  2  0  0  0  0
  3  4  1  0  0  0  0
  3  8  2  0  0  0  0
  4  9  2  0  0  0  0
  5 12  1  0  0  0  0
  6 13  1  0  0  0  0
  7 10  2  0  0  0  0
  7 15  1  0  0  0  0
  8 16  1  0  0  0  0
  9 17  1  0  0  0  0
 10 18  1  0  0  0  0
 11 14  1  0  0  0  0
 11 15  2  0  0  0  0
 12 13  2  0  0  0  0
 12 21  1  0  0  0  0
 13 22  1  0  0  0  0
 14 18  2  0  0  0  0
 14 23  1  0  0  0  0
 15 28  1  0  0  0  0
 16 17  1  0  0  0  0
 16 29  2  0  0  0  0
 17 30  2  0  0  0  0
 18 37  1  0  0  0  0
 19 20  2  0  0  0  0
 19 29  1  0  0  0  0
 19 31  1  0  0  0  0
 20 30  1  0  0  0  0
 20 32  1  0  0  0  0
 21 33  1  0  0  0  0
 21 34  2  0  0  0  0
 22 33  1  0  0  0  0
 22 35  2  0  0  0  0
 23 31  1  0  0  0  0
 23 36  2  0  0  0  0
 24 25  1  0  0  0  0
 24 31  1  0  0  0  0
 25 32  1  0  0  0  0
 26 32  1  0  0  0  0
 27 37  1  0  0  0  0
 28 33  1  0  0  0  0
  1 38  1  0  0  0  0
  2 39  1  0  0  0  0
  3 40  1  0  0  0  0
  4 41  1  0  0  0  0
  5 42  1  0  0  0  0
  6 43  1  0  0  0  0
  7 44  1  0  0  0  0
  8 45  1  0  0  0  0
  9 46  1  0  0  0  0
 10 47  1  0  0  0  0
 11 48  1  0  0  0  0
 24 49  1  0  0  0  0
 24 50  1  0  0  0  0
 25 51  1  0  0  0  0
 25 52  1  0  0  0  0
 26 53  1  0  0  0  0
 26 54  1  0  0  0  0
 26 55  1  0  0  0  0
 27 56  1  0  0  0  0
 27 57  1  0  0  0  0
 27 58  1  0  0  0  0
 28 59  1  0  0  0  0
 28 60  1  0  0  0  0
M  END
> <idnumber>
Z235431196

> <heavy_atoms>
37

> <LogS>
-6.93

> <LogP>
4.02

> <rotating_bonds>
4

> <PSA>
95.94

> <hb_acceptors>
7

> <hb_donors>
0

> <Collection>
Legacy

> <link>
https://www.enaminestore.com/catalog/Z235431196

> <ROCS_ShapeQuery>
x0446_0A_x1080_0A_x0929_0A_x0812_0A_x0719_0A_x1140_0A_x0528_0A_x0310_0A

> <ROCS_TanimotoCombo>
0.456 

> <ROCS_ShapeTanimoto>
0.307 

> <ROCS_ColorTanimoto>
0.149 

> <ROCS_RefTversky>
0.281 

> <ROCS_RefColorTversky>
0.177 

> <ROCS_RefTverskyCombo>
0.458 

> <ROCS_FitTversky>
1.448 

> <ROCS_FitColorTversky>
0.480 

> <ROCS_FitTverskyCombo>
1.928 

> <ROCS_ColorScore>
-6.378

> <ROCS_Overlap>
3325.060

> <ROCS_Rank>
412                 

$$$$
untitled-dbase-442161_109
  -OEChem-02092406493D

 57 61  0     1  0  0  0  0  0999 V2000
   10.3095   14.5280   21.5177 C   0  0  0  0  0  0  0  0  0  0  0  0
   11.9779   14.2228   23.2383 C   0  0  0  0  0  0  0  0  0  0  0  0
   11.0325   15.6064   21.0079 C   0  0  0  0  0  0  0  0  0  0  0  0
   12.7010   15.3012   22.7284 C   0  0  0  0  0  0  0  0  0  0  0  0
   10.7821   13.8363   22.6330 C   0  0  0  0  0  0  0  0  0  0  0  0
   12.2282   15.9930   21.6132 C   0  0  0  0  0  0  0  0  0  0  0  0
    6.4036   12.4346   24.6731 C   0  0  0  0  0  0  0  0  0  0  0  0
    9.7411    9.7815   24.0162 C   0  0  0  0  0  0  0  0  0  0  0  0
    9.7901   11.4821   22.1773 C   0  0  0  0  0  0  0  0  0  0  0  0
   10.7159   12.0549   24.4368 C   0  0  0  0  0  0  0  0  0  0  0  0
    7.6069   10.8302   23.2203 C   0  0  0  0  0  0  0  0  0  0  0  0
    8.5277   11.4123   25.4815 C   0  0  0  0  0  0  0  0  0  0  0  0
    8.5664   13.1152   23.6342 C   0  0  0  0  0  0  0  0  0  0  0  0
    5.0501   15.5299   22.9783 C   0  0  0  0  0  0  0  0  0  0  0  0
    4.2049   13.2751   22.9844 C   0  0  0  0  0  0  0  0  0  0  0  0
    4.3926   15.7424   21.6177 C   0  0  0  0  0  0  0  0  0  0  0  0
    3.5683   13.5404   21.6231 C   0  0  0  0  0  0  0  0  0  0  0  0
    8.9900   10.3206   22.7910 C   0  0  2  0  0  0  0  0  0  0  0  0
    9.9122   10.8978   25.0556 C   0  0  1  0  0  0  0  0  0  0  0  0
    9.9861   12.6479   23.1955 C   0  0  0  0  0  0  0  0  0  0  0  0
    7.7652   11.9541   24.2577 C   0  0  0  0  0  0  0  0  0  0  0  0
   13.0016   17.1450   21.0663 C   0  0  0  0  0  0  0  0  0  0  0  0
    6.0222   13.8836   24.4498 C   0  0  0  0  0  0  0  0  0  0  0  0
    5.4012   14.1129   23.1469 N   0  0  0  0  0  0  0  0  0  0  0  0
    5.5987   11.6590   25.1948 O   0  0  0  0  0  0  0  0  0  0  0  0
    3.2305   14.9218   21.4931 O   0  0  0  0  0  0  0  0  0  0  0  0
    9.3785   14.2342   21.0401 H   0  0  0  0  0  0  0  0  0  0  0  0
   12.3540   13.6886   24.1069 H   0  0  0  0  0  0  0  0  0  0  0  0
   10.6575   16.1385   20.1378 H   0  0  0  0  0  0  0  0  0  0  0  0
   13.6316   15.5959   23.2062 H   0  0  0  0  0  0  0  0  0  0  0  0
    9.1892    8.9413   24.4550 H   0  0  0  0  0  0  0  0  0  0  0  0
   10.7225    9.3952   23.7151 H   0  0  0  0  0  0  0  0  0  0  0  0
   10.7677   11.1152   21.8360 H   0  0  0  0  0  0  0  0  0  0  0  0
    9.2736   11.8511   21.2806 H   0  0  0  0  0  0  0  0  0  0  0  0
   10.8701   12.8394   25.1899 H   0  0  0  0  0  0  0  0  0  0  0  0
   11.7162   11.7005   24.1534 H   0  0  0  0  0  0  0  0  0  0  0  0
    7.0521   11.1920   22.3445 H   0  0  0  0  0  0  0  0  0  0  0  0
    7.0160   10.0038   23.6370 H   0  0  0  0  0  0  0  0  0  0  0  0
    7.9612   10.6014   25.9581 H   0  0  0  0  0  0  0  0  0  0  0  0
    8.6366   12.1970   26.2418 H   0  0  0  0  0  0  0  0  0  0  0  0
    8.6507   13.9416   24.3544 H   0  0  0  0  0  0  0  0  0  0  0  0
    8.0248   13.5300   22.7720 H   0  0  0  0  0  0  0  0  0  0  0  0
    5.9482   16.1496   23.0381 H   0  0  0  0  0  0  0  0  0  0  0  0
    4.3587   15.8421   23.7673 H   0  0  0  0  0  0  0  0  0  0  0  0
    3.4798   13.4976   23.7735 H   0  0  0  0  0  0  0  0  0  0  0  0
    4.4743   12.2179   23.0477 H   0  0  0  0  0  0  0  0  0  0  0  0
    4.0764   16.7857   21.5164 H   0  0  0  0  0  0  0  0  0  0  0  0
    5.0851   15.5240   20.7958 H   0  0  0  0  0  0  0  0  0  0  0  0
    4.2324   13.2471   20.8007 H   0  0  0  0  0  0  0  0  0  0  0  0
    2.6445   12.9616   21.5243 H   0  0  0  0  0  0  0  0  0  0  0  0
    8.8739    9.5220   22.0496 H   0  0  0  0  0  0  0  0  0  0  0  0
   10.4449   10.5080   25.9303 H   0  0  0  0  0  0  0  0  0  0  0  0
   12.6812   18.0801   21.5417 H   0  0  0  0  0  0  0  0  0  0  0  0
   14.0786   17.0190   21.2373 H   0  0  0  0  0  0  0  0  0  0  0  0
   12.8613   17.2401   19.9817 H   0  0  0  0  0  0  0  0  0  0  0  0
    6.9213   14.5029   24.5049 H   0  0  0  0  0  0  0  0  0  0  0  0
    5.3069   14.1875   25.2185 H   0  0  0  0  0  0  0  0  0  0  0  0
  1  3  2  0  0  0  0
  1  5  1  0  0  0  0
  2  4  1  0  0  0  0
  2  5  2  0  0  0  0
  3  6  1  0  0  0  0
  4  6  2  0  0  0  0
  5 20  1  0  0  0  0
  6 22  1  0  0  0  0
  7 21  1  0  0  0  0
  7 23  1  0  0  0  0
  7 25  2  0  0  0  0
  8 18  1  0  0  0  0
  8 19  1  0  0  0  0
  9 18  1  0  0  0  0
  9 20  1  0  0  0  0
 10 19  1  0  0  0  0
 10 20  1  0  0  0  0
 11 18  1  0  0  0  0
 11 21  1  0  0  0  0
 12 19  1  0  0  0  0
 12 21  1  0  0  0  0
 13 20  1  0  0  0  0
 13 21  1  0  0  0  0
 14 16  1  0  0  0  0
 14 24  1  0  0  0  0
 15 17  1  0  0  0  0
 15 24  1  0  0  0  0
 16 26  1  0  0  0  0
 17 26  1  0  0  0  0
 23 24  1  0  0  0  0
  1 27  1  0  0  0  0
  2 28  1  0  0  0  0
  3 29  1  0  0  0  0
  4 30  1  0  0  0  0
  8 31  1  0  0  0  0
  8 32  1  0  0  0  0
  9 33  1  0  0  0  0
  9 34  1  0  0  0  0
 10 35  1  0  0  0  0
 10 36  1  0  0  0  0
 11 37  1  0  0  0  0
 11 38  1  0  0  0  0
 12 39  1  0  0  0  0
 12 40  1  0  0  0  0
 13 41  1  0  0  0  0
 13 42  1  0  0  0  0
 14 43  1  0  0  0  0
 14 44  1  0  0  0  0
 15 45  1  0  0  0  0
 15 46  1  0  0  0  0
 16 47  1  0  0  0  0
 16 48  1  0  0  0  0
 17 49  1  0  0  0  0
 17 50  1  0  0  0  0
 18 51  1  0  0  0  0
 19 52  1  0  0  0  0
 22 53  1  0  0  0  0
 22 54  1  0  0  0  0
 22 55  1  0  0  0  0
 23 56  1  0  0  0  0
 23 57  1  0  0  0  0
M  END
> <idnumber>
Z56795983

> <heavy_atoms>
26

> <LogS>
-4.62

> <LogP>
4.595

> <rotating_bonds>
4

> <PSA>
29.54

> <hb_acceptors>
3

> <hb_donors>
0

> <Collection>
HTS

> <link>
https://www.enaminestore.com/catalog/Z56795983

> <ROCS_ShapeQuery>
x0446_0A_x1080_0A_x0929_0A_x0812_0A_x0719_0A_x1140_0A_x0528_0A_x0310_0A

> <ROCS_TanimotoCombo>
0.456 

> <ROCS_ShapeTanimoto>
0.276 

> <ROCS_ColorTanimoto>
0.180 

> <ROCS_RefTversky>
0.248 

> <ROCS_RefColorTversky>
0.206 

> <ROCS_RefTverskyCombo>
0.455 

> <ROCS_FitTversky>
1.687 

> <ROCS_FitColorTversky>
0.582 

> <ROCS_FitTverskyCombo>
2.268 

> <ROCS_ColorScore>
-7.412

> <ROCS_Overlap>
2936.460

> <ROCS_Rank>
413                 

$$$$
untitled-dbase-1080320_76
  -OEChem-02092406493D

 41 44  0     1  0  0  0  0  0999 V2000
    3.7870   13.1710   23.5188 C   0  0  0  0  0  0  0  0  0  0  0  0
    4.8615   13.9475   23.9381 C   0  0  0  0  0  0  0  0  0  0  0  0
    3.1867   13.4921   22.3121 C   0  0  0  0  0  0  0  0  0  0  0  0
    4.6288   15.2453   21.9588 C   0  0  0  0  0  0  0  0  0  0  0  0
    5.2966   15.0065   23.1490 C   0  0  0  0  0  0  0  0  0  0  0  0
   10.2318   10.4542   24.1269 C   0  0  0  0  0  0  0  0  0  0  0  0
    9.8582   11.6074   25.0842 C   0  0  0  0  0  0  0  0  0  0  0  0
    9.6816   11.8800   22.1454 C   0  0  0  0  0  0  0  0  0  0  0  0
    9.3805   10.5287   22.8388 C   0  0  2  0  0  0  0  0  0  0  0  0
    8.7734   12.5000   24.4374 C   0  0  2  0  0  0  0  0  0  0  0  0
    7.9027   10.5298   23.1745 C   0  0  2  0  0  0  0  0  0  0  0  0
    7.5523   11.6638   24.0938 C   0  0  1  0  0  0  0  0  0  0  0  0
    9.3763   13.0465   23.1169 C   0  0  2  0  0  0  0  0  0  0  0  0
    8.6585   15.7288   24.6660 C   0  0  0  0  0  0  0  0  0  0  0  0
    6.4542   15.8630   23.5739 C   0  0  0  0  0  0  0  0  0  0  0  0
    3.5812   14.5129   21.5184 N   0  0  0  0  0  0  0  0  0  0  0  0
    7.6976   15.0709   23.7457 N   0  0  1  0  0  0  0  0  0  0  0  0
    7.2546   13.5648   21.6847 O   0  0  0  0  0  0  0  0  0  0  0  0
    9.1812   15.1812   21.6245 O   0  0  0  0  0  0  0  0  0  0  0  0
    7.5202   10.3015   24.5335 O   0  0  0  0  0  0  0  0  0  0  0  0
    8.3317   14.2639   22.3657 S   0  0  0  0  0  0  0  0  0  0  0  0
    3.4309   12.3405   24.1175 H   0  0  0  0  0  0  0  0  0  0  0  0
    5.3533   13.7204   24.8801 H   0  0  0  0  0  0  0  0  0  0  0  0
    2.3446   12.9170   21.9411 H   0  0  0  0  0  0  0  0  0  0  0  0
    4.9233   16.0576   21.3015 H   0  0  0  0  0  0  0  0  0  0  0  0
   11.2986   10.5092   23.8792 H   0  0  0  0  0  0  0  0  0  0  0  0
   10.0750    9.4933   24.6318 H   0  0  0  0  0  0  0  0  0  0  0  0
    9.4963   11.1956   26.0341 H   0  0  0  0  0  0  0  0  0  0  0  0
   10.7510   12.1989   25.3194 H   0  0  0  0  0  0  0  0  0  0  0  0
   10.7370   11.9190   21.8494 H   0  0  0  0  0  0  0  0  0  0  0  0
    9.0921   11.9619   21.2240 H   0  0  0  0  0  0  0  0  0  0  0  0
    9.6193    9.6918   22.1748 H   0  0  0  0  0  0  0  0  0  0  0  0
    8.4939   13.3124   25.1165 H   0  0  0  0  0  0  0  0  0  0  0  0
    7.2321   10.2732   22.3693 H   0  0  0  0  0  0  0  0  0  0  0  0
    6.6284   12.2024   23.9534 H   0  0  0  0  0  0  0  0  0  0  0  0
   10.3066   13.5859   23.3359 H   0  0  0  0  0  0  0  0  0  0  0  0
    9.5606   15.1066   24.7612 H   0  0  0  0  0  0  0  0  0  0  0  0
    8.9342   16.7150   24.2642 H   0  0  0  0  0  0  0  0  0  0  0  0
    8.1928   15.8529   25.6548 H   0  0  0  0  0  0  0  0  0  0  0  0
    6.6511   16.6427   22.8300 H   0  0  0  0  0  0  0  0  0  0  0  0
    6.2435   16.3655   24.5237 H   0  0  0  0  0  0  0  0  0  0  0  0
  1  2  2  0  0  0  0
  1  3  1  0  0  0  0
  2  5  1  0  0  0  0
  3 16  2  0  0  0  0
  4  5  2  0  0  0  0
  4 16  1  0  0  0  0
  5 15  1  0  0  0  0
  6  7  1  0  0  0  0
  6  9  1  0  0  0  0
  7 10  1  1  0  0  0
  8  9  1  6  0  0  0
  8 13  1  0  0  0  0
  9 11  1  0  0  0  0
 10 12  1  0  0  0  0
 10 13  1  0  0  0  0
 11 12  1  0  0  0  0
 11 20  1  1  0  0  0
 12 20  1  1  0  0  0
 13 21  1  6  0  0  0
 14 17  1  0  0  0  0
 15 17  1  0  0  0  0
 17 21  1  0  0  0  0
 18 21  2  0  0  0  0
 19 21  2  0  0  0  0
  1 22  1  0  0  0  0
  2 23  1  0  0  0  0
  3 24  1  0  0  0  0
  4 25  1  0  0  0  0
  6 26  1  0  0  0  0
  6 27  1  0  0  0  0
  7 28  1  0  0  0  0
  7 29  1  0  0  0  0
  8 30  1  0  0  0  0
  8 31  1  0  0  0  0
  9 32  1  0  0  0  0
 10 33  1  0  0  0  0
 11 34  1  0  0  0  0
 12 35  1  0  0  0  0
 13 36  1  0  0  0  0
 14 37  1  0  0  0  0
 14 38  1  0  0  0  0
 14 39  1  0  0  0  0
 15 40  1  0  0  0  0
 15 41  1  0  0  0  0
M  END
> <idnumber>
Z4259839786

> <heavy_atoms>
21

> <LogS>
-2.514

> <LogP>
0.774

> <rotating_bonds>
3

> <PSA>
62.8

> <hb_acceptors>
4

> <hb_donors>
0

> <Collection>
Functional

> <link>
https://www.enaminestore.com/catalog/Z4259839786

> <ROCS_ShapeQuery>
x0446_0A_x1080_0A_x0929_0A_x0812_0A_x0719_0A_x1140_0A_x0528_0A_x0310_0A

> <ROCS_TanimotoCombo>
0.456 

> <ROCS_ShapeTanimoto>
0.216 

> <ROCS_ColorTanimoto>
0.240 

> <ROCS_RefTversky>
0.200 

> <ROCS_RefColorTversky>
0.311 

> <ROCS_RefTverskyCombo>
0.512 

> <ROCS_FitTversky>
1.577 

> <ROCS_FitColorTversky>
0.511 

> <ROCS_FitTverskyCombo>
2.088 

> <ROCS_ColorScore>
-11.324

> <ROCS_Overlap>
2367.444

> <ROCS_Rank>
414                 

$$$$
untitled-dbase-960293_17
  -OEChem-02092406493D

 48 52  0     1  0  0  0  0  0999 V2000
   12.9301   17.1983   21.3302 C   0  0  0  0  0  0  0  0  0  0  0  0
   14.0376   16.3697   21.4730 C   0  0  0  0  0  0  0  0  0  0  0  0
   11.6563   16.7503   21.6923 C   0  0  0  0  0  0  0  0  0  0  0  0
   13.9033   15.0747   21.9798 C   0  0  0  0  0  0  0  0  0  0  0  0
   11.4927   15.4460   22.2071 C   0  0  0  0  0  0  0  0  0  0  0  0
   12.6210   14.6312   22.3414 C   0  0  0  0  0  0  0  0  0  0  0  0
   10.5188   13.6461   23.0312 C   0  0  0  0  0  0  0  0  0  0  0  0
    7.3975   13.9785   23.6921 C   0  0  0  0  0  0  0  0  0  0  0  0
    7.3817   11.2090   24.7529 C   0  0  0  0  0  0  0  0  0  0  0  0
    8.7906   11.3380   25.3406 C   0  0  0  0  0  0  0  0  0  0  0  0
    9.6893   10.3739   23.1990 C   0  0  0  0  0  0  0  0  0  0  0  0
    4.1885   15.0826   23.8152 C   0  0  0  0  0  0  0  0  0  0  0  0
    4.8964   16.3435   22.2024 C   0  0  0  0  0  0  0  0  0  0  0  0
    8.1371   12.8733   22.9999 C   0  0  2  0  0  0  0  0  0  0  0  0
    7.4351   11.5135   23.2453 C   0  0  1  0  0  0  0  0  0  0  0  0
    9.8325   11.5243   24.2165 C   0  0  1  0  0  0  0  0  0  0  0  0
    5.5578   15.6495   23.4049 C   0  0  2  0  0  0  0  0  0  0  0  0
    3.5959   15.5574   22.4717 C   0  0  1  0  0  0  0  0  0  0  0  0
    8.2883   10.4196   22.5813 C   0  0  0  0  0  0  0  0  0  0  0  0
   10.2964   14.8678   22.6060 N   0  0  0  0  0  0  0  0  0  0  0  0
    9.5255   12.7870   23.5052 N   0  0  1  0  0  0  0  0  0  0  0  0
    6.4031   14.5561   22.9259 N   0  0  0  0  0  0  0  0  0  0  0  0
    7.7039   14.2853   24.8383 O   0  0  0  0  0  0  0  0  0  0  0  0
    3.2558   14.5312   21.5202 O   0  0  0  0  0  0  0  0  0  0  0  0
    8.3811   10.6534   21.2484 F   0  0  0  0  0  0  0  0  0  0  0  0
    7.6876    9.2118   22.7163 F   0  0  0  0  0  0  0  0  0  0  0  0
   12.1413   13.1060   22.9868 S   0  0  0  0  0  0  0  0  0  0  0  0
   13.0537   18.2026   20.9344 H   0  0  0  0  0  0  0  0  0  0  0  0
   15.0214   16.7327   21.1873 H   0  0  0  0  0  0  0  0  0  0  0  0
   10.7982   17.4062   21.5766 H   0  0  0  0  0  0  0  0  0  0  0  0
   14.7725   14.4333   22.0886 H   0  0  0  0  0  0  0  0  0  0  0  0
    6.9989   10.1981   24.9241 H   0  0  0  0  0  0  0  0  0  0  0  0
    6.6975   11.8907   25.2655 H   0  0  0  0  0  0  0  0  0  0  0  0
    8.8330   12.1868   26.0363 H   0  0  0  0  0  0  0  0  0  0  0  0
    9.0317   10.4428   25.9289 H   0  0  0  0  0  0  0  0  0  0  0  0
   10.4519   10.4633   22.4201 H   0  0  0  0  0  0  0  0  0  0  0  0
    9.8425    9.4158   23.7036 H   0  0  0  0  0  0  0  0  0  0  0  0
    4.1590   13.9849   23.9557 H   0  0  0  0  0  0  0  0  0  0  0  0
    3.7424   15.5417   24.7151 H   0  0  0  0  0  0  0  0  0  0  0  0
    4.8089   17.4413   22.2855 H   0  0  0  0  0  0  0  0  0  0  0  0
    5.3590   16.1226   21.2212 H   0  0  0  0  0  0  0  0  0  0  0  0
    8.1302   13.0965   21.9245 H   0  0  0  0  0  0  0  0  0  0  0  0
    6.4208   11.5165   22.8293 H   0  0  0  0  0  0  0  0  0  0  0  0
   10.8441   11.5390   24.6423 H   0  0  0  0  0  0  0  0  0  0  0  0
    6.0406   16.2662   24.0996 H   0  0  0  0  0  0  0  0  0  0  0  0
    2.7170   16.2291   22.6139 H   0  0  0  0  0  0  0  0  0  0  0  0
    6.2520   14.2047   21.9851 H   0  0  0  0  0  0  0  0  0  0  0  0
    2.9040   14.9932   20.7477 H   0  0  0  0  0  0  0  0  0  0  0  0
  1  2  1  0  0  0  0
  1  3  2  0  0  0  0
  2  4  2  0  0  0  0
  3  5  1  0  0  0  0
  4  6  1  0  0  0  0
  5  6  2  0  0  0  0
  5 20  1  0  0  0  0
  6 27  1  0  0  0  0
  7 20  2  0  0  0  0
  7 21  1  0  0  0  0
  7 27  1  0  0  0  0
  8 14  1  6  0  0  0
  8 22  1  0  0  0  0
  8 23  2  0  0  0  0
  9 10  1  0  0  0  0
  9 15  1  6  0  0  0
 10 16  1  0  0  0  0
 11 16  1  0  0  0  0
 11 19  1  0  0  0  0
 12 17  1  0  0  0  0
 12 18  1  0  0  0  0
 13 17  1  0  0  0  0
 13 18  1  0  0  0  0
 14 15  1  0  0  0  0
 14 21  1  0  0  0  0
 15 19  1  0  0  0  0
 16 21  1  1  0  0  0
 17 22  1  1  0  0  0
 18 24  1  1  0  0  0
 19 25  1  0  0  0  0
 19 26  1  0  0  0  0
  1 28  1  0  0  0  0
  2 29  1  0  0  0  0
  3 30  1  0  0  0  0
  4 31  1  0  0  0  0
  9 32  1  0  0  0  0
  9 33  1  0  0  0  0
 10 34  1  0  0  0  0
 10 35  1  0  0  0  0
 11 36  1  0  0  0  0
 11 37  1  0  0  0  0
 12 38  1  0  0  0  0
 12 39  1  0  0  0  0
 13 40  1  0  0  0  0
 13 41  1  0  0  0  0
 14 42  1  0  0  0  0
 15 43  1  0  0  0  0
 16 44  1  0  0  0  0
 17 45  1  0  0  0  0
 18 46  1  0  0  0  0
 22 47  1  0  0  0  0
 24 48  1  0  0  0  0
M  END
> <idnumber>
Z2803828739

> <heavy_atoms>
27

> <LogS>
-5.562

> <LogP>
2.767

> <rotating_bonds>
3

> <PSA>
65.46

> <hb_acceptors>
4

> <hb_donors>
2

> <Collection>
Advanced

> <link>
https://www.enaminestore.com/catalog/Z2803828739

> <ROCS_ShapeQuery>
x0446_0A_x1080_0A_x0929_0A_x0812_0A_x0719_0A_x1140_0A_x0528_0A_x0310_0A

> <ROCS_TanimotoCombo>
0.456 

> <ROCS_ShapeTanimoto>
0.271 

> <ROCS_ColorTanimoto>
0.185 

> <ROCS_RefTversky>
0.246 

> <ROCS_RefColorTversky>
0.222 

> <ROCS_RefTverskyCombo>
0.468 

> <ROCS_FitTversky>
1.617 

> <ROCS_FitColorTversky>
0.526 

> <ROCS_FitTverskyCombo>
2.143 

> <ROCS_ColorScore>
-7.996

> <ROCS_Overlap>
2904.896

> <ROCS_Rank>
415                 

$$$$
untitled-dbase-1169478_157
  -OEChem-02092406493D

 56 61  0     1  0  0  0  0  0999 V2000
    3.2282   12.3228   18.3005 C   0  0  0  0  0  0  0  0  0  0  0  0
    2.9689   11.0464   18.7907 C   0  0  0  0  0  0  0  0  0  0  0  0
    3.9745   13.2244   19.0598 C   0  0  0  0  0  0  0  0  0  0  0  0
    3.4550   10.6666   20.0421 C   0  0  0  0  0  0  0  0  0  0  0  0
    5.2245   13.7539   21.0994 C   0  0  0  0  0  0  0  0  0  0  0  0
    5.7105   13.3742   22.3508 C   0  0  0  0  0  0  0  0  0  0  0  0
    4.7049   11.1961   22.0817 C   0  0  0  0  0  0  0  0  0  0  0  0
    8.8894   14.7619   21.0271 C   0  0  0  0  0  0  0  0  0  0  0  0
    4.4715   12.8593   20.3215 C   0  0  0  0  0  0  0  0  0  0  0  0
    4.2079   11.5612   20.8200 C   0  0  0  0  0  0  0  0  0  0  0  0
    5.4512   12.0978   22.8410 C   0  0  0  0  0  0  0  0  0  0  0  0
    9.7677   13.7781   21.5012 C   0  0  0  0  0  0  0  0  0  0  0  0
   10.8839   14.4760   21.8914 C   0  0  0  0  0  0  0  0  0  0  0  0
   12.1369   14.1125   22.4551 C   0  0  0  0  0  0  0  0  0  0  0  0
   13.0423   15.0679   22.7282 C   0  0  0  0  0  0  0  0  0  0  0  0
   12.7701   16.4676   22.4603 C   0  0  0  0  0  0  0  0  0  0  0  0
   11.5879   16.8335   21.9266 C   0  0  0  0  0  0  0  0  0  0  0  0
    5.9610   11.7001   24.1591 C   0  0  0  0  0  0  0  0  0  0  0  0
    9.5720   12.3230   21.5784 C   0  0  0  0  0  0  0  0  0  0  0  0
    9.9375   10.0463   24.4178 C   0  0  0  0  0  0  0  0  0  0  0  0
    8.0390   11.3101   25.4345 C   0  0  0  0  0  0  0  0  0  0  0  0
    9.9148   12.3999   24.1120 C   0  0  0  0  0  0  0  0  0  0  0  0
    7.7724   10.1933   23.1949 C   0  0  0  0  0  0  0  0  0  0  0  0
    9.5526   11.3312   25.1538 C   0  0  2  0  0  0  0  0  0  0  0  0
    9.2979   10.3301   23.0618 C   0  0  1  0  0  0  0  0  0  0  0  0
   11.2447   18.2609   21.6267 C   0  0  0  0  0  0  0  0  0  0  0  0
    9.3921   15.9941   21.1025 N   0  0  0  0  0  0  0  0  0  0  0  0
   10.6356   15.8315   21.6392 N   0  0  0  0  0  0  0  0  0  0  0  0
    7.2278   11.1092   24.2216 N   0  0  0  0  0  0  0  0  0  0  0  0
    9.6412   11.7381   22.8319 N   0  0  0  0  0  0  0  0  0  0  0  0
    5.2268   11.9262   25.1196 O   0  0  0  0  0  0  0  0  0  0  0  0
    9.3391   11.7272   20.5289 O   0  0  0  0  0  0  0  0  0  0  0  0
    2.8482   12.6183   17.3268 H   0  0  0  0  0  0  0  0  0  0  0  0
    2.3883   10.3447   18.1988 H   0  0  0  0  0  0  0  0  0  0  0  0
    4.1636   14.2175   18.6574 H   0  0  0  0  0  0  0  0  0  0  0  0
    3.2412    9.6632   20.4044 H   0  0  0  0  0  0  0  0  0  0  0  0
    5.4397   14.7564   20.7353 H   0  0  0  0  0  0  0  0  0  0  0  0
    6.2908   14.0852   22.9335 H   0  0  0  0  0  0  0  0  0  0  0  0
    4.5072   10.2001   22.4753 H   0  0  0  0  0  0  0  0  0  0  0  0
    7.8939   14.6361   20.6252 H   0  0  0  0  0  0  0  0  0  0  0  0
   12.3559   13.0703   22.6614 H   0  0  0  0  0  0  0  0  0  0  0  0
   14.0049   14.8137   23.1586 H   0  0  0  0  0  0  0  0  0  0  0  0
   13.5416   17.1898   22.7031 H   0  0  0  0  0  0  0  0  0  0  0  0
   11.0266    9.9564   24.3261 H   0  0  0  0  0  0  0  0  0  0  0  0
    9.5530    9.1419   24.9001 H   0  0  0  0  0  0  0  0  0  0  0  0
    7.7943   10.4877   26.1175 H   0  0  0  0  0  0  0  0  0  0  0  0
    7.7343   12.2414   25.9253 H   0  0  0  0  0  0  0  0  0  0  0  0
    9.3341   13.3224   24.2073 H   0  0  0  0  0  0  0  0  0  0  0  0
   10.9832   12.6410   24.1411 H   0  0  0  0  0  0  0  0  0  0  0  0
    7.2972   10.3846   22.2278 H   0  0  0  0  0  0  0  0  0  0  0  0
    7.5023    9.1752   23.4994 H   0  0  0  0  0  0  0  0  0  0  0  0
   10.1140   11.4575   26.0843 H   0  0  0  0  0  0  0  0  0  0  0  0
    9.6826    9.6924   22.2603 H   0  0  0  0  0  0  0  0  0  0  0  0
   11.5543   18.5048   20.6125 H   0  0  0  0  0  0  0  0  0  0  0  0
   11.7567   18.9149   22.3303 H   0  0  0  0  0  0  0  0  0  0  0  0
   10.1704   18.4057   21.7238 H   0  0  0  0  0  0  0  0  0  0  0  0
  1  2  1  0  0  0  0
  1  3  2  0  0  0  0
  2  4  2  0  0  0  0
  3  9  1  0  0  0  0
  4 10  1  0  0  0  0
  5  6  2  0  0  0  0
  5  9  1  0  0  0  0
  6 11  1  0  0  0  0
  7 10  1  0  0  0  0
  7 11  2  0  0  0  0
  8 12  1  0  0  0  0
  8 27  2  0  0  0  0
  9 10  2  0  0  0  0
 11 18  1  0  0  0  0
 12 13  2  0  0  0  0
 12 19  1  0  0  0  0
 13 14  1  0  0  0  0
 13 28  1  0  0  0  0
 14 15  2  0  0  0  0
 15 16  1  0  0  0  0
 16 17  2  0  0  0  0
 17 26  1  0  0  0  0
 17 28  1  0  0  0  0
 18 29  1  0  0  0  0
 18 31  2  0  0  0  0
 19 30  1  0  0  0  0
 19 32  2  0  0  0  0
 20 24  1  0  0  0  0
 20 25  1  0  0  0  0
 21 24  1  0  0  0  0
 21 29  1  0  0  0  0
 22 24  1  0  0  0  0
 22 30  1  0  0  0  0
 23 25  1  0  0  0  0
 23 29  1  0  0  0  0
 25 30  1  0  0  0  0
 27 28  1  0  0  0  0
  1 33  1  0  0  0  0
  2 34  1  0  0  0  0
  3 35  1  0  0  0  0
  4 36  1  0  0  0  0
  5 37  1  0  0  0  0
  6 38  1  0  0  0  0
  7 39  1  0  0  0  0
  8 40  1  0  0  0  0
 14 41  1  0  0  0  0
 15 42  1  0  0  0  0
 16 43  1  0  0  0  0
 20 44  1  0  0  0  0
 20 45  1  0  0  0  0
 21 46  1  0  0  0  0
 21 47  1  0  0  0  0
 22 48  1  0  0  0  0
 22 49  1  0  0  0  0
 23 50  1  0  0  0  0
 23 51  1  0  0  0  0
 24 52  1  0  0  0  0
 25 53  1  0  0  0  0
 26 54  1  0  0  0  0
 26 55  1  0  0  0  0
 26 56  1  0  0  0  0
M  END
> <idnumber>
Z8426901440

> <heavy_atoms>
32

> <LogS>
-6.363

> <LogP>
3.274

> <rotating_bonds>
2

> <PSA>
57.92

> <hb_acceptors>
3

> <hb_donors>
0

> <Collection>
Advanced

> <link>
https://www.enaminestore.com/catalog/Z8426901440

> <ROCS_ShapeQuery>
x0446_0A_x1080_0A_x0929_0A_x0812_0A_x0719_0A_x1140_0A_x0528_0A_x0310_0A

> <ROCS_TanimotoCombo>
0.456 

> <ROCS_ShapeTanimoto>
0.261 

> <ROCS_ColorTanimoto>
0.195 

> <ROCS_RefTversky>
0.243 

> <ROCS_RefColorTversky>
0.227 

> <ROCS_RefTverskyCombo>
0.470 

> <ROCS_FitTversky>
1.398 

> <ROCS_FitColorTversky>
0.578 

> <ROCS_FitTverskyCombo>
1.977 

> <ROCS_ColorScore>
-8.157

> <ROCS_Overlap>
2880.322

> <ROCS_Rank>
416                 

$$$$
untitled-dbase-1163218_101
  -OEChem-02092406493D

 39 42  0     0  0  0  0  0  0999 V2000
    7.1352   13.5369   24.7367 C   0  0  0  0  0  0  0  0  0  0  0  0
   11.4332   15.8199   21.1175 C   0  0  0  0  0  0  0  0  0  0  0  0
    5.8284   13.2725   25.1345 C   0  0  0  0  0  0  0  0  0  0  0  0
   12.7668   15.7946   21.5253 C   0  0  0  0  0  0  0  0  0  0  0  0
    6.2147   10.9162   24.7664 C   0  0  0  0  0  0  0  0  0  0  0  0
   12.1361   14.5726   23.5118 C   0  0  0  0  0  0  0  0  0  0  0  0
    7.9804   12.4812   24.3529 C   0  0  0  0  0  0  0  0  0  0  0  0
    7.5269   11.1520   24.3636 C   0  0  0  0  0  0  0  0  0  0  0  0
   10.8025   14.5980   23.1039 C   0  0  0  0  0  0  0  0  0  0  0  0
   10.4510   15.2216   21.9068 C   0  0  0  0  0  0  0  0  0  0  0  0
    5.3680   11.9606   25.1494 C   0  0  0  0  0  0  0  0  0  0  0  0
   13.1183   15.1710   22.7225 C   0  0  0  0  0  0  0  0  0  0  0  0
    9.2967   12.6772   23.9446 C   0  0  0  0  0  0  0  0  0  0  0  0
    9.5816   10.4550   23.6230 C   0  0  0  0  0  0  0  0  0  0  0  0
   10.5699    8.9619   21.7608 C   0  0  0  0  0  0  0  0  0  0  0  0
    9.8347    8.0554   22.6979 C   0  0  0  0  0  0  0  0  0  0  0  0
   10.4630    9.3206   23.2193 C   0  0  0  0  0  0  0  0  0  0  0  0
    8.3690   16.3709   21.9130 C   0  0  0  0  0  0  0  0  0  0  0  0
    8.3266   10.1348   23.9984 N   0  0  0  0  0  0  0  0  0  0  0  0
   10.1241   11.6823   23.5730 N   0  0  0  0  0  0  0  0  0  0  0  0
    9.8244   13.9919   23.9082 N   0  0  0  0  0  0  0  0  0  0  0  0
    9.1535   15.2579   21.4904 O   0  0  0  0  0  0  0  0  0  0  0  0
    4.1115   11.6959   25.5312 F   0  0  0  0  0  0  0  0  0  0  0  0
   14.3990   15.1475   23.1145 F   0  0  0  0  0  0  0  0  0  0  0  0
    7.4718   14.5704   24.7335 H   0  0  0  0  0  0  0  0  0  0  0  0
   11.1665   16.3074   20.1837 H   0  0  0  0  0  0  0  0  0  0  0  0
    5.1722   14.0847   25.4317 H   0  0  0  0  0  0  0  0  0  0  0  0
   13.5314   16.2607   20.9109 H   0  0  0  0  0  0  0  0  0  0  0  0
    5.8296    9.8985   24.7870 H   0  0  0  0  0  0  0  0  0  0  0  0
   12.4217   14.0903   24.4430 H   0  0  0  0  0  0  0  0  0  0  0  0
   11.5376    8.6353   21.3984 H   0  0  0  0  0  0  0  0  0  0  0  0
    9.9866    9.5154   21.0349 H   0  0  0  0  0  0  0  0  0  0  0  0
    8.7566    8.0011   22.6028 H   0  0  0  0  0  0  0  0  0  0  0  0
   10.3054    7.1171   22.9663 H   0  0  0  0  0  0  0  0  0  0  0  0
   11.3607    9.2038   23.8119 H   0  0  0  0  0  0  0  0  0  0  0  0
    7.3566   16.2771   21.5125 H   0  0  0  0  0  0  0  0  0  0  0  0
    8.8281   17.2972   21.5584 H   0  0  0  0  0  0  0  0  0  0  0  0
    8.3269   16.3822   23.0047 H   0  0  0  0  0  0  0  0  0  0  0  0
    9.4111   14.6082   24.5979 H   0  0  0  0  0  0  0  0  0  0  0  0
  1  3  2  0  0  0  0
  1  7  1  0  0  0  0
  2  4  2  0  0  0  0
  2 10  1  0  0  0  0
  3 11  1  0  0  0  0
  4 12  1  0  0  0  0
  5  8  1  0  0  0  0
  5 11  2  0  0  0  0
  6  9  1  0  0  0  0
  6 12  2  0  0  0  0
  7  8  1  0  0  0  0
  7 13  2  0  0  0  0
  8 19  2  0  0  0  0
  9 10  2  0  0  0  0
  9 21  1  0  0  0  0
 10 22  1  0  0  0  0
 11 23  1  0  0  0  0
 12 24  1  0  0  0  0
 13 20  1  0  0  0  0
 13 21  1  0  0  0  0
 14 17  1  0  0  0  0
 14 19  1  0  0  0  0
 14 20  2  0  0  0  0
 15 16  1  0  0  0  0
 15 17  1  0  0  0  0
 16 17  1  0  0  0  0
 18 22  1  0  0  0  0
  1 25  1  0  0  0  0
  2 26  1  0  0  0  0
  3 27  1  0  0  0  0
  4 28  1  0  0  0  0
  5 29  1  0  0  0  0
  6 30  1  0  0  0  0
 15 31  1  0  0  0  0
 15 32  1  0  0  0  0
 16 33  1  0  0  0  0
 16 34  1  0  0  0  0
 17 35  1  0  0  0  0
 18 36  1  0  0  0  0
 18 37  1  0  0  0  0
 18 38  1  0  0  0  0
 21 39  1  0  0  0  0
M  END
> <idnumber>
Z8166860419

> <heavy_atoms>
24

> <LogS>
-5.263

> <LogP>
5.11

> <rotating_bonds>
4

> <PSA>
47.04

> <hb_acceptors>
4

> <hb_donors>
1

> <Collection>
Advanced

> <link>
https://www.enaminestore.com/catalog/Z8166860419

> <ROCS_ShapeQuery>
x0446_0A_x1080_0A_x0929_0A_x0812_0A_x0719_0A_x1140_0A_x0528_0A_x0310_0A

> <ROCS_TanimotoCombo>
0.456 

> <ROCS_ShapeTanimoto>
0.266 

> <ROCS_ColorTanimoto>
0.190 

> <ROCS_RefTversky>
0.240 

> <ROCS_RefColorTversky>
0.198 

> <ROCS_RefTverskyCombo>
0.438 

> <ROCS_FitTversky>
1.691 

> <ROCS_FitColorTversky>
0.828 

> <ROCS_FitTverskyCombo>
2.519 

> <ROCS_ColorScore>
-7.055

> <ROCS_Overlap>
2836.255

> <ROCS_Rank>
417                 

$$$$
untitled-dbase-1169228_103
  -OEChem-02092406493D

 51 56  0     1  0  0  0  0  0999 V2000
    3.3829   11.9204   21.7404 C   0  0  0  0  0  0  0  0  0  0  0  0
    4.1999   11.4523   22.7819 C   0  0  0  0  0  0  0  0  0  0  0  0
    3.4397   13.2558   21.3359 C   0  0  0  0  0  0  0  0  0  0  0  0
   10.3345   16.8869   21.9013 C   0  0  0  0  0  0  0  0  0  0  0  0
    9.1930   16.2011   21.5051 C   0  0  0  0  0  0  0  0  0  0  0  0
   12.4988   14.0729   22.6997 C   0  0  0  0  0  0  0  0  0  0  0  0
   13.6095   16.0105   23.0707 C   0  0  0  0  0  0  0  0  0  0  0  0
   11.3672   14.7739   22.2911 C   0  0  0  0  0  0  0  0  0  0  0  0
    5.0859   12.3128   23.4339 C   0  0  0  0  0  0  0  0  0  0  0  0
    4.3117   14.1047   21.9966 C   0  0  0  0  0  0  0  0  0  0  0  0
    5.1266   13.6379   23.0346 C   0  0  0  0  0  0  0  0  0  0  0  0
   11.4539   16.1710   22.3058 C   0  0  0  0  0  0  0  0  0  0  0  0
   10.1769   14.1699   21.8765 C   0  0  0  0  0  0  0  0  0  0  0  0
    5.9497   11.8040   24.5109 C   0  0  0  0  0  0  0  0  0  0  0  0
   10.0103   12.7085   21.8341 C   0  0  0  0  0  0  0  0  0  0  0  0
    4.5752   15.5515   21.7218 C   0  0  0  0  0  0  0  0  0  0  0  0
    6.0114   14.7290   23.5493 C   0  0  0  0  0  0  0  0  0  0  0  0
    5.2886   15.9746   23.0148 C   0  0  0  0  0  0  0  0  0  0  0  0
    9.2800   10.3640   24.5056 C   0  0  0  0  0  0  0  0  0  0  0  0
    7.5799   10.6561   22.8913 C   0  0  0  0  0  0  0  0  0  0  0  0
    9.1680   12.7112   24.2608 C   0  0  0  0  0  0  0  0  0  0  0  0
    9.1141   10.6819   23.0152 C   0  0  1  0  0  0  0  0  0  0  0  0
    8.4118   11.5522   24.9352 C   0  0  1  0  0  0  0  0  0  0  0  0
   13.6392   14.6672   23.0965 N   0  0  0  0  0  0  0  0  0  0  0  0
    9.0852   14.8565   21.4822 N   0  0  0  0  0  0  0  0  0  0  0  0
   12.5784   16.7967   22.6967 N   0  0  0  0  0  0  0  0  0  0  0  0
    7.1898   11.3154   24.1487 N   0  0  0  0  0  0  0  0  0  0  0  0
    9.5289   12.0941   22.9736 N   0  0  0  0  0  0  0  0  0  0  0  0
    5.5194   11.8614   25.6606 O   0  0  0  0  0  0  0  0  0  0  0  0
   10.2942   12.1335   20.7857 O   0  0  0  0  0  0  0  0  0  0  0  0
    2.7047   11.2336   21.2411 H   0  0  0  0  0  0  0  0  0  0  0  0
    4.1380   10.4053   23.0699 H   0  0  0  0  0  0  0  0  0  0  0  0
    2.8155   13.6129   20.5239 H   0  0  0  0  0  0  0  0  0  0  0  0
   10.3425   17.9729   21.8915 H   0  0  0  0  0  0  0  0  0  0  0  0
    8.3076   16.7407   21.1851 H   0  0  0  0  0  0  0  0  0  0  0  0
   12.5318   12.9884   22.7237 H   0  0  0  0  0  0  0  0  0  0  0  0
   14.5124   16.5201   23.3847 H   0  0  0  0  0  0  0  0  0  0  0  0
    5.2342   15.6563   20.8538 H   0  0  0  0  0  0  0  0  0  0  0  0
    3.6561   16.1237   21.5676 H   0  0  0  0  0  0  0  0  0  0  0  0
    6.0725   14.7481   24.6410 H   0  0  0  0  0  0  0  0  0  0  0  0
    7.0133   14.6382   23.1173 H   0  0  0  0  0  0  0  0  0  0  0  0
    5.9688   16.8179   22.8599 H   0  0  0  0  0  0  0  0  0  0  0  0
    4.5379   16.2964   23.7501 H   0  0  0  0  0  0  0  0  0  0  0  0
    8.8593    9.3953   24.7959 H   0  0  0  0  0  0  0  0  0  0  0  0
   10.3177   10.4342   24.8491 H   0  0  0  0  0  0  0  0  0  0  0  0
    7.1967   11.2077   22.0275 H   0  0  0  0  0  0  0  0  0  0  0  0
    7.1779    9.6376   22.8930 H   0  0  0  0  0  0  0  0  0  0  0  0
    8.5585   13.6064   24.1049 H   0  0  0  0  0  0  0  0  0  0  0  0
   10.0894   12.9739   24.7909 H   0  0  0  0  0  0  0  0  0  0  0  0
    9.6486   10.0476   22.3063 H   0  0  0  0  0  0  0  0  0  0  0  0
    8.2277   11.6764   26.0035 H   0  0  0  0  0  0  0  0  0  0  0  0
  1  2  2  0  0  0  0
  1  3  1  0  0  0  0
  2  9  1  0  0  0  0
  3 10  2  0  0  0  0
  4  5  1  0  0  0  0
  4 12  2  0  0  0  0
  5 25  2  0  0  0  0
  6  8  1  0  0  0  0
  6 24  2  0  0  0  0
  7 24  1  0  0  0  0
  7 26  2  0  0  0  0
  8 12  1  0  0  0  0
  8 13  2  0  0  0  0
  9 11  2  0  0  0  0
  9 14  1  0  0  0  0
 10 11  1  0  0  0  0
 10 16  1  0  0  0  0
 11 17  1  0  0  0  0
 12 26  1  0  0  0  0
 13 15  1  0  0  0  0
 13 25  1  0  0  0  0
 14 27  1  0  0  0  0
 14 29  2  0  0  0  0
 15 28  1  0  0  0  0
 15 30  2  0  0  0  0
 16 18  1  0  0  0  0
 17 18  1  0  0  0  0
 19 22  1  1  0  0  0
 19 23  1  1  0  0  0
 20 22  1  0  0  0  0
 20 27  1  0  0  0  0
 21 23  1  0  0  0  0
 21 28  1  0  0  0  0
 22 28  1  0  0  0  0
 23 27  1  0  0  0  0
  1 31  1  0  0  0  0
  2 32  1  0  0  0  0
  3 33  1  0  0  0  0
  4 34  1  0  0  0  0
  5 35  1  0  0  0  0
  6 36  1  0  0  0  0
  7 37  1  0  0  0  0
 16 38  1  0  0  0  0
 16 39  1  0  0  0  0
 17 40  1  0  0  0  0
 17 41  1  0  0  0  0
 18 42  1  0  0  0  0
 18 43  1  0  0  0  0
 19 44  1  0  0  0  0
 19 45  1  0  0  0  0
 20 46  1  0  0  0  0
 20 47  1  0  0  0  0
 21 48  1  0  0  0  0
 21 49  1  0  0  0  0
 22 50  1  0  0  0  0
 23 51  1  0  0  0  0
M  END
> <idnumber>
Z8416335800

> <heavy_atoms>
30

> <LogS>
-5.904

> <LogP>
0.907

> <rotating_bonds>
2

> <PSA>
79.29

> <hb_acceptors>
5

> <hb_donors>
0

> <Collection>
Advanced

> <link>
https://www.enaminestore.com/catalog/Z8416335800

> <ROCS_ShapeQuery>
x0446_0A_x1080_0A_x0929_0A_x0812_0A_x0719_0A_x1140_0A_x0528_0A_x0310_0A

> <ROCS_TanimotoCombo>
0.456 

> <ROCS_ShapeTanimoto>
0.261 

> <ROCS_ColorTanimoto>
0.195 

> <ROCS_RefTversky>
0.242 

> <ROCS_RefColorTversky>
0.238 

> <ROCS_RefTverskyCombo>
0.480 

> <ROCS_FitTversky>
1.441 

> <ROCS_FitColorTversky>
0.520 

> <ROCS_FitTverskyCombo>
1.961 

> <ROCS_ColorScore>
-8.594

> <ROCS_Overlap>
2858.680

> <ROCS_Rank>
418                 

$$$$
untitled-dbase-325058_11
  -OEChem-02092406493D

 36 39  0     0  0  0  0  0  0999 V2000
   13.5016   14.7634   22.1819 C   0  0  0  0  0  0  0  0  0  0  0  0
   13.2810   14.0638   23.3683 C   0  0  0  0  0  0  0  0  0  0  0  0
    5.7305   15.4068   23.9363 C   0  0  0  0  0  0  0  0  0  0  0  0
    7.5945   15.4983   25.4706 C   0  0  0  0  0  0  0  0  0  0  0  0
   12.4210   15.2699   21.4596 C   0  0  0  0  0  0  0  0  0  0  0  0
   11.9798   13.8705   23.8323 C   0  0  0  0  0  0  0  0  0  0  0  0
    5.6279   16.7972   23.9780 C   0  0  0  0  0  0  0  0  0  0  0  0
    7.4920   16.8888   25.5123 C   0  0  0  0  0  0  0  0  0  0  0  0
    5.7526   12.5462   25.0397 C   0  0  0  0  0  0  0  0  0  0  0  0
    9.6807   10.6232   23.5612 C   0  0  0  0  0  0  0  0  0  0  0  0
    7.9387   12.5363   24.2180 C   0  0  0  0  0  0  0  0  0  0  0  0
    6.7138   14.7573   24.6827 C   0  0  0  0  0  0  0  0  0  0  0  0
    6.8196   13.3210   24.6398 C   0  0  0  0  0  0  0  0  0  0  0  0
   11.1199   15.0766   21.9237 C   0  0  0  0  0  0  0  0  0  0  0  0
   10.8993   14.3769   23.1100 C   0  0  0  0  0  0  0  0  0  0  0  0
    6.5087   17.5382   24.7659 C   0  0  0  0  0  0  0  0  0  0  0  0
    9.2103   12.8696   23.7407 C   0  0  0  0  0  0  0  0  0  0  0  0
    7.6585   11.1799   24.3213 C   0  0  0  0  0  0  0  0  0  0  0  0
   10.0882   11.8985   23.4099 N   0  0  0  0  0  0  0  0  0  0  0  0
    8.4945   10.1713   24.0059 N   0  0  0  0  0  0  0  0  0  0  0  0
   10.0302   15.5998   21.1747 N   0  3  0  0  0  0  0  0  0  0  0  0
   10.2682   16.2235   20.1134 O   0  5  0  0  0  0  0  0  0  0  0  0
    8.8633   15.4224   21.5980 O   0  0  0  0  0  0  0  0  0  0  0  0
    9.6224   14.1711   23.5884 O   0  0  0  0  0  0  0  0  0  0  0  0
    6.4101   18.8735   24.8059 F   0  0  0  0  0  0  0  0  0  0  0  0
    6.0887   10.8740   24.9099 S   0  0  0  0  0  0  0  0  0  0  0  0
   14.5147   14.9137   21.8204 H   0  0  0  0  0  0  0  0  0  0  0  0
   14.1223   13.6696   23.9308 H   0  0  0  0  0  0  0  0  0  0  0  0
    5.0359   14.8434   23.3176 H   0  0  0  0  0  0  0  0  0  0  0  0
    8.3668   15.0071   26.0580 H   0  0  0  0  0  0  0  0  0  0  0  0
   12.6081   15.8134   20.5366 H   0  0  0  0  0  0  0  0  0  0  0  0
   11.8151   13.3245   24.7577 H   0  0  0  0  0  0  0  0  0  0  0  0
    4.8619   17.3029   23.3976 H   0  0  0  0  0  0  0  0  0  0  0  0
    8.1775   17.4665   26.1252 H   0  0  0  0  0  0  0  0  0  0  0  0
    4.7872   12.8726   25.4036 H   0  0  0  0  0  0  0  0  0  0  0  0
   10.4039    9.8624   23.2889 H   0  0  0  0  0  0  0  0  0  0  0  0
  1  2  1  0  0  0  0
  1  5  2  0  0  0  0
  2  6  2  0  0  0  0
  3  7  2  0  0  0  0
  3 12  1  0  0  0  0
  4  8  1  0  0  0  0
  4 12  2  0  0  0  0
  5 14  1  0  0  0  0
  6 15  1  0  0  0  0
  7 16  1  0  0  0  0
  8 16  2  0  0  0  0
  9 13  2  0  0  0  0
  9 26  1  0  0  0  0
 10 19  2  0  0  0  0
 10 20  1  0  0  0  0
 11 13  1  0  0  0  0
 11 17  2  0  0  0  0
 11 18  1  0  0  0  0
 12 13  1  0  0  0  0
 14 15  2  0  0  0  0
 14 21  1  0  0  0  0
 15 24  1  0  0  0  0
 16 25  1  0  0  0  0
 17 19  1  0  0  0  0
 17 24  1  0  0  0  0
 18 20  2  0  0  0  0
 18 26  1  0  0  0  0
 21 22  1  0  0  0  0
 21 23  2  0  0  0  0
  1 27  1  0  0  0  0
  2 28  1  0  0  0  0
  3 29  1  0  0  0  0
  4 30  1  0  0  0  0
  5 31  1  0  0  0  0
  6 32  1  0  0  0  0
  7 33  1  0  0  0  0
  8 34  1  0  0  0  0
  9 35  1  0  0  0  0
 10 36  1  0  0  0  0
M  CHG  2  21   1  22  -1
M  END
> <idnumber>
Z31209618

> <heavy_atoms>
26

> <LogS>
-7.918

> <LogP>
4.479

> <rotating_bonds>
4

> <PSA>
78.15

> <hb_acceptors>
4

> <hb_donors>
0

> <Collection>
Legacy

> <link>
https://www.enaminestore.com/catalog/Z31209618

> <ROCS_ShapeQuery>
x0446_0A_x1080_0A_x0929_0A_x0812_0A_x0719_0A_x1140_0A_x0528_0A_x0310_0A

> <ROCS_TanimotoCombo>
0.456 

> <ROCS_ShapeTanimoto>
0.256 

> <ROCS_ColorTanimoto>
0.200 

> <ROCS_RefTversky>
0.234 

> <ROCS_RefColorTversky>
0.216 

> <ROCS_RefTverskyCombo>
0.450 

> <ROCS_FitTversky>
1.561 

> <ROCS_FitColorTversky>
0.738 

> <ROCS_FitTverskyCombo>
2.299 

> <ROCS_ColorScore>
-7.716

> <ROCS_Overlap>
2767.928

> <ROCS_Rank>
419                 

$$$$
untitled-dbase-322424_39
  -OEChem-02092406493D

 39 42  0     0  0  0  0  0  0999 V2000
    6.4614   17.5081   24.2575 C   0  0  0  0  0  0  0  0  0  0  0  0
    6.2722   16.8548   25.4752 C   0  0  0  0  0  0  0  0  0  0  0  0
    6.7592   16.7726   23.1103 C   0  0  0  0  0  0  0  0  0  0  0  0
    6.3809   15.4660   25.5459 C   0  0  0  0  0  0  0  0  0  0  0  0
    6.8679   15.3837   23.1809 C   0  0  0  0  0  0  0  0  0  0  0  0
   11.9817   13.8192   23.8307 C   0  0  0  0  0  0  0  0  0  0  0  0
   13.2983   13.9888   23.4026 C   0  0  0  0  0  0  0  0  0  0  0  0
   12.5044   15.0354   21.3750 C   0  0  0  0  0  0  0  0  0  0  0  0
    5.7115   12.5471   24.8866 C   0  0  0  0  0  0  0  0  0  0  0  0
    9.7036   10.5420   23.7215 C   0  0  0  0  0  0  0  0  0  0  0  0
    7.9295   12.4884   24.1572 C   0  0  0  0  0  0  0  0  0  0  0  0
    6.6788   14.7304   24.3987 C   0  0  0  0  0  0  0  0  0  0  0  0
    6.7913   13.2959   24.4714 C   0  0  0  0  0  0  0  0  0  0  0  0
   11.1877   14.8658   21.8031 C   0  0  0  0  0  0  0  0  0  0  0  0
   10.9263   14.2577   23.0309 C   0  0  0  0  0  0  0  0  0  0  0  0
   13.5597   14.5969   22.1748 C   0  0  0  0  0  0  0  0  0  0  0  0
    9.2183   12.7923   23.7074 C   0  0  0  0  0  0  0  0  0  0  0  0
    7.6500   11.1422   24.3537 C   0  0  0  0  0  0  0  0  0  0  0  0
   10.1008   15.3320   20.9533 C   0  0  0  0  0  0  0  0  0  0  0  0
   10.3304   15.3251   19.4708 C   0  0  0  0  0  0  0  0  0  0  0  0
   10.1125   11.8045   23.4886 N   0  0  0  0  0  0  0  0  0  0  0  0
    8.5018   10.1179   24.1515 N   0  0  0  0  0  0  0  0  0  0  0  0
    9.0108   15.7351   21.3613 O   0  0  0  0  0  0  0  0  0  0  0  0
    9.6317   14.0809   23.4717 O   0  0  0  0  0  0  0  0  0  0  0  0
   14.8245   14.7622   21.7659 F   0  0  0  0  0  0  0  0  0  0  0  0
    6.0586   10.8722   24.9003 S   0  0  0  0  0  0  0  0  0  0  0  0
    6.3758   18.5894   24.2020 H   0  0  0  0  0  0  0  0  0  0  0  0
    6.0391   17.4271   26.3683 H   0  0  0  0  0  0  0  0  0  0  0  0
    6.9052   17.2814   22.1620 H   0  0  0  0  0  0  0  0  0  0  0  0
    6.2307   14.9712   26.5027 H   0  0  0  0  0  0  0  0  0  0  0  0
    7.1006   14.8247   22.2775 H   0  0  0  0  0  0  0  0  0  0  0  0
   11.7851   13.3444   24.7882 H   0  0  0  0  0  0  0  0  0  0  0  0
   14.1201   13.6478   24.0252 H   0  0  0  0  0  0  0  0  0  0  0  0
   12.7206   15.5098   20.4214 H   0  0  0  0  0  0  0  0  0  0  0  0
    4.7310   12.8942   25.1847 H   0  0  0  0  0  0  0  0  0  0  0  0
   10.4400    9.7673   23.5383 H   0  0  0  0  0  0  0  0  0  0  0  0
   10.0371   14.3852   18.9768 H   0  0  0  0  0  0  0  0  0  0  0  0
   11.3757   15.5318   19.1931 H   0  0  0  0  0  0  0  0  0  0  0  0
    9.7459   16.0955   18.9370 H   0  0  0  0  0  0  0  0  0  0  0  0
  1  2  1  0  0  0  0
  1  3  2  0  0  0  0
  2  4  2  0  0  0  0
  3  5  1  0  0  0  0
  4 12  1  0  0  0  0
  5 12  2  0  0  0  0
  6  7  2  0  0  0  0
  6 15  1  0  0  0  0
  7 16  1  0  0  0  0
  8 14  1  0  0  0  0
  8 16  2  0  0  0  0
  9 13  2  0  0  0  0
  9 26  1  0  0  0  0
 10 21  2  0  0  0  0
 10 22  1  0  0  0  0
 11 13  1  0  0  0  0
 11 17  2  0  0  0  0
 11 18  1  0  0  0  0
 12 13  1  0  0  0  0
 14 15  2  0  0  0  0
 14 19  1  0  0  0  0
 15 24  1  0  0  0  0
 16 25  1  0  0  0  0
 17 21  1  0  0  0  0
 17 24  1  0  0  0  0
 18 22  2  0  0  0  0
 18 26  1  0  0  0  0
 19 20  1  0  0  0  0
 19 23  2  0  0  0  0
  1 27  1  0  0  0  0
  2 28  1  0  0  0  0
  3 29  1  0  0  0  0
  4 30  1  0  0  0  0
  5 31  1  0  0  0  0
  6 32  1  0  0  0  0
  7 33  1  0  0  0  0
  8 34  1  0  0  0  0
  9 35  1  0  0  0  0
 10 36  1  0  0  0  0
 20 37  1  0  0  0  0
 20 38  1  0  0  0  0
 20 39  1  0  0  0  0
M  END
> <idnumber>
Z31087000

> <heavy_atoms>
26

> <LogS>
-7.57

> <LogP>
4.53

> <rotating_bonds>
4

> <PSA>
52.08

> <hb_acceptors>
3

> <hb_donors>
0

> <Collection>
Legacy

> <link>
https://www.enaminestore.com/catalog/Z31087000

> <ROCS_ShapeQuery>
x0446_0A_x1080_0A_x0929_0A_x0812_0A_x0719_0A_x1140_0A_x0528_0A_x0310_0A

> <ROCS_TanimotoCombo>
0.456 

> <ROCS_ShapeTanimoto>
0.258 

> <ROCS_ColorTanimoto>
0.198 

> <ROCS_RefTversky>
0.236 

> <ROCS_RefColorTversky>
0.209 

> <ROCS_RefTverskyCombo>
0.445 

> <ROCS_FitTversky>
1.577 

> <ROCS_FitColorTversky>
0.788 

> <ROCS_FitTverskyCombo>
2.365 

> <ROCS_ColorScore>
-7.476

> <ROCS_Overlap>
2785.221

> <ROCS_Rank>
420                 

$$$$
untitled-dbase-429455_6
  -OEChem-02092406493D

 41 44  0     0  0  0  0  0  0999 V2000
    5.4426   13.9533   25.7822 C   0  0  0  0  0  0  0  0  0  0  0  0
   13.4300   15.9610   22.8389 C   0  0  0  0  0  0  0  0  0  0  0  0
    5.0745   14.7968   24.7341 C   0  0  0  0  0  0  0  0  0  0  0  0
   12.7344   16.8296   21.9979 C   0  0  0  0  0  0  0  0  0  0  0  0
    6.3602   12.9262   25.5615 C   0  0  0  0  0  0  0  0  0  0  0  0
   12.8553   14.7478   23.2180 C   0  0  0  0  0  0  0  0  0  0  0  0
    5.6238   14.6132   23.4653 C   0  0  0  0  0  0  0  0  0  0  0  0
   11.4641   16.4851   21.5360 C   0  0  0  0  0  0  0  0  0  0  0  0
    6.9096   12.7425   24.2926 C   0  0  0  0  0  0  0  0  0  0  0  0
   11.5850   14.4033   22.7561 C   0  0  0  0  0  0  0  0  0  0  0  0
    6.5414   13.5860   23.2445 C   0  0  0  0  0  0  0  0  0  0  0  0
   10.8894   15.2719   21.9151 C   0  0  0  0  0  0  0  0  0  0  0  0
    7.8576   11.6737   24.0850 C   0  0  0  0  0  0  0  0  0  0  0  0
    9.6650   10.6057   23.5838 C   0  0  0  0  0  0  0  0  0  0  0  0
   10.9888   13.1000   23.1744 C   0  0  0  0  0  0  0  0  0  0  0  0
   11.9496   11.9557   23.4566 C   0  0  0  0  0  0  0  0  0  0  0  0
    6.3567   12.5687   21.1028 C   0  0  0  0  0  0  0  0  0  0  0  0
    9.0119   15.9002   20.5975 C   0  0  0  0  0  0  0  0  0  0  0  0
    7.6263   10.3925   24.2698 N   0  0  0  0  0  0  0  0  0  0  0  0
    8.7781    9.7094   23.9406 N   0  0  0  0  0  0  0  0  0  0  0  0
    9.6975   13.0553   23.3378 N   0  0  0  0  0  0  0  0  0  0  0  0
    9.1463   11.8660   23.6654 N   0  0  0  0  0  0  0  0  0  0  0  0
    7.0622   13.4292   21.9938 O   0  0  0  0  0  0  0  0  0  0  0  0
    9.6481   14.9522   21.4518 O   0  0  0  0  0  0  0  0  0  0  0  0
   11.2564   10.3559   22.9983 S   0  0  0  0  0  0  0  0  0  0  0  0
    5.0140   14.0957   26.7701 H   0  0  0  0  0  0  0  0  0  0  0  0
   14.4193   16.2296   23.1984 H   0  0  0  0  0  0  0  0  0  0  0  0
    4.3604   15.5968   24.9062 H   0  0  0  0  0  0  0  0  0  0  0  0
   13.1822   17.7742   21.7035 H   0  0  0  0  0  0  0  0  0  0  0  0
    6.6365   12.2783   26.3897 H   0  0  0  0  0  0  0  0  0  0  0  0
   13.4068   14.0786   23.8734 H   0  0  0  0  0  0  0  0  0  0  0  0
    5.3330   15.2741   22.6534 H   0  0  0  0  0  0  0  0  0  0  0  0
   10.9277   17.1662   20.8809 H   0  0  0  0  0  0  0  0  0  0  0  0
   12.8878   12.1055   22.9136 H   0  0  0  0  0  0  0  0  0  0  0  0
   12.1727   11.9576   24.5291 H   0  0  0  0  0  0  0  0  0  0  0  0
    6.8767   12.5319   20.1424 H   0  0  0  0  0  0  0  0  0  0  0  0
    5.3388   12.9419   20.9640 H   0  0  0  0  0  0  0  0  0  0  0  0
    6.3191   11.5651   21.5330 H   0  0  0  0  0  0  0  0  0  0  0  0
    8.0304   15.5229   20.3003 H   0  0  0  0  0  0  0  0  0  0  0  0
    9.6321   16.0691   19.7136 H   0  0  0  0  0  0  0  0  0  0  0  0
    8.8893   16.8410   21.1393 H   0  0  0  0  0  0  0  0  0  0  0  0
  1  3  1  0  0  0  0
  1  5  2  0  0  0  0
  2  4  1  0  0  0  0
  2  6  2  0  0  0  0
  3  7  2  0  0  0  0
  4  8  2  0  0  0  0
  5  9  1  0  0  0  0
  6 10  1  0  0  0  0
  7 11  1  0  0  0  0
  8 12  1  0  0  0  0
  9 11  2  0  0  0  0
  9 13  1  0  0  0  0
 10 12  2  0  0  0  0
 10 15  1  0  0  0  0
 11 23  1  0  0  0  0
 12 24  1  0  0  0  0
 13 19  2  0  0  0  0
 13 22  1  0  0  0  0
 14 20  2  0  0  0  0
 14 22  1  0  0  0  0
 14 25  1  0  0  0  0
 15 16  1  0  0  0  0
 15 21  2  0  0  0  0
 16 25  1  0  0  0  0
 17 23  1  0  0  0  0
 18 24  1  0  0  0  0
 19 20  1  0  0  0  0
 21 22  1  0  0  0  0
  1 26  1  0  0  0  0
  2 27  1  0  0  0  0
  3 28  1  0  0  0  0
  4 29  1  0  0  0  0
  5 30  1  0  0  0  0
  6 31  1  0  0  0  0
  7 32  1  0  0  0  0
  8 33  1  0  0  0  0
 16 34  1  0  0  0  0
 16 35  1  0  0  0  0
 17 36  1  0  0  0  0
 17 37  1  0  0  0  0
 17 38  1  0  0  0  0
 18 39  1  0  0  0  0
 18 40  1  0  0  0  0
 18 41  1  0  0  0  0
M  END
> <idnumber>
Z55659692

> <heavy_atoms>
25

> <LogS>
-5.98

> <LogP>
2.37

> <rotating_bonds>
4

> <PSA>
61.53

> <hb_acceptors>
5

> <hb_donors>
0

> <Collection>
HTS

> <link>
https://www.enaminestore.com/catalog/Z55659692

> <ROCS_ShapeQuery>
x0446_0A_x1080_0A_x0929_0A_x0812_0A_x0719_0A_x1140_0A_x0528_0A_x0310_0A

> <ROCS_TanimotoCombo>
0.456 

> <ROCS_ShapeTanimoto>
0.280 

> <ROCS_ColorTanimoto>
0.176 

> <ROCS_RefTversky>
0.251 

> <ROCS_RefColorTversky>
0.194 

> <ROCS_RefTverskyCombo>
0.445 

> <ROCS_FitTversky>
1.722 

> <ROCS_FitColorTversky>
0.650 

> <ROCS_FitTverskyCombo>
2.371 

> <ROCS_ColorScore>
-6.959

> <ROCS_Overlap>
2961.485

> <ROCS_Rank>
421                 

$$$$
untitled-dbase-1079578_91
  -OEChem-02092406493D

 49 53  0     1  0  0  0  0  0999 V2000
   17.9471   11.9222   25.2174 C   0  0  0  0  0  0  0  0  0  0  0  0
   17.5263   11.5153   23.9513 C   0  0  0  0  0  0  0  0  0  0  0  0
   17.0637   12.5916   26.0643 C   0  0  0  0  0  0  0  0  0  0  0  0
   16.2222   11.7781   23.5320 C   0  0  0  0  0  0  0  0  0  0  0  0
   15.7595   12.8543   25.6449 C   0  0  0  0  0  0  0  0  0  0  0  0
   15.3388   12.4475   24.3788 C   0  0  0  0  0  0  0  0  0  0  0  0
   12.4190   14.3390   22.6883 C   0  0  0  0  0  0  0  0  0  0  0  0
   10.8555   15.5379   21.8497 C   0  0  0  0  0  0  0  0  0  0  0  0
    7.1974   11.2663   24.7783 C   0  0  0  0  0  0  0  0  0  0  0  0
    8.1715    9.7828   23.0027 C   0  0  0  0  0  0  0  0  0  0  0  0
    9.6591   10.7734   24.7704 C   0  0  0  0  0  0  0  0  0  0  0  0
    7.3755   12.0489   22.3995 C   0  0  0  0  0  0  0  0  0  0  0  0
    8.8658   13.0413   24.1707 C   0  0  0  0  0  0  0  0  0  0  0  0
    7.0983   10.8382   23.3017 C   0  0  2  0  0  0  0  0  0  0  0  0
    8.5964   11.8357   25.0821 C   0  0  1  0  0  0  0  0  0  0  0  0
    9.5506   10.3824   23.2935 C   0  0  0  0  0  0  0  0  0  0  0  0
    8.7850   12.5910   22.7003 C   0  0  0  0  0  0  0  0  0  0  0  0
   13.9275   12.7323   23.9256 C   0  0  0  0  0  0  0  0  0  0  0  0
   13.7811   14.0830   23.2057 C   0  0  0  0  0  0  0  0  0  0  0  0
    9.1285   13.7465   21.7638 C   0  0  0  0  0  0  0  0  0  0  0  0
   11.4467   13.4920   22.5969 N   0  0  0  0  0  0  0  0  0  0  0  0
   10.4320   14.2377   22.0610 N   0  0  0  0  0  0  0  0  0  0  0  0
   10.2278   16.4778   21.3888 O   0  0  0  0  0  0  0  0  0  0  0  0
   12.1576   15.5945   22.2638 O   0  0  0  0  0  0  0  0  0  0  0  0
    9.7531   11.5457   22.4714 O   0  0  0  0  0  0  0  0  0  0  0  0
   18.9622   11.7163   25.5443 H   0  0  0  0  0  0  0  0  0  0  0  0
   18.2137   10.9931   23.2922 H   0  0  0  0  0  0  0  0  0  0  0  0
   17.3906   12.9075   27.0505 H   0  0  0  0  0  0  0  0  0  0  0  0
   15.9031   11.4575   22.5437 H   0  0  0  0  0  0  0  0  0  0  0  0
   15.0782   13.3766   26.3114 H   0  0  0  0  0  0  0  0  0  0  0  0
    6.4328   12.0215   24.9986 H   0  0  0  0  0  0  0  0  0  0  0  0
    6.9957   10.4069   25.4295 H   0  0  0  0  0  0  0  0  0  0  0  0
    8.0063    8.8841   23.6080 H   0  0  0  0  0  0  0  0  0  0  0  0
    8.1097    9.4892   21.9478 H   0  0  0  0  0  0  0  0  0  0  0  0
   10.6555   11.1844   24.9732 H   0  0  0  0  0  0  0  0  0  0  0  0
    9.5249    9.8953   25.4127 H   0  0  0  0  0  0  0  0  0  0  0  0
    7.3073   11.7354   21.3499 H   0  0  0  0  0  0  0  0  0  0  0  0
    6.6170   12.8249   22.5602 H   0  0  0  0  0  0  0  0  0  0  0  0
    8.1429   13.8409   24.3736 H   0  0  0  0  0  0  0  0  0  0  0  0
    9.8651   13.4386   24.3898 H   0  0  0  0  0  0  0  0  0  0  0  0
    6.1019   10.4332   23.0945 H   0  0  0  0  0  0  0  0  0  0  0  0
    8.6592   12.1359   26.1337 H   0  0  0  0  0  0  0  0  0  0  0  0
   10.3324    9.6588   23.0411 H   0  0  0  0  0  0  0  0  0  0  0  0
   13.2419   12.6890   24.7819 H   0  0  0  0  0  0  0  0  0  0  0  0
   13.6126   11.9227   23.2543 H   0  0  0  0  0  0  0  0  0  0  0  0
   14.0801   14.8997   23.8803 H   0  0  0  0  0  0  0  0  0  0  0  0
   14.4877   14.1027   22.3625 H   0  0  0  0  0  0  0  0  0  0  0  0
    9.0869   13.3612   20.7462 H   0  0  0  0  0  0  0  0  0  0  0  0
    8.3813   14.5229   21.9206 H   0  0  0  0  0  0  0  0  0  0  0  0
  1  2  1  0  0  0  0
  1  3  2  0  0  0  0
  2  4  2  0  0  0  0
  3  5  1  0  0  0  0
  4  6  1  0  0  0  0
  5  6  2  0  0  0  0
  6 18  1  0  0  0  0
  7 19  1  0  0  0  0
  7 21  2  0  0  0  0
  7 24  1  0  0  0  0
  8 22  1  0  0  0  0
  8 23  2  0  0  0  0
  8 24  1  0  0  0  0
  9 14  1  0  0  0  0
  9 15  1  0  0  0  0
 10 14  1  0  0  0  0
 10 16  1  0  0  0  0
 11 15  1  0  0  0  0
 11 16  1  0  0  0  0
 12 14  1  0  0  0  0
 12 17  1  0  0  0  0
 13 15  1  0  0  0  0
 13 17  1  0  0  0  0
 16 25  1  0  0  0  0
 17 20  1  0  0  0  0
 17 25  1  0  0  0  0
 18 19  1  0  0  0  0
 20 22  1  0  0  0  0
 21 22  1  0  0  0  0
  1 26  1  0  0  0  0
  2 27  1  0  0  0  0
  3 28  1  0  0  0  0
  4 29  1  0  0  0  0
  5 30  1  0  0  0  0
  9 31  1  0  0  0  0
  9 32  1  0  0  0  0
 10 33  1  0  0  0  0
 10 34  1  0  0  0  0
 11 35  1  0  0  0  0
 11 36  1  0  0  0  0
 12 37  1  0  0  0  0
 12 38  1  0  0  0  0
 13 39  1  0  0  0  0
 13 40  1  0  0  0  0
 14 41  1  0  0  0  0
 15 42  1  0  0  0  0
 16 43  1  0  0  0  0
 18 44  1  0  0  0  0
 18 45  1  0  0  0  0
 19 46  1  0  0  0  0
 19 47  1  0  0  0  0
 20 48  1  0  0  0  0
 20 49  1  0  0  0  0
M  END
> <idnumber>
Z4236546753

> <heavy_atoms>
25

> <LogS>
-3.675

> <LogP>
2.78

> <rotating_bonds>
5

> <PSA>
51.13

> <hb_acceptors>
3

> <hb_donors>
0

> <Collection>
Advanced

> <link>
https://www.enaminestore.com/catalog/Z4236546753

> <ROCS_ShapeQuery>
x0446_0A_x1080_0A_x0929_0A_x0812_0A_x0719_0A_x1140_0A_x0528_0A_x0310_0A

> <ROCS_TanimotoCombo>
0.456 

> <ROCS_ShapeTanimoto>
0.258 

> <ROCS_ColorTanimoto>
0.198 

> <ROCS_RefTversky>
0.235 

> <ROCS_RefColorTversky>
0.224 

> <ROCS_RefTverskyCombo>
0.459 

> <ROCS_FitTversky>
1.607 

> <ROCS_FitColorTversky>
0.626 

> <ROCS_FitTverskyCombo>
2.233 

> <ROCS_ColorScore>
-8.046

> <ROCS_Overlap>
2781.622

> <ROCS_Rank>
422                 

$$$$
untitled-dbase-1019283_97
  -OEChem-02092406493D

 45 48  0     1  0  0  0  0  0999 V2000
    6.6326   13.2294   23.7424 C   0  0  0  0  0  0  0  0  0  0  0  0
    5.5391   13.0412   24.5762 C   0  0  0  0  0  0  0  0  0  0  0  0
    6.5072   11.2428   25.6320 C   0  0  0  0  0  0  0  0  0  0  0  0
   11.1647   14.5369   21.7167 C   0  0  0  0  0  0  0  0  0  0  0  0
   10.2943   16.5590   21.6154 C   0  0  0  0  0  0  0  0  0  0  0  0
    7.7009   12.3452   23.8631 C   0  0  0  0  0  0  0  0  0  0  0  0
    7.6574   11.3474   24.8609 C   0  0  0  0  0  0  0  0  0  0  0  0
    9.7980   14.4895   21.5736 C   0  0  0  0  0  0  0  0  0  0  0  0
    9.5475   10.0453   22.8056 C   0  0  0  0  0  0  0  0  0  0  0  0
    8.7119    9.4263   23.9463 C   0  0  0  0  0  0  0  0  0  0  0  0
   10.0119   11.1708   24.8548 C   0  0  0  0  0  0  0  0  0  0  0  0
    9.9825   11.4193   23.3466 C   0  0  2  0  0  0  0  0  0  0  0  0
   14.2248   18.3392   22.7755 C   0  0  0  0  0  0  0  0  0  0  0  0
   12.2220   17.5527   24.0545 C   0  0  0  0  0  0  0  0  0  0  0  0
   12.7847   16.4429   21.8751 C   0  0  0  0  0  0  0  0  0  0  0  0
   12.8102   17.7674   22.6585 C   0  0  0  0  0  0  0  0  0  0  0  0
    5.4442   12.0674   25.5106 N   0  0  0  0  0  0  0  0  0  0  0  0
    9.2622   15.7515   21.5109 N   0  0  0  0  0  0  0  0  0  0  0  0
   11.4679   15.8691   21.7415 N   0  0  0  0  0  0  0  0  0  0  0  0
    8.7425   10.4426   25.0201 N   0  0  1  0  0  0  0  0  0  0  0  0
    8.9303   12.4709   23.0826 N   0  0  1  0  0  0  0  0  0  0  0  0
    7.4331   13.4584   21.2309 O   0  0  0  0  0  0  0  0  0  0  0  0
    9.4571   12.1028   20.5879 O   0  0  0  0  0  0  0  0  0  0  0  0
    8.7975   13.0369   21.4783 S   0  0  0  0  0  0  0  0  0  0  0  0
    6.6274   14.0479   23.0331 H   0  0  0  0  0  0  0  0  0  0  0  0
    4.6788   13.7002   24.5129 H   0  0  0  0  0  0  0  0  0  0  0  0
    6.4065   10.4765   26.3941 H   0  0  0  0  0  0  0  0  0  0  0  0
   11.9205   13.7682   21.8000 H   0  0  0  0  0  0  0  0  0  0  0  0
   10.2541   17.6399   21.6054 H   0  0  0  0  0  0  0  0  0  0  0  0
   10.4287    9.4194   22.6223 H   0  0  0  0  0  0  0  0  0  0  0  0
    8.9748   10.1104   21.8759 H   0  0  0  0  0  0  0  0  0  0  0  0
    7.6979    9.1633   23.6217 H   0  0  0  0  0  0  0  0  0  0  0  0
    9.1918    8.5088   24.3058 H   0  0  0  0  0  0  0  0  0  0  0  0
   10.8510   10.5233   25.1370 H   0  0  0  0  0  0  0  0  0  0  0  0
   10.0648   12.0847   25.4592 H   0  0  0  0  0  0  0  0  0  0  0  0
   10.9501   11.7502   22.9588 H   0  0  0  0  0  0  0  0  0  0  0  0
   14.8873   17.6326   23.2870 H   0  0  0  0  0  0  0  0  0  0  0  0
   14.6520   18.5484   21.7890 H   0  0  0  0  0  0  0  0  0  0  0  0
   14.2311   19.2679   23.3543 H   0  0  0  0  0  0  0  0  0  0  0  0
   12.8092   16.8182   24.6158 H   0  0  0  0  0  0  0  0  0  0  0  0
   12.2245   18.4871   24.6254 H   0  0  0  0  0  0  0  0  0  0  0  0
   11.1895   17.1909   23.9999 H   0  0  0  0  0  0  0  0  0  0  0  0
   13.2044   16.5738   20.8700 H   0  0  0  0  0  0  0  0  0  0  0  0
   13.4012   15.6863   22.3773 H   0  0  0  0  0  0  0  0  0  0  0  0
   12.1873   18.5084   22.1416 H   0  0  0  0  0  0  0  0  0  0  0  0
  1  2  2  0  0  0  0
  1  6  1  0  0  0  0
  2 17  1  0  0  0  0
  3  7  1  0  0  0  0
  3 17  2  0  0  0  0
  4  8  2  0  0  0  0
  4 19  1  0  0  0  0
  5 18  2  0  0  0  0
  5 19  1  0  0  0  0
  6  7  2  0  0  0  0
  6 21  1  0  0  0  0
  7 20  1  0  0  0  0
  8 18  1  0  0  0  0
  8 24  1  0  0  0  0
  9 10  1  0  0  0  0
  9 12  1  0  0  0  0
 10 20  1  0  0  0  0
 11 12  1  0  0  0  0
 11 20  1  0  0  0  0
 12 21  1  0  0  0  0
 13 16  1  0  0  0  0
 14 16  1  0  0  0  0
 15 16  1  0  0  0  0
 15 19  1  0  0  0  0
 21 24  1  0  0  0  0
 22 24  2  0  0  0  0
 23 24  2  0  0  0  0
  1 25  1  0  0  0  0
  2 26  1  0  0  0  0
  3 27  1  0  0  0  0
  4 28  1  0  0  0  0
  5 29  1  0  0  0  0
  9 30  1  0  0  0  0
  9 31  1  0  0  0  0
 10 32  1  0  0  0  0
 10 33  1  0  0  0  0
 11 34  1  0  0  0  0
 11 35  1  0  0  0  0
 12 36  1  0  0  0  0
 13 37  1  0  0  0  0
 13 38  1  0  0  0  0
 13 39  1  0  0  0  0
 14 40  1  0  0  0  0
 14 41  1  0  0  0  0
 14 42  1  0  0  0  0
 15 43  1  0  0  0  0
 15 44  1  0  0  0  0
 16 45  1  0  0  0  0
M  END
> <idnumber>
Z3294676153

> <heavy_atoms>
24

> <LogS>
-3.144

> <LogP>
1.593

> <rotating_bonds>
3

> <PSA>
71.33

> <hb_acceptors>
5

> <hb_donors>
0

> <Collection>
Advanced

> <link>
https://www.enaminestore.com/catalog/Z3294676153

> <ROCS_ShapeQuery>
x0446_0A_x1080_0A_x0929_0A_x0812_0A_x0719_0A_x1140_0A_x0528_0A_x0310_0A

> <ROCS_TanimotoCombo>
0.456 

> <ROCS_ShapeTanimoto>
0.248 

> <ROCS_ColorTanimoto>
0.208 

> <ROCS_RefTversky>
0.227 

> <ROCS_RefColorTversky>
0.248 

> <ROCS_RefTverskyCombo>
0.475 

> <ROCS_FitTversky>
1.618 

> <ROCS_FitColorTversky>
0.560 

> <ROCS_FitTverskyCombo>
2.178 

> <ROCS_ColorScore>
-8.954

> <ROCS_Overlap>
2678.798

> <ROCS_Rank>
423                 

$$$$
untitled-dbase-1082571_26
  -OEChem-02092406493D

 46 49  0     1  0  0  0  0  0999 V2000
    2.7980   10.6684   18.3629 C   0  0  0  0  0  0  0  0  0  0  0  0
    3.8721   10.3091   19.1770 C   0  0  0  0  0  0  0  0  0  0  0  0
    2.2964   11.9694   18.4039 C   0  0  0  0  0  0  0  0  0  0  0  0
    4.4445   11.2506   20.0323 C   0  0  0  0  0  0  0  0  0  0  0  0
    2.8687   12.9109   19.2593 C   0  0  0  0  0  0  0  0  0  0  0  0
    4.6479   15.1615   22.1919 C   0  0  0  0  0  0  0  0  0  0  0  0
    5.8205   13.5172   21.3223 C   0  0  0  0  0  0  0  0  0  0  0  0
    3.9428   12.5515   20.0734 C   0  0  0  0  0  0  0  0  0  0  0  0
    5.9399   14.6038   22.1539 C   0  0  0  0  0  0  0  0  0  0  0  0
    9.6506   12.9314   23.3235 C   0  0  0  0  0  0  0  0  0  0  0  0
    5.8627   12.3305   25.1159 C   0  0  0  0  0  0  0  0  0  0  0  0
    6.9771   11.4164   25.5821 C   0  0  0  0  0  0  0  0  0  0  0  0
    6.3840   13.7515   25.0529 C   0  0  0  0  0  0  0  0  0  0  0  0
    9.7344   10.7195   22.1125 C   0  0  0  0  0  0  0  0  0  0  0  0
    9.3177    9.8174   23.2653 C   0  0  0  0  0  0  0  0  0  0  0  0
    8.1870   12.6308   23.6357 C   0  0  1  0  0  0  0  0  0  0  0  0
    8.1681   11.4463   24.6229 C   0  0  2  0  0  0  0  0  0  0  0  0
    3.7721   14.4852   21.4439 N   0  0  0  0  0  0  0  0  0  0  0  0
    4.5152   13.4913   20.9279 N   0  0  0  0  0  0  0  0  0  0  0  0
   10.3071   11.9697   22.5815 N   0  0  0  0  0  0  0  0  0  0  0  0
    7.5574   13.8936   24.1412 N   0  0  1  0  0  0  0  0  0  0  0  0
   10.2311   13.9395   23.7282 O   0  0  0  0  0  0  0  0  0  0  0  0
    8.4946   15.0936   22.0701 O   0  0  0  0  0  0  0  0  0  0  0  0
    7.0621   16.3752   23.6990 O   0  0  0  0  0  0  0  0  0  0  0  0
    8.0896   10.2230   23.8655 O   0  0  0  0  0  0  0  0  0  0  0  0
    7.3862   15.1689   22.9846 S   0  0  0  0  0  0  0  0  0  0  0  0
    2.3531    9.9363   17.6955 H   0  0  0  0  0  0  0  0  0  0  0  0
    4.2637    9.2966   19.1442 H   0  0  0  0  0  0  0  0  0  0  0  0
    1.4608   12.2488   17.7686 H   0  0  0  0  0  0  0  0  0  0  0  0
    5.2818   10.9576   20.6611 H   0  0  0  0  0  0  0  0  0  0  0  0
    2.4684   13.9216   19.2808 H   0  0  0  0  0  0  0  0  0  0  0  0
    4.3053   16.0324   22.7326 H   0  0  0  0  0  0  0  0  0  0  0  0
    6.5401   12.7808   20.9889 H   0  0  0  0  0  0  0  0  0  0  0  0
    5.5184   12.0173   24.1237 H   0  0  0  0  0  0  0  0  0  0  0  0
    5.0062   12.2628   25.7978 H   0  0  0  0  0  0  0  0  0  0  0  0
    7.3103   11.7092   26.5864 H   0  0  0  0  0  0  0  0  0  0  0  0
    6.6029   10.3882   25.6876 H   0  0  0  0  0  0  0  0  0  0  0  0
    5.5849   14.4437   24.7305 H   0  0  0  0  0  0  0  0  0  0  0  0
    6.6876   14.0583   26.0690 H   0  0  0  0  0  0  0  0  0  0  0  0
   10.5124   10.2290   21.5144 H   0  0  0  0  0  0  0  0  0  0  0  0
    8.8873   10.9513   21.4551 H   0  0  0  0  0  0  0  0  0  0  0  0
    9.1452    8.8088   22.8704 H   0  0  0  0  0  0  0  0  0  0  0  0
   10.1031    9.7246   24.0272 H   0  0  0  0  0  0  0  0  0  0  0  0
    7.6640   12.3422   22.6992 H   0  0  0  0  0  0  0  0  0  0  0  0
    9.0917   11.4274   25.2220 H   0  0  0  0  0  0  0  0  0  0  0  0
   11.2769   12.1524   22.3421 H   0  0  0  0  0  0  0  0  0  0  0  0
  1  2  1  0  0  0  0
  1  3  2  0  0  0  0
  2  4  2  0  0  0  0
  3  5  1  0  0  0  0
  4  8  1  0  0  0  0
  5  8  2  0  0  0  0
  6  9  1  0  0  0  0
  6 18  2  0  0  0  0
  7  9  2  0  0  0  0
  7 19  1  0  0  0  0
  8 19  1  0  0  0  0
  9 26  1  0  0  0  0
 10 16  1  0  0  0  0
 10 20  1  0  0  0  0
 10 22  2  0  0  0  0
 11 12  1  0  0  0  0
 11 13  1  0  0  0  0
 12 17  1  6  0  0  0
 13 21  1  0  0  0  0
 14 15  1  0  0  0  0
 14 20  1  0  0  0  0
 15 25  1  0  0  0  0
 16 17  1  0  0  0  0
 16 21  1  1  0  0  0
 17 25  1  0  0  0  0
 18 19  1  0  0  0  0
 21 26  1  0  0  0  0
 23 26  2  0  0  0  0
 24 26  2  0  0  0  0
  1 27  1  0  0  0  0
  2 28  1  0  0  0  0
  3 29  1  0  0  0  0
  4 30  1  0  0  0  0
  5 31  1  0  0  0  0
  6 32  1  0  0  0  0
  7 33  1  0  0  0  0
 11 34  1  0  0  0  0
 11 35  1  0  0  0  0
 12 36  1  0  0  0  0
 12 37  1  0  0  0  0
 13 38  1  0  0  0  0
 13 39  1  0  0  0  0
 14 40  1  0  0  0  0
 14 41  1  0  0  0  0
 15 42  1  0  0  0  0
 15 43  1  0  0  0  0
 16 44  1  0  0  0  0
 17 45  1  0  0  0  0
 20 46  1  0  0  0  0
M  END
> <idnumber>
Z4313779770

> <heavy_atoms>
26

> <LogS>
-2.632

> <LogP>
1.32

> <rotating_bonds>
2

> <PSA>
93.53

> <hb_acceptors>
5

> <hb_donors>
1

> <Collection>
Advanced

> <link>
https://www.enaminestore.com/catalog/Z4313779770

> <ROCS_ShapeQuery>
x0446_0A_x1080_0A_x0929_0A_x0812_0A_x0719_0A_x1140_0A_x0528_0A_x0310_0A

> <ROCS_TanimotoCombo>
0.456 

> <ROCS_ShapeTanimoto>
0.257 

> <ROCS_ColorTanimoto>
0.199 

> <ROCS_RefTversky>
0.234 

> <ROCS_RefColorTversky>
0.219 

> <ROCS_RefTverskyCombo>
0.453 

> <ROCS_FitTversky>
1.593 

> <ROCS_FitColorTversky>
0.689 

> <ROCS_FitTverskyCombo>
2.282 

> <ROCS_ColorScore>
-7.836

> <ROCS_Overlap>
2770.648

> <ROCS_Rank>
424                 

$$$$
untitled-dbase-587319_30
  -OEChem-02092406493D

 37 39  0     0  0  0  0  0  0999 V2000
   12.2920   15.1281   21.2808 C   0  0  0  0  0  0  0  0  0  0  0  0
   13.3926   14.7094   22.0284 C   0  0  0  0  0  0  0  0  0  0  0  0
   11.9099   13.8716   23.7421 C   0  0  0  0  0  0  0  0  0  0  0  0
    6.7289   13.0678   24.6278 C   0  0  0  0  0  0  0  0  0  0  0  0
    9.6828   10.5162   23.7065 C   0  0  0  0  0  0  0  0  0  0  0  0
    7.9184   12.4312   24.2271 C   0  0  0  0  0  0  0  0  0  0  0  0
   11.0002   14.9186   21.7639 C   0  0  0  0  0  0  0  0  0  0  0  0
   13.2016   14.0811   23.2590 C   0  0  0  0  0  0  0  0  0  0  0  0
   10.8092   14.2903   22.9945 C   0  0  0  0  0  0  0  0  0  0  0  0
    7.6668   11.0848   24.4240 C   0  0  0  0  0  0  0  0  0  0  0  0
    9.1706   12.7741   23.7283 C   0  0  0  0  0  0  0  0  0  0  0  0
    9.8653   15.3646   20.9678 C   0  0  0  0  0  0  0  0  0  0  0  0
    5.6778    9.8069   25.2705 C   0  0  0  0  0  0  0  0  0  0  0  0
   15.5678   13.9210   23.4359 C   0  0  0  0  0  0  0  0  0  0  0  0
    9.1067   15.7500   18.7406 C   0  0  0  0  0  0  0  0  0  0  0  0
    5.7965   12.2044   25.0451 N   0  0  0  0  0  0  0  0  0  0  0  0
    8.5041   10.0630   24.1853 N   0  0  0  0  0  0  0  0  0  0  0  0
   10.0662   11.7925   23.4650 N   0  0  0  0  0  0  0  0  0  0  0  0
    6.3954   11.0067   24.9096 N   0  0  0  0  0  0  0  0  0  0  0  0
    8.7815   15.7292   21.4398 O   0  0  0  0  0  0  0  0  0  0  0  0
    9.5399   14.0738   23.4901 O   0  0  0  0  0  0  0  0  0  0  0  0
   14.2760   13.6739   23.9889 O   0  0  0  0  0  0  0  0  0  0  0  0
   10.1475   15.3315   19.6302 O   0  0  0  0  0  0  0  0  0  0  0  0
   12.4539   15.6162   20.3231 H   0  0  0  0  0  0  0  0  0  0  0  0
   14.3960   14.8761   21.6462 H   0  0  0  0  0  0  0  0  0  0  0  0
   11.7615   13.3843   24.7026 H   0  0  0  0  0  0  0  0  0  0  0  0
    6.4986   14.1238   24.6346 H   0  0  0  0  0  0  0  0  0  0  0  0
   10.4237    9.7555   23.4849 H   0  0  0  0  0  0  0  0  0  0  0  0
    5.8764    9.5996   26.3253 H   0  0  0  0  0  0  0  0  0  0  0  0
    4.6075    9.9593   25.1057 H   0  0  0  0  0  0  0  0  0  0  0  0
    6.0219    8.9782   24.6455 H   0  0  0  0  0  0  0  0  0  0  0  0
   16.3348   13.5470   24.1185 H   0  0  0  0  0  0  0  0  0  0  0  0
   15.6980   14.9945   23.2774 H   0  0  0  0  0  0  0  0  0  0  0  0
   15.6501   13.4007   22.4787 H   0  0  0  0  0  0  0  0  0  0  0  0
    9.4574   15.6768   17.7082 H   0  0  0  0  0  0  0  0  0  0  0  0
    8.8240   16.7808   18.9684 H   0  0  0  0  0  0  0  0  0  0  0  0
    8.2402   15.0983   18.8757 H   0  0  0  0  0  0  0  0  0  0  0  0
  1  2  2  0  0  0  0
  1  7  1  0  0  0  0
  2  8  1  0  0  0  0
  3  8  2  0  0  0  0
  3  9  1  0  0  0  0
  4  6  1  0  0  0  0
  4 16  2  0  0  0  0
  5 17  1  0  0  0  0
  5 18  2  0  0  0  0
  6 10  1  0  0  0  0
  6 11  2  0  0  0  0
  7  9  2  0  0  0  0
  7 12  1  0  0  0  0
  8 22  1  0  0  0  0
  9 21  1  0  0  0  0
 10 17  2  0  0  0  0
 10 19  1  0  0  0  0
 11 18  1  0  0  0  0
 11 21  1  0  0  0  0
 12 20  2  0  0  0  0
 12 23  1  0  0  0  0
 13 19  1  0  0  0  0
 14 22  1  0  0  0  0
 15 23  1  0  0  0  0
 16 19  1  0  0  0  0
  1 24  1  0  0  0  0
  2 25  1  0  0  0  0
  3 26  1  0  0  0  0
  4 27  1  0  0  0  0
  5 28  1  0  0  0  0
 13 29  1  0  0  0  0
 13 30  1  0  0  0  0
 13 31  1  0  0  0  0
 14 32  1  0  0  0  0
 14 33  1  0  0  0  0
 14 34  1  0  0  0  0
 15 35  1  0  0  0  0
 15 36  1  0  0  0  0
 15 37  1  0  0  0  0
M  END
> <idnumber>
Z228792504

> <heavy_atoms>
23

> <LogS>
-3.76

> <LogP>
1.537

> <rotating_bonds>
5

> <PSA>
88.36

> <hb_acceptors>
5

> <hb_donors>
0

> <Collection>
HTS

> <link>
https://www.enaminestore.com/catalog/Z228792504

> <ROCS_ShapeQuery>
x0446_0A_x1080_0A_x0929_0A_x0812_0A_x0719_0A_x1140_0A_x0528_0A_x0310_0A

> <ROCS_TanimotoCombo>
0.456 

> <ROCS_ShapeTanimoto>
0.245 

> <ROCS_ColorTanimoto>
0.211 

> <ROCS_RefTversky>
0.224 

> <ROCS_RefColorTversky>
0.225 

> <ROCS_RefTverskyCombo>
0.449 

> <ROCS_FitTversky>
1.607 

> <ROCS_FitColorTversky>
0.772 

> <ROCS_FitTverskyCombo>
2.379 

> <ROCS_ColorScore>
-8.060

> <ROCS_Overlap>
2646.432

> <ROCS_Rank>
425                 

$$$$
untitled-dbase-1075479_151
  -OEChem-02092406493D

 45 48  0     1  0  0  0  0  0999 V2000
   10.9097   16.9695   21.2201 C   0  0  0  0  0  0  0  0  0  0  0  0
   11.7084   16.0110   21.7907 C   0  0  0  0  0  0  0  0  0  0  0  0
    6.9757   13.4897   23.3033 C   0  0  0  0  0  0  0  0  0  0  0  0
   10.5973   13.4365   23.7915 C   0  0  0  0  0  0  0  0  0  0  0  0
   11.3636   18.3440   20.9219 C   0  0  0  0  0  0  0  0  0  0  0  0
   13.1313   16.1465   22.1616 C   0  0  0  0  0  0  0  0  0  0  0  0
   12.9072   18.4176   20.9687 C   0  0  0  0  0  0  0  0  0  0  0  0
   13.5054   17.6461   22.1684 C   0  0  0  0  0  0  0  0  0  0  0  0
    8.9012    9.6295   23.7726 C   0  0  0  0  0  0  0  0  0  0  0  0
    9.2066   10.4571   22.5133 C   0  0  0  0  0  0  0  0  0  0  0  0
    7.1009   11.2439   24.4227 C   0  0  0  0  0  0  0  0  0  0  0  0
    9.4556   11.6340   25.1540 C   0  0  0  0  0  0  0  0  0  0  0  0
    7.3824   12.0532   23.1405 C   0  0  2  0  0  0  0  0  0  0  0  0
    8.3943   10.5513   24.8980 C   0  0  2  0  0  0  0  0  0  0  0  0
    8.8765   11.9384   22.7677 C   0  0  1  0  0  0  0  0  0  0  0  0
   11.2125   13.6127   22.4250 C   0  0  0  0  0  0  0  0  0  0  0  0
    9.6617   16.4661   21.0088 N   0  0  0  0  0  0  0  0  0  0  0  0
    9.6638   15.2008   21.4302 N   0  0  0  0  0  0  0  0  0  0  0  0
   10.8980   14.9271   21.9008 N   0  0  0  0  0  0  0  0  0  0  0  0
    9.6903   12.3889   23.9154 N   0  0  0  0  0  0  0  0  0  0  0  0
    7.0067   14.1132   24.3538 O   0  0  0  0  0  0  0  0  0  0  0  0
   10.9109   14.1967   24.7094 O   0  0  0  0  0  0  0  0  0  0  0  0
    6.5634   14.0075   22.1204 O   0  0  0  0  0  0  0  0  0  0  0  0
   11.0052   18.6678   19.9390 H   0  0  0  0  0  0  0  0  0  0  0  0
   10.9448   19.0273   21.6699 H   0  0  0  0  0  0  0  0  0  0  0  0
   13.3332   15.7099   23.1454 H   0  0  0  0  0  0  0  0  0  0  0  0
   13.7501   15.6202   21.4257 H   0  0  0  0  0  0  0  0  0  0  0  0
   13.3173   17.9960   20.0420 H   0  0  0  0  0  0  0  0  0  0  0  0
   13.2197   19.4672   21.0075 H   0  0  0  0  0  0  0  0  0  0  0  0
   13.1393   18.1059   23.0960 H   0  0  0  0  0  0  0  0  0  0  0  0
   14.5964   17.7490   22.1710 H   0  0  0  0  0  0  0  0  0  0  0  0
    8.1521    8.8625   23.5425 H   0  0  0  0  0  0  0  0  0  0  0  0
    9.8057    9.1003   24.0953 H   0  0  0  0  0  0  0  0  0  0  0  0
   10.2627   10.3452   22.2391 H   0  0  0  0  0  0  0  0  0  0  0  0
    8.6213   10.0764   21.6679 H   0  0  0  0  0  0  0  0  0  0  0  0
    6.7050   11.8776   25.2256 H   0  0  0  0  0  0  0  0  0  0  0  0
    6.3341   10.4872   24.2155 H   0  0  0  0  0  0  0  0  0  0  0  0
    9.1264   12.3326   25.9309 H   0  0  0  0  0  0  0  0  0  0  0  0
   10.4033   11.1878   25.4745 H   0  0  0  0  0  0  0  0  0  0  0  0
    6.7678   11.6572   22.3224 H   0  0  0  0  0  0  0  0  0  0  0  0
    8.2057    9.9738   25.8089 H   0  0  0  0  0  0  0  0  0  0  0  0
    9.1061   12.5359   21.8791 H   0  0  0  0  0  0  0  0  0  0  0  0
   10.8122   12.8508   21.7606 H   0  0  0  0  0  0  0  0  0  0  0  0
   12.2910   13.5037   22.5102 H   0  0  0  0  0  0  0  0  0  0  0  0
    6.2912   14.9460   22.2062 H   0  0  0  0  0  0  0  0  0  0  0  0
  1  2  2  0  0  0  0
  1  5  1  0  0  0  0
  1 17  1  0  0  0  0
  2  6  1  0  0  0  0
  2 19  1  0  0  0  0
  3 13  1  6  0  0  0
  3 21  2  0  0  0  0
  3 23  1  0  0  0  0
  4 16  1  0  0  0  0
  4 20  1  0  0  0  0
  4 22  2  0  0  0  0
  5  7  1  0  0  0  0
  6  8  1  0  0  0  0
  7  8  1  0  0  0  0
  9 10  1  0  0  0  0
  9 14  1  0  0  0  0
 10 15  1  0  0  0  0
 11 13  1  0  0  0  0
 11 14  1  6  0  0  0
 12 14  1  0  0  0  0
 12 20  1  0  0  0  0
 13 15  1  0  0  0  0
 15 20  1  6  0  0  0
 16 19  1  0  0  0  0
 17 18  2  0  0  0  0
 18 19  1  0  0  0  0
  5 24  1  0  0  0  0
  5 25  1  0  0  0  0
  6 26  1  0  0  0  0
  6 27  1  0  0  0  0
  7 28  1  0  0  0  0
  7 29  1  0  0  0  0
  8 30  1  0  0  0  0
  8 31  1  0  0  0  0
  9 32  1  0  0  0  0
  9 33  1  0  0  0  0
 10 34  1  0  0  0  0
 10 35  1  0  0  0  0
 11 36  1  0  0  0  0
 11 37  1  0  0  0  0
 12 38  1  0  0  0  0
 12 39  1  0  0  0  0
 13 40  1  0  0  0  0
 14 41  1  0  0  0  0
 15 42  1  0  0  0  0
 16 43  1  0  0  0  0
 16 44  1  0  0  0  0
 23 45  1  0  0  0  0
M  END
> <idnumber>
Z4174054007

> <heavy_atoms>
23

> <LogS>
-1.827

> <LogP>
1.042

> <rotating_bonds>
3

> <PSA>
88.32

> <hb_acceptors>
5

> <hb_donors>
1

> <Collection>
Advanced

> <link>
https://www.enaminestore.com/catalog/Z4174054007

> <ROCS_ShapeQuery>
x0446_0A_x1080_0A_x0929_0A_x0812_0A_x0719_0A_x1140_0A_x0528_0A_x0310_0A

> <ROCS_TanimotoCombo>
0.456 

> <ROCS_ShapeTanimoto>
0.249 

> <ROCS_ColorTanimoto>
0.207 

> <ROCS_RefTversky>
0.227 

> <ROCS_RefColorTversky>
0.245 

> <ROCS_RefTverskyCombo>
0.472 

> <ROCS_FitTversky>
1.653 

> <ROCS_FitColorTversky>
0.569 

> <ROCS_FitTverskyCombo>
2.222 

> <ROCS_ColorScore>
-8.835

> <ROCS_Overlap>
2679.854

> <ROCS_Rank>
426                 

$$$$
untitled-dbase-198471_27
  -OEChem-02092406493D

 69 75  0     1  0  0  0  0  0999 V2000
    9.8566   14.7129   21.6165 C   0  0  0  0  0  0  0  0  0  0  0  0
   11.5499   14.4101   23.3129 C   0  0  0  0  0  0  0  0  0  0  0  0
   10.4931   15.8781   21.1891 C   0  0  0  0  0  0  0  0  0  0  0  0
   12.1865   15.5753   22.8855 C   0  0  0  0  0  0  0  0  0  0  0  0
    2.2547   11.3365   17.7560 C   0  0  0  0  0  0  0  0  0  0  0  0
   10.3849   13.9789   22.6785 C   0  0  0  0  0  0  0  0  0  0  0  0
   11.6581   16.3093   21.8236 C   0  0  0  0  0  0  0  0  0  0  0  0
    1.3969   13.1529   18.3665 C   0  0  0  0  0  0  0  0  0  0  0  0
    1.8118   14.5389   20.7394 C   0  0  0  0  0  0  0  0  0  0  0  0
    2.4714   13.3838   20.5553 C   0  0  0  0  0  0  0  0  0  0  0  0
    0.9063   14.9696   19.6324 C   0  0  0  0  0  0  0  0  0  0  0  0
    6.0773   12.0739   24.4575 C   0  0  0  0  0  0  0  0  0  0  0  0
    9.6062    9.7381   23.5975 C   0  0  0  0  0  0  0  0  0  0  0  0
    9.6221   11.6616   21.9866 C   0  0  0  0  0  0  0  0  0  0  0  0
   10.3938   11.9940   24.3497 C   0  0  0  0  0  0  0  0  0  0  0  0
    7.4447   10.7540   22.8395 C   0  0  0  0  0  0  0  0  0  0  0  0
    8.2233   11.0784   25.2034 C   0  0  0  0  0  0  0  0  0  0  0  0
    8.2288   13.0154   23.6036 C   0  0  0  0  0  0  0  0  0  0  0  0
    2.9046   12.4851   22.8024 C   0  0  0  0  0  0  0  0  0  0  0  0
    4.7084   12.5222   21.1022 C   0  0  0  0  0  0  0  0  0  0  0  0
    3.8789   13.0321   23.8406 C   0  0  0  0  0  0  0  0  0  0  0  0
    5.6791   13.0662   22.1471 C   0  0  0  0  0  0  0  0  0  0  0  0
    8.8751   10.3861   22.4137 C   0  0  2  0  0  0  0  0  0  0  0  0
    9.6536   10.7162   24.7795 C   0  0  1  0  0  0  0  0  0  0  0  0
    9.6842   12.6949   23.1501 C   0  0  0  0  0  0  0  0  0  0  0  0
    7.4819   11.7344   24.0270 C   0  0  0  0  0  0  0  0  0  0  0  0
   12.3391   17.5544   21.3649 C   0  0  0  0  0  0  0  0  0  0  0  0
    0.1600   16.2662   19.8253 C   0  0  0  0  0  0  0  0  0  0  0  0
    1.3913   12.3050   17.3576 N   0  0  0  0  0  0  0  0  0  0  0  0
    2.8100   11.5097   18.9516 N   0  0  0  0  0  0  0  0  0  0  0  0
    0.7129   14.3208   18.5222 N   0  0  0  0  0  0  0  0  0  0  0  0
    2.2627   12.6846   19.3598 N   0  0  0  0  0  0  0  0  0  0  0  0
    3.3311   12.8471   21.4555 N   0  0  0  0  0  0  0  0  0  0  0  0
    5.2598   12.6735   23.5010 N   0  0  0  0  0  0  0  0  0  0  0  0
    5.7185   11.8115   25.6082 O   0  0  0  0  0  0  0  0  0  0  0  0
    8.9490   14.3848   21.1167 H   0  0  0  0  0  0  0  0  0  0  0  0
   11.9691   13.8435   24.1404 H   0  0  0  0  0  0  0  0  0  0  0  0
   10.0753   16.4428   20.3600 H   0  0  0  0  0  0  0  0  0  0  0  0
   13.0937   15.9042   23.3856 H   0  0  0  0  0  0  0  0  0  0  0  0
    2.4897   10.4711   17.1548 H   0  0  0  0  0  0  0  0  0  0  0  0
    1.9100   15.1466   21.6295 H   0  0  0  0  0  0  0  0  0  0  0  0
    9.0945    8.8146   23.8947 H   0  0  0  0  0  0  0  0  0  0  0  0
   10.6244    9.4570   23.3018 H   0  0  0  0  0  0  0  0  0  0  0  0
   10.6365   11.4011   21.6608 H   0  0  0  0  0  0  0  0  0  0  0  0
    9.1233   12.1050   21.1161 H   0  0  0  0  0  0  0  0  0  0  0  0
   10.4568   12.6873   25.2015 H   0  0  0  0  0  0  0  0  0  0  0  0
   11.4320   11.7485   24.0814 H   0  0  0  0  0  0  0  0  0  0  0  0
    6.9046   11.1993   21.9925 H   0  0  0  0  0  0  0  0  0  0  0  0
    6.8895    9.8453   23.1105 H   0  0  0  0  0  0  0  0  0  0  0  0
    7.6947   10.1759   25.5356 H   0  0  0  0  0  0  0  0  0  0  0  0
    8.2473   11.7556   26.0664 H   0  0  0  0  0  0  0  0  0  0  0  0
    8.2462   13.7320   24.4372 H   0  0  0  0  0  0  0  0  0  0  0  0
    7.6857   13.5207   22.7921 H   0  0  0  0  0  0  0  0  0  0  0  0
    2.8390   11.3967   22.9210 H   0  0  0  0  0  0  0  0  0  0  0  0
    1.9000   12.8873   22.9825 H   0  0  0  0  0  0  0  0  0  0  0  0
    4.9388   12.9506   20.1188 H   0  0  0  0  0  0  0  0  0  0  0  0
    4.8534   11.4381   21.0203 H   0  0  0  0  0  0  0  0  0  0  0  0
    3.7662   14.1184   23.9191 H   0  0  0  0  0  0  0  0  0  0  0  0
    3.6651   12.6085   24.8295 H   0  0  0  0  0  0  0  0  0  0  0  0
    6.6834   12.6545   21.9884 H   0  0  0  0  0  0  0  0  0  0  0  0
    5.7550   14.1504   22.0415 H   0  0  0  0  0  0  0  0  0  0  0  0
    8.8375    9.6823   21.5744 H   0  0  0  0  0  0  0  0  0  0  0  0
   10.1822   10.2525   25.6199 H   0  0  0  0  0  0  0  0  0  0  0  0
   11.9499   18.4246   21.9074 H   0  0  0  0  0  0  0  0  0  0  0  0
   13.4232   17.4989   21.5281 H   0  0  0  0  0  0  0  0  0  0  0  0
   12.1878   17.7183   20.2899 H   0  0  0  0  0  0  0  0  0  0  0  0
    0.7598   17.0817   19.4355 H   0  0  0  0  0  0  0  0  0  0  0  0
   -0.0254   16.4149   20.8842 H   0  0  0  0  0  0  0  0  0  0  0  0
   -0.7851   16.2136   19.2948 H   0  0  0  0  0  0  0  0  0  0  0  0
  1  3  2  0  0  0  0
  1  6  1  0  0  0  0
  2  4  1  0  0  0  0
  2  6  2  0  0  0  0
  3  7  1  0  0  0  0
  4  7  2  0  0  0  0
  5 29  1  0  0  0  0
  5 30  2  0  0  0  0
  6 25  1  0  0  0  0
  7 27  1  0  0  0  0
  8 29  2  0  0  0  0
  8 31  1  0  0  0  0
  8 32  1  0  0  0  0
  9 10  2  0  0  0  0
  9 11  1  0  0  0  0
 10 32  1  0  0  0  0
 10 33  1  0  0  0  0
 11 28  1  0  0  0  0
 11 31  2  0  0  0  0
 12 26  1  0  0  0  0
 12 34  1  0  0  0  0
 12 35  2  0  0  0  0
 13 23  1  0  0  0  0
 13 24  1  0  0  0  0
 14 23  1  0  0  0  0
 14 25  1  0  0  0  0
 15 24  1  0  0  0  0
 15 25  1  0  0  0  0
 16 23  1  0  0  0  0
 16 26  1  0  0  0  0
 17 24  1  0  0  0  0
 17 26  1  0  0  0  0
 18 25  1  0  0  0  0
 18 26  1  0  0  0  0
 19 21  1  0  0  0  0
 19 33  1  0  0  0  0
 20 22  1  0  0  0  0
 20 33  1  0  0  0  0
 21 34  1  0  0  0  0
 22 34  1  0  0  0  0
 30 32  1  0  0  0  0
  1 36  1  0  0  0  0
  2 37  1  0  0  0  0
  3 38  1  0  0  0  0
  4 39  1  0  0  0  0
  5 40  1  0  0  0  0
  9 41  1  0  0  0  0
 13 42  1  0  0  0  0
 13 43  1  0  0  0  0
 14 44  1  0  0  0  0
 14 45  1  0  0  0  0
 15 46  1  0  0  0  0
 15 47  1  0  0  0  0
 16 48  1  0  0  0  0
 16 49  1  0  0  0  0
 17 50  1  0  0  0  0
 17 51  1  0  0  0  0
 18 52  1  0  0  0  0
 18 53  1  0  0  0  0
 19 54  1  0  0  0  0
 19 55  1  0  0  0  0
 20 56  1  0  0  0  0
 20 57  1  0  0  0  0
 21 58  1  0  0  0  0
 21 59  1  0  0  0  0
 22 60  1  0  0  0  0
 22 61  1  0  0  0  0
 23 62  1  0  0  0  0
 24 63  1  0  0  0  0
 27 64  1  0  0  0  0
 27 65  1  0  0  0  0
 27 66  1  0  0  0  0
 28 67  1  0  0  0  0
 28 68  1  0  0  0  0
 28 69  1  0  0  0  0
M  END
> <idnumber>
Z383456310

> <heavy_atoms>
35

> <LogS>
-7.423

> <LogP>
4.132

> <rotating_bonds>
3

> <PSA>
66.63

> <hb_acceptors>
5

> <hb_donors>
0

> <Collection>
Advanced

> <link>
https://www.enaminestore.com/catalog/Z383456310

> <ROCS_ShapeQuery>
x0446_0A_x1080_0A_x0929_0A_x0812_0A_x0719_0A_x1140_0A_x0528_0A_x0310_0A

> <ROCS_TanimotoCombo>
0.456 

> <ROCS_ShapeTanimoto>
0.283 

> <ROCS_ColorTanimoto>
0.173 

> <ROCS_RefTversky>
0.261 

> <ROCS_RefColorTversky>
0.211 

> <ROCS_RefTverskyCombo>
0.472 

> <ROCS_FitTversky>
1.416 

> <ROCS_FitColorTversky>
0.487 

> <ROCS_FitTverskyCombo>
1.902 

> <ROCS_ColorScore>
-7.607

> <ROCS_Overlap>
3097.403

> <ROCS_Rank>
427                 

$$$$
untitled-dbase-998099_36
  -OEChem-02092406493D

 44 47  0     1  0  0  0  0  0999 V2000
    5.4543   12.3057   25.2706 C   0  0  0  0  0  0  0  0  0  0  0  0
    6.4080   11.3097   25.1178 C   0  0  0  0  0  0  0  0  0  0  0  0
    5.6934   13.5275   24.6676 C   0  0  0  0  0  0  0  0  0  0  0  0
   11.5844   14.1494   21.6927 C   0  0  0  0  0  0  0  0  0  0  0  0
   10.5941   14.7907   22.3960 C   0  0  0  0  0  0  0  0  0  0  0  0
    7.5569   11.5633   24.3650 C   0  0  0  0  0  0  0  0  0  0  0  0
   11.2330   15.9101   22.9621 C   0  0  0  0  0  0  0  0  0  0  0  0
    7.7278   12.8426   23.7946 C   0  0  0  0  0  0  0  0  0  0  0  0
    9.1951   14.3544   22.4968 C   0  0  0  0  0  0  0  0  0  0  0  0
   10.6355   11.7354   24.3007 C   0  0  0  0  0  0  0  0  0  0  0  0
    9.6902   10.8428   25.1292 C   0  0  0  0  0  0  0  0  0  0  0  0
    9.1009   10.6369   22.8564 C   0  0  0  0  0  0  0  0  0  0  0  0
    9.8952   11.9377   22.9621 C   0  0  1  0  0  0  0  0  0  0  0  0
   10.6397   16.9508   23.8207 C   0  0  0  0  0  0  0  0  0  0  0  0
   14.0182   14.6655   19.7956 C   0  0  0  0  0  0  0  0  0  0  0  0
   14.5914   13.2995   21.8478 C   0  0  0  0  0  0  0  0  0  0  0  0
   14.0182   14.6180   21.3248 C   0  0  0  0  0  0  0  0  0  0  0  0
    6.7982   13.8170   23.9424 N   0  0  0  0  0  0  0  0  0  0  0  0
   12.5289   15.9789   22.6459 N   0  0  0  0  0  0  0  0  0  0  0  0
   12.7123   14.8945   21.8735 N   0  0  0  0  0  0  0  0  0  0  0  0
    8.5589   10.5634   24.2180 N   0  0  2  0  0  0  0  0  0  0  0  0
    8.9485   13.0911   23.0533 N   0  0  0  0  0  0  0  0  0  0  0  0
    8.3617   15.1540   22.0748 O   0  0  0  0  0  0  0  0  0  0  0  0
    4.5519   12.1333   25.8457 H   0  0  0  0  0  0  0  0  0  0  0  0
    6.2541   10.3393   25.5816 H   0  0  0  0  0  0  0  0  0  0  0  0
    4.9778   14.3383   24.7578 H   0  0  0  0  0  0  0  0  0  0  0  0
   11.5838   13.2487   21.0936 H   0  0  0  0  0  0  0  0  0  0  0  0
   10.8606   12.6826   24.8017 H   0  0  0  0  0  0  0  0  0  0  0  0
   11.5830   11.2113   24.1291 H   0  0  0  0  0  0  0  0  0  0  0  0
   10.1904    9.9011   25.3829 H   0  0  0  0  0  0  0  0  0  0  0  0
    9.3861   11.3201   26.0687 H   0  0  0  0  0  0  0  0  0  0  0  0
    8.3321   10.6453   22.0736 H   0  0  0  0  0  0  0  0  0  0  0  0
    9.7601    9.7801   22.6695 H   0  0  0  0  0  0  0  0  0  0  0  0
   10.5887   12.0586   22.1264 H   0  0  0  0  0  0  0  0  0  0  0  0
   10.7122   16.6781   24.8871 H   0  0  0  0  0  0  0  0  0  0  0  0
   11.1359   17.9289   23.6923 H   0  0  0  0  0  0  0  0  0  0  0  0
    9.5727   17.1204   23.5918 H   0  0  0  0  0  0  0  0  0  0  0  0
   13.3764   13.8908   19.3626 H   0  0  0  0  0  0  0  0  0  0  0  0
   15.0307   14.5149   19.4062 H   0  0  0  0  0  0  0  0  0  0  0  0
   13.6593   15.6360   19.4352 H   0  0  0  0  0  0  0  0  0  0  0  0
   13.9726   12.4523   21.5323 H   0  0  0  0  0  0  0  0  0  0  0  0
   14.6258   13.3027   22.9425 H   0  0  0  0  0  0  0  0  0  0  0  0
   15.6090   13.1231   21.4833 H   0  0  0  0  0  0  0  0  0  0  0  0
   14.6806   15.4206   21.6739 H   0  0  0  0  0  0  0  0  0  0  0  0
  1  2  2  0  0  0  0
  1  3  1  0  0  0  0
  2  6  1  0  0  0  0
  3 18  2  0  0  0  0
  4  5  2  0  0  0  0
  4 20  1  0  0  0  0
  5  7  1  0  0  0  0
  5  9  1  0  0  0  0
  6  8  2  0  0  0  0
  6 21  1  0  0  0  0
  7 14  1  0  0  0  0
  7 19  2  0  0  0  0
  8 18  1  0  0  0  0
  8 22  1  0  0  0  0
  9 22  1  0  0  0  0
  9 23  2  0  0  0  0
 10 11  1  0  0  0  0
 10 13  1  0  0  0  0
 11 21  1  0  0  0  0
 12 13  1  0  0  0  0
 12 21  1  0  0  0  0
 13 22  1  0  0  0  0
 15 17  1  0  0  0  0
 16 17  1  0  0  0  0
 17 20  1  0  0  0  0
 19 20  1  0  0  0  0
  1 24  1  0  0  0  0
  2 25  1  0  0  0  0
  3 26  1  0  0  0  0
  4 27  1  0  0  0  0
 10 28  1  0  0  0  0
 10 29  1  0  0  0  0
 11 30  1  0  0  0  0
 11 31  1  0  0  0  0
 12 32  1  0  0  0  0
 12 33  1  0  0  0  0
 13 34  1  0  0  0  0
 14 35  1  0  0  0  0
 14 36  1  0  0  0  0
 14 37  1  0  0  0  0
 15 38  1  0  0  0  0
 15 39  1  0  0  0  0
 15 40  1  0  0  0  0
 16 41  1  0  0  0  0
 16 42  1  0  0  0  0
 16 43  1  0  0  0  0
 17 44  1  0  0  0  0
M  END
> <idnumber>
Z3016151473

> <heavy_atoms>
23

> <LogS>
-2.61

> <LogP>
0.694

> <rotating_bonds>
2

> <PSA>
54.26

> <hb_acceptors>
4

> <hb_donors>
0

> <Collection>
Advanced

> <link>
https://www.enaminestore.com/catalog/Z3016151473

> <ROCS_ShapeQuery>
x0446_0A_x1080_0A_x0929_0A_x0812_0A_x0719_0A_x1140_0A_x0528_0A_x0310_0A

> <ROCS_TanimotoCombo>
0.456 

> <ROCS_ShapeTanimoto>
0.255 

> <ROCS_ColorTanimoto>
0.201 

> <ROCS_RefTversky>
0.232 

> <ROCS_RefColorTversky>
0.228 

> <ROCS_RefTverskyCombo>
0.460 

> <ROCS_FitTversky>
1.664 

> <ROCS_FitColorTversky>
0.624 

> <ROCS_FitTverskyCombo>
2.288 

> <ROCS_ColorScore>
-8.201

> <ROCS_Overlap>
2735.718

> <ROCS_Rank>
428                 

$$$$
untitled-dbase-201206_38
  -OEChem-02092406493D

 39 42  0     0  0  0  0  0  0999 V2000
   13.4610    8.5054   22.1688 C   0  0  0  0  0  0  0  0  0  0  0  0
    6.3471   13.2132   24.5082 C   0  0  0  0  0  0  0  0  0  0  0  0
   13.4532    9.2370   23.3564 C   0  0  0  0  0  0  0  0  0  0  0  0
   12.3315    8.4920   21.3504 C   0  0  0  0  0  0  0  0  0  0  0  0
    5.7519   11.9536   24.4767 C   0  0  0  0  0  0  0  0  0  0  0  0
    7.7046   13.3717   24.2068 C   0  0  0  0  0  0  0  0  0  0  0  0
   12.3158    9.9551   23.7256 C   0  0  0  0  0  0  0  0  0  0  0  0
   11.1941    9.2101   21.7197 C   0  0  0  0  0  0  0  0  0  0  0  0
    6.4914   10.8151   24.1440 C   0  0  0  0  0  0  0  0  0  0  0  0
    8.4705   12.2383   23.8686 C   0  0  0  0  0  0  0  0  0  0  0  0
   11.1862    9.9416   22.9073 C   0  0  0  0  0  0  0  0  0  0  0  0
    9.8335   12.0321   23.5158 C   0  0  0  0  0  0  0  0  0  0  0  0
    7.8475   10.9887   23.8451 C   0  0  0  0  0  0  0  0  0  0  0  0
   10.0085   10.6863   23.2894 C   0  0  0  0  0  0  0  0  0  0  0  0
    7.2804   15.3185   21.0146 C   0  0  0  0  0  0  0  0  0  0  0  0
    9.2609   14.0440   20.8715 C   0  0  0  0  0  0  0  0  0  0  0  0
   10.8666   13.0257   23.4069 C   0  0  0  0  0  0  0  0  0  0  0  0
   11.5951   13.2387   22.0613 C   0  0  0  0  0  0  0  0  0  0  0  0
    8.3005   15.9386   21.5684 N   0  0  0  0  0  0  0  0  0  0  0  0
    9.4624   15.1915   21.4836 N   0  0  0  0  0  0  0  0  0  0  0  0
    8.8049   10.0653   23.4902 N   0  0  0  0  0  0  0  0  0  0  0  0
    6.0152   15.8061   20.9452 N   0  0  0  0  0  0  0  0  0  0  0  0
   11.1868   13.7348   24.3939 O   0  0  0  0  0  0  0  0  0  0  0  0
    7.6484   13.7807   20.3500 S   0  0  0  0  0  0  0  0  0  0  0  0
   10.5636   12.8779   20.6161 S   0  0  0  0  0  0  0  0  0  0  0  0
   14.3469    7.9468   21.8811 H   0  0  0  0  0  0  0  0  0  0  0  0
    5.7515   14.0839   24.7696 H   0  0  0  0  0  0  0  0  0  0  0  0
   14.3327    9.2471   23.9935 H   0  0  0  0  0  0  0  0  0  0  0  0
   12.3380    7.9232   20.4251 H   0  0  0  0  0  0  0  0  0  0  0  0
    4.6957   11.8536   24.7134 H   0  0  0  0  0  0  0  0  0  0  0  0
    8.1537   14.3601   24.2361 H   0  0  0  0  0  0  0  0  0  0  0  0
   12.3263   10.5226   24.6531 H   0  0  0  0  0  0  0  0  0  0  0  0
   10.3213    9.1886   21.0714 H   0  0  0  0  0  0  0  0  0  0  0  0
    6.0274    9.8348   24.1197 H   0  0  0  0  0  0  0  0  0  0  0  0
   12.4681   12.5811   22.0274 H   0  0  0  0  0  0  0  0  0  0  0  0
   11.9048   14.2852   21.9941 H   0  0  0  0  0  0  0  0  0  0  0  0
    8.6374    9.0728   23.3950 H   0  0  0  0  0  0  0  0  0  0  0  0
    5.7565   16.7013   21.3763 H   0  0  0  0  0  0  0  0  0  0  0  0
    5.2462   15.2579   20.5424 H   0  0  0  0  0  0  0  0  0  0  0  0
  1  3  1  0  0  0  0
  1  4  2  0  0  0  0
  2  5  1  0  0  0  0
  2  6  2  0  0  0  0
  3  7  2  0  0  0  0
  4  8  1  0  0  0  0
  5  9  2  0  0  0  0
  6 10  1  0  0  0  0
  7 11  1  0  0  0  0
  8 11  2  0  0  0  0
  9 13  1  0  0  0  0
 10 12  1  0  0  0  0
 10 13  2  0  0  0  0
 11 14  1  0  0  0  0
 12 14  2  0  0  0  0
 12 17  1  0  0  0  0
 13 21  1  0  0  0  0
 14 21  1  0  0  0  0
 15 19  2  0  0  0  0
 15 22  1  0  0  0  0
 15 24  1  0  0  0  0
 16 20  2  0  0  0  0
 16 24  1  0  0  0  0
 16 25  1  0  0  0  0
 17 18  1  0  0  0  0
 17 23  2  0  0  0  0
 18 25  1  0  0  0  0
 19 20  1  0  0  0  0
  1 26  1  0  0  0  0
  2 27  1  0  0  0  0
  3 28  1  0  0  0  0
  4 29  1  0  0  0  0
  5 30  1  0  0  0  0
  6 31  1  0  0  0  0
  7 32  1  0  0  0  0
  8 33  1  0  0  0  0
  9 34  1  0  0  0  0
 18 35  1  0  0  0  0
 18 36  1  0  0  0  0
 21 37  1  0  0  0  0
 22 38  1  0  0  0  0
 22 39  1  0  0  0  0
M  END
> <idnumber>
Z18451469

> <heavy_atoms>
25

> <LogS>
-7.892

> <LogP>
3.832

> <rotating_bonds>
5

> <PSA>
84.66

> <hb_acceptors>
4

> <hb_donors>
2

> <Collection>
Legacy

> <link>
https://www.enaminestore.com/catalog/Z18451469

> <ROCS_ShapeQuery>
x0446_0A_x1080_0A_x0929_0A_x0812_0A_x0719_0A_x1140_0A_x0528_0A_x0310_0A

> <ROCS_TanimotoCombo>
0.456 

> <ROCS_ShapeTanimoto>
0.252 

> <ROCS_ColorTanimoto>
0.204 

> <ROCS_RefTversky>
0.230 

> <ROCS_RefColorTversky>
0.225 

> <ROCS_RefTverskyCombo>
0.454 

> <ROCS_FitTversky>
1.606 

> <ROCS_FitColorTversky>
0.690 

> <ROCS_FitTverskyCombo>
2.296 

> <ROCS_ColorScore>
-8.050

> <ROCS_Overlap>
2717.281

> <ROCS_Rank>
429                 

$$$$
untitled-dbase-326016_6
  -OEChem-02092406493D

 38 41  0     0  0  0  0  0  0999 V2000
    6.7808   17.6282   24.6146 C   0  0  0  0  0  0  0  0  0  0  0  0
    6.0835   16.9926   23.5874 C   0  0  0  0  0  0  0  0  0  0  0  0
    7.5159   16.8740   25.5292 C   0  0  0  0  0  0  0  0  0  0  0  0
   13.1591   14.6100   22.3516 C   0  0  0  0  0  0  0  0  0  0  0  0
   12.7629   15.1560   21.1308 C   0  0  0  0  0  0  0  0  0  0  0  0
    6.1212   15.6028   23.4747 C   0  0  0  0  0  0  0  0  0  0  0  0
    7.5537   15.4842   25.4166 C   0  0  0  0  0  0  0  0  0  0  0  0
   12.2013   14.2677   23.3062 C   0  0  0  0  0  0  0  0  0  0  0  0
   11.4090   15.3599   20.8645 C   0  0  0  0  0  0  0  0  0  0  0  0
    5.7244   12.6905   24.3485 C   0  0  0  0  0  0  0  0  0  0  0  0
    9.7909   10.5932   23.7330 C   0  0  0  0  0  0  0  0  0  0  0  0
    8.0418   12.5795   24.0808 C   0  0  0  0  0  0  0  0  0  0  0  0
    6.8563   14.8486   24.3893 C   0  0  0  0  0  0  0  0  0  0  0  0
    6.8953   13.4130   24.2733 C   0  0  0  0  0  0  0  0  0  0  0  0
   10.8474   14.4716   23.0400 C   0  0  0  0  0  0  0  0  0  0  0  0
   10.4512   15.0177   21.8191 C   0  0  0  0  0  0  0  0  0  0  0  0
    9.4071   12.8527   23.9495 C   0  0  0  0  0  0  0  0  0  0  0  0
    7.6754   11.2413   24.0186 C   0  0  0  0  0  0  0  0  0  0  0  0
    8.8117   15.7851   20.2767 C   0  0  0  0  0  0  0  0  0  0  0  0
   10.2882   11.8448   23.7739 N   0  0  0  0  0  0  0  0  0  0  0  0
    8.5102   10.1980   23.8452 N   0  0  0  0  0  0  0  0  0  0  0  0
    9.9104   14.1302   23.9924 O   0  0  0  0  0  0  0  0  0  0  0  0
    9.1321   15.2228   21.5477 O   0  0  0  0  0  0  0  0  0  0  0  0
    5.9956   11.0093   24.1876 S   0  0  0  0  0  0  0  0  0  0  0  0
    6.7524   18.7104   24.7019 H   0  0  0  0  0  0  0  0  0  0  0  0
    5.5120   17.5796   22.8744 H   0  0  0  0  0  0  0  0  0  0  0  0
    8.0598   17.3693   26.3282 H   0  0  0  0  0  0  0  0  0  0  0  0
   14.2136   14.4510   22.5589 H   0  0  0  0  0  0  0  0  0  0  0  0
   13.5085   15.4225   20.3877 H   0  0  0  0  0  0  0  0  0  0  0  0
    5.5722   15.1220   22.6683 H   0  0  0  0  0  0  0  0  0  0  0  0
    8.1315   14.9106   26.1376 H   0  0  0  0  0  0  0  0  0  0  0  0
   12.5165   13.8425   24.2553 H   0  0  0  0  0  0  0  0  0  0  0  0
   11.1073   15.7872   19.9122 H   0  0  0  0  0  0  0  0  0  0  0  0
    4.7174   13.0603   24.4900 H   0  0  0  0  0  0  0  0  0  0  0  0
   10.5187    9.8018   23.5911 H   0  0  0  0  0  0  0  0  0  0  0  0
    7.7281   15.8959   20.1892 H   0  0  0  0  0  0  0  0  0  0  0  0
    9.1872   15.1333   19.4838 H   0  0  0  0  0  0  0  0  0  0  0  0
    9.2840   16.7667   20.1930 H   0  0  0  0  0  0  0  0  0  0  0  0
  1  2  1  0  0  0  0
  1  3  2  0  0  0  0
  2  6  2  0  0  0  0
  3  7  1  0  0  0  0
  4  5  1  0  0  0  0
  4  8  2  0  0  0  0
  5  9  2  0  0  0  0
  6 13  1  0  0  0  0
  7 13  2  0  0  0  0
  8 15  1  0  0  0  0
  9 16  1  0  0  0  0
 10 14  2  0  0  0  0
 10 24  1  0  0  0  0
 11 20  2  0  0  0  0
 11 21  1  0  0  0  0
 12 14  1  0  0  0  0
 12 17  2  0  0  0  0
 12 18  1  0  0  0  0
 13 14  1  0  0  0  0
 15 16  2  0  0  0  0
 15 22  1  0  0  0  0
 16 23  1  0  0  0  0
 17 20  1  0  0  0  0
 17 22  1  0  0  0  0
 18 21  2  0  0  0  0
 18 24  1  0  0  0  0
 19 23  1  0  0  0  0
  1 25  1  0  0  0  0
  2 26  1  0  0  0  0
  3 27  1  0  0  0  0
  4 28  1  0  0  0  0
  5 29  1  0  0  0  0
  6 30  1  0  0  0  0
  7 31  1  0  0  0  0
  8 32  1  0  0  0  0
  9 33  1  0  0  0  0
 10 34  1  0  0  0  0
 11 35  1  0  0  0  0
 19 36  1  0  0  0  0
 19 37  1  0  0  0  0
 19 38  1  0  0  0  0
M  END
> <idnumber>
Z31211680

> <heavy_atoms>
24

> <LogS>
-6.977

> <LogP>
4.441

> <rotating_bonds>
4

> <PSA>
44.24

> <hb_acceptors>
3

> <hb_donors>
0

> <Collection>
HTS

> <link>
https://www.enaminestore.com/catalog/Z31211680

> <ROCS_ShapeQuery>
x0446_0A_x1080_0A_x0929_0A_x0812_0A_x0719_0A_x1140_0A_x0528_0A_x0310_0A

> <ROCS_TanimotoCombo>
0.456 

> <ROCS_ShapeTanimoto>
0.247 

> <ROCS_ColorTanimoto>
0.209 

> <ROCS_RefTversky>
0.226 

> <ROCS_RefColorTversky>
0.219 

> <ROCS_RefTverskyCombo>
0.445 

> <ROCS_FitTversky>
1.593 

> <ROCS_FitColorTversky>
0.824 

> <ROCS_FitTverskyCombo>
2.417 

> <ROCS_ColorScore>
-7.819

> <ROCS_Overlap>
2670.147

> <ROCS_Rank>
430                 

$$$$
untitled-dbase-1160570_38
  -OEChem-02092406493D

 49 52  0     1  0  0  0  0  0999 V2000
    7.4545   10.8874   24.3896 C   0  0  0  0  0  0  0  0  0  0  0  0
    8.0525   12.1257   24.2179 C   0  0  0  0  0  0  0  0  0  0  0  0
    6.1953   10.8736   24.9811 C   0  0  0  0  0  0  0  0  0  0  0  0
    6.3324   13.1819   25.1217 C   0  0  0  0  0  0  0  0  0  0  0  0
    9.3386   10.5048   23.4692 C   0  0  0  0  0  0  0  0  0  0  0  0
   12.9252    9.5842   22.9270 C   0  0  0  0  0  0  0  0  0  0  0  0
   11.6232    9.5553   23.7049 C   0  0  0  0  0  0  0  0  0  0  0  0
   10.4576    9.6004   21.4618 C   0  0  0  0  0  0  0  0  0  0  0  0
   11.5680    8.6196   21.1189 C   0  0  0  0  0  0  0  0  0  0  0  0
    9.4435   14.8083   22.1443 C   0  0  1  0  0  0  0  0  0  0  0  0
   10.0393   13.4444   21.8500 C   0  0  2  0  0  0  0  0  0  0  0  0
   10.1252   15.1835   23.4487 C   0  0  1  0  0  0  0  0  0  0  0  0
   10.2572   12.8603   23.2469 C   0  0  2  0  0  0  0  0  0  0  0  0
   14.0155    8.9455   20.7890 C   0  0  0  0  0  0  0  0  0  0  0  0
    9.3551   16.2092   24.2610 C   0  0  0  0  0  0  0  0  0  0  0  0
    8.2667    9.8864   23.9189 N   0  0  0  0  0  0  0  0  0  0  0  0
    7.5527   13.3227   24.5594 N   0  0  0  0  0  0  0  0  0  0  0  0
    5.6289   12.0471   25.3521 N   0  0  0  0  0  0  0  0  0  0  0  0
    9.2561   11.8627   23.6285 N   0  0  0  0  0  0  0  0  0  0  0  0
   10.4802    9.9511   22.8829 N   0  0  3  0  0  0  0  0  0  0  0  0
   12.8403    9.0927   21.6316 N   0  0  0  0  0  0  0  0  0  0  0  0
    5.7027   14.3819   25.5249 N   0  0  0  0  0  0  0  0  0  0  0  0
   13.9646    9.9673   23.4654 O   0  0  0  0  0  0  0  0  0  0  0  0
   10.2276   13.9552   24.1874 O   0  0  0  0  0  0  0  0  0  0  0  0
    5.4993    9.7133   25.2041 O   0  0  0  0  0  0  0  0  0  0  0  0
    9.6823   15.7576   21.1274 O   0  0  0  0  0  0  0  0  0  0  0  0
   11.2976   13.5624   21.1884 O   0  0  0  0  0  0  0  0  0  0  0  0
    7.9727   15.9112   24.1742 O   0  0  0  0  0  0  0  0  0  0  0  0
   11.4814    8.5359   24.0845 H   0  0  0  0  0  0  0  0  0  0  0  0
   11.7197   10.2302   24.5634 H   0  0  0  0  0  0  0  0  0  0  0  0
   10.5726   10.4999   20.8445 H   0  0  0  0  0  0  0  0  0  0  0  0
    9.4831    9.1587   21.2200 H   0  0  0  0  0  0  0  0  0  0  0  0
   11.3402    7.6377   21.5480 H   0  0  0  0  0  0  0  0  0  0  0  0
   11.6652    8.5019   20.0334 H   0  0  0  0  0  0  0  0  0  0  0  0
    8.3136   14.7384   22.2562 H   0  0  0  0  0  0  0  0  0  0  0  0
    9.3807   12.8409   21.2503 H   0  0  0  0  0  0  0  0  0  0  0  0
   11.1540   15.5466   23.2733 H   0  0  0  0  0  0  0  0  0  0  0  0
   11.2435   12.3395   23.3346 H   0  0  0  0  0  0  0  0  0  0  0  0
   14.4475    7.9442   20.9331 H   0  0  0  0  0  0  0  0  0  0  0  0
   13.7289    9.0727   19.7347 H   0  0  0  0  0  0  0  0  0  0  0  0
   14.7597    9.7084   21.0614 H   0  0  0  0  0  0  0  0  0  0  0  0
    9.5315   17.2103   23.8648 H   0  0  0  0  0  0  0  0  0  0  0  0
    9.6653   16.1697   25.3062 H   0  0  0  0  0  0  0  0  0  0  0  0
    6.1940   15.2448   25.4229 H   0  0  0  0  0  0  0  0  0  0  0  0
    4.8202   14.3332   25.9891 H   0  0  0  0  0  0  0  0  0  0  0  0
    4.6512    9.9168   25.6217 H   0  0  0  0  0  0  0  0  0  0  0  0
    9.2787   15.4023   20.3213 H   0  0  0  0  0  0  0  0  0  0  0  0
   11.6252   12.6599   21.0286 H   0  0  0  0  0  0  0  0  0  0  0  0
    7.5037   16.5803   24.7009 H   0  0  0  0  0  0  0  0  0  0  0  0
  1  2  2  0  0  0  0
  1  3  1  0  0  0  0
  1 16  1  0  0  0  0
  2 17  1  0  0  0  0
  2 19  1  0  0  0  0
  3 18  2  0  0  0  0
  3 25  1  0  0  0  0
  4 17  2  0  0  0  0
  4 18  1  0  0  0  0
  4 22  1  0  0  0  0
  5 16  2  0  0  0  0
  5 19  1  0  0  0  0
  5 20  1  0  0  0  0
  6  7  1  0  0  0  0
  6 21  1  0  0  0  0
  6 23  2  0  0  0  0
  7 20  1  0  0  0  0
  8  9  1  0  0  0  0
  8 20  1  0  0  0  0
  9 21  1  0  0  0  0
 10 11  1  0  0  0  0
 10 12  1  0  0  0  0
 10 26  1  1  0  0  0
 11 13  1  0  0  0  0
 11 27  1  1  0  0  0
 12 15  1  6  0  0  0
 12 24  1  0  0  0  0
 13 19  1  6  0  0  0
 13 24  1  0  0  0  0
 14 21  1  0  0  0  0
 15 28  1  0  0  0  0
  7 29  1  0  0  0  0
  7 30  1  0  0  0  0
  8 31  1  0  0  0  0
  8 32  1  0  0  0  0
  9 33  1  0  0  0  0
  9 34  1  0  0  0  0
 10 35  1  0  0  0  0
 11 36  1  0  0  0  0
 12 37  1  0  0  0  0
 13 38  1  0  0  0  0
 14 39  1  0  0  0  0
 14 40  1  0  0  0  0
 14 41  1  0  0  0  0
 15 42  1  0  0  0  0
 15 43  1  0  0  0  0
 22 44  1  0  0  0  0
 22 45  1  0  0  0  0
 25 46  1  0  0  0  0
 26 47  1  0  0  0  0
 27 48  1  0  0  0  0
 28 49  1  0  0  0  0
M  END
> <idnumber>
Z7911919636

> <heavy_atoms>
28

> <LogS>
-2.165

> <LogP>
-0.944

> <rotating_bonds>
3

> <PSA>
183.32

> <hb_acceptors>
11

> <hb_donors>
5

> <Collection>
Advanced

> <link>
https://www.enaminestore.com/catalog/Z7911919636

> <ROCS_ShapeQuery>
x0446_0A_x1080_0A_x0929_0A_x0812_0A_x0719_0A_x1140_0A_x0528_0A_x0310_0A

> <ROCS_TanimotoCombo>
0.456 

> <ROCS_ShapeTanimoto>
0.271 

> <ROCS_ColorTanimoto>
0.185 

> <ROCS_RefTversky>
0.246 

> <ROCS_RefColorTversky>
0.246 

> <ROCS_RefTverskyCombo>
0.493 

> <ROCS_FitTversky>
1.564 

> <ROCS_FitColorTversky>
0.428 

> <ROCS_FitTverskyCombo>
1.992 

> <ROCS_ColorScore>
-8.945

> <ROCS_Overlap>
2915.374

> <ROCS_Rank>
431                 

$$$$
untitled-dbase-1070717_125
  -OEChem-02092406493D

 47 49  0     1  0  0  0  0  0999 V2000
    8.1958   12.2544   24.5135 C   0  0  0  0  0  0  0  0  0  0  0  0
    9.4305   12.1092   23.9353 C   0  0  0  0  0  0  0  0  0  0  0  0
    7.5372   11.0295   24.2726 C   0  0  0  0  0  0  0  0  0  0  0  0
   10.5099   13.0425   23.8669 C   0  0  0  0  0  0  0  0  0  0  0  0
    7.5430   13.3630   25.2468 C   0  0  0  0  0  0  0  0  0  0  0  0
   12.0551   14.7845   20.8716 C   0  0  0  0  0  0  0  0  0  0  0  0
   11.6115   15.7885   22.7341 C   0  0  0  0  0  0  0  0  0  0  0  0
    6.1599   10.7598   24.7747 C   0  0  2  0  0  0  0  0  0  0  0  0
   11.2887   16.0758   21.2476 C   0  0  0  0  0  0  0  0  0  0  0  0
   12.0640   14.3679   22.3531 C   0  0  0  0  0  0  0  0  0  0  0  0
    6.3562   12.7981   26.0619 C   0  0  1  0  0  0  0  0  0  0  0  0
    5.2492   10.1428   23.7207 C   0  0  0  0  0  0  0  0  0  0  0  0
    5.4985   13.9233   26.6232 C   0  0  0  0  0  0  0  0  0  0  0  0
   10.5285   10.2153   22.7000 C   0  0  0  0  0  0  0  0  0  0  0  0
    7.7570   15.0359   21.2033 C   0  0  0  0  0  0  0  0  0  0  0  0
    9.8160   16.1195   20.8731 C   0  0  0  0  0  0  0  0  0  0  0  0
    8.3002   10.1560   23.6119 N   0  0  0  0  0  0  0  0  0  0  0  0
    9.4408   10.8460   23.4117 N   0  0  0  0  0  0  0  0  0  0  0  0
   10.9592   13.4413   22.5896 N   0  0  0  0  0  0  0  0  0  0  0  0
   11.0629   13.4848   24.9056 O   0  0  0  0  0  0  0  0  0  0  0  0
    5.5151   11.9814   25.2197 O   0  0  0  0  0  0  0  0  0  0  0  0
    9.1438   15.0476   21.5166 O   0  0  0  0  0  0  0  0  0  0  0  0
    8.2506   13.8718   25.9102 H   0  0  0  0  0  0  0  0  0  0  0  0
    7.1800   14.0916   24.5112 H   0  0  0  0  0  0  0  0  0  0  0  0
   11.4955   14.0993   20.2035 H   0  0  0  0  0  0  0  0  0  0  0  0
   13.0504   14.9423   20.4168 H   0  0  0  0  0  0  0  0  0  0  0  0
   12.3922   16.4321   23.1798 H   0  0  0  0  0  0  0  0  0  0  0  0
   10.7322   15.8270   23.4081 H   0  0  0  0  0  0  0  0  0  0  0  0
    6.2159   10.0866   25.6390 H   0  0  0  0  0  0  0  0  0  0  0  0
   11.7985   16.9856   20.8791 H   0  0  0  0  0  0  0  0  0  0  0  0
   12.9715   14.0360   22.7478 H   0  0  0  0  0  0  0  0  0  0  0  0
    6.7192   12.1802   26.8937 H   0  0  0  0  0  0  0  0  0  0  0  0
    5.1828   10.8006   22.8540 H   0  0  0  0  0  0  0  0  0  0  0  0
    4.2499    9.9964   24.1308 H   0  0  0  0  0  0  0  0  0  0  0  0
    5.6461    9.1784   23.4033 H   0  0  0  0  0  0  0  0  0  0  0  0
    5.1267   14.5509   25.8125 H   0  0  0  0  0  0  0  0  0  0  0  0
    6.0874   14.5392   27.3038 H   0  0  0  0  0  0  0  0  0  0  0  0
    4.6484   13.5102   27.1675 H   0  0  0  0  0  0  0  0  0  0  0  0
   11.1557    9.6990   23.4314 H   0  0  0  0  0  0  0  0  0  0  0  0
   10.1246    9.5047   21.9734 H   0  0  0  0  0  0  0  0  0  0  0  0
   11.1055   10.9791   22.1713 H   0  0  0  0  0  0  0  0  0  0  0  0
    7.2740   14.1998   21.7149 H   0  0  0  0  0  0  0  0  0  0  0  0
    7.6275   14.9393   20.1224 H   0  0  0  0  0  0  0  0  0  0  0  0
    7.3087   15.9738   21.5396 H   0  0  0  0  0  0  0  0  0  0  0  0
    9.6925   16.0146   19.7912 H   0  0  0  0  0  0  0  0  0  0  0  0
    9.3660   17.0628   21.1959 H   0  0  0  0  0  0  0  0  0  0  0  0
   10.5313   13.0155   21.7739 H   0  0  0  0  0  0  0  0  0  0  0  0
  1  2  2  0  0  0  0
  1  3  1  0  0  0  0
  1  5  1  0  0  0  0
  2  4  1  0  0  0  0
  2 18  1  0  0  0  0
  3  8  1  0  0  0  0
  3 17  2  0  0  0  0
  4 19  1  0  0  0  0
  4 20  2  0  0  0  0
  5 11  1  0  0  0  0
  6  9  1  0  0  0  0
  6 10  1  0  0  0  0
  7  9  1  0  0  0  0
  7 10  1  0  0  0  0
  8 12  1  1  0  0  0
  8 21  1  0  0  0  0
  9 16  1  0  0  0  0
 10 19  1  0  0  0  0
 11 13  1  1  0  0  0
 11 21  1  0  0  0  0
 14 18  1  0  0  0  0
 15 22  1  0  0  0  0
 16 22  1  0  0  0  0
 17 18  1  0  0  0  0
  5 23  1  0  0  0  0
  5 24  1  0  0  0  0
  6 25  1  0  0  0  0
  6 26  1  0  0  0  0
  7 27  1  0  0  0  0
  7 28  1  0  0  0  0
  8 29  1  0  0  0  0
  9 30  1  0  0  0  0
 10 31  1  0  0  0  0
 11 32  1  0  0  0  0
 12 33  1  0  0  0  0
 12 34  1  0  0  0  0
 12 35  1  0  0  0  0
 13 36  1  0  0  0  0
 13 37  1  0  0  0  0
 13 38  1  0  0  0  0
 14 39  1  0  0  0  0
 14 40  1  0  0  0  0
 14 41  1  0  0  0  0
 15 42  1  0  0  0  0
 15 43  1  0  0  0  0
 15 44  1  0  0  0  0
 16 45  1  0  0  0  0
 16 46  1  0  0  0  0
 19 47  1  0  0  0  0
M  END
> <idnumber>
Z4107121931

> <heavy_atoms>
22

> <LogS>
-1.532

> <LogP>
-0.158

> <rotating_bonds>
4

> <PSA>
65.38

> <hb_acceptors>
4

> <hb_donors>
1

> <Collection>
HTS

> <link>
https://www.enaminestore.com/catalog/Z4107121931

> <ROCS_ShapeQuery>
x0446_0A_x1080_0A_x0929_0A_x0812_0A_x0719_0A_x1140_0A_x0528_0A_x0310_0A

> <ROCS_TanimotoCombo>
0.456 

> <ROCS_ShapeTanimoto>
0.255 

> <ROCS_ColorTanimoto>
0.201 

> <ROCS_RefTversky>
0.230 

> <ROCS_RefColorTversky>
0.212 

> <ROCS_RefTverskyCombo>
0.441 

> <ROCS_FitTversky>
1.750 

> <ROCS_FitColorTversky>
0.799 

> <ROCS_FitTverskyCombo>
2.549 

> <ROCS_ColorScore>
-7.570

> <ROCS_Overlap>
2711.317

> <ROCS_Rank>
432                 

$$$$
untitled-dbase-181997_7
  -OEChem-02092406493D

 39 42  0     0  0  0  0  0  0999 V2000
   10.5916    8.3913   22.9290 C   0  0  0  0  0  0  0  0  0  0  0  0
    5.5574   12.3721   24.8237 C   0  0  0  0  0  0  0  0  0  0  0  0
    6.3238   13.5343   24.8132 C   0  0  0  0  0  0  0  0  0  0  0  0
   12.8651   16.3585   22.4004 C   0  0  0  0  0  0  0  0  0  0  0  0
   12.1507   16.4833   21.2128 C   0  0  0  0  0  0  0  0  0  0  0  0
    6.1354   11.1367   24.5220 C   0  0  0  0  0  0  0  0  0  0  0  0
    7.6907   13.4992   24.5129 C   0  0  0  0  0  0  0  0  0  0  0  0
   12.4234   15.4816   23.3866 C   0  0  0  0  0  0  0  0  0  0  0  0
   11.0035   15.7220   21.0398 C   0  0  0  0  0  0  0  0  0  0  0  0
    7.5069   11.0850   24.2143 C   0  0  0  0  0  0  0  0  0  0  0  0
    8.2699   12.2530   24.2295 C   0  0  0  0  0  0  0  0  0  0  0  0
   11.2693   14.7457   23.1586 C   0  0  0  0  0  0  0  0  0  0  0  0
    9.4798   10.4678   23.6502 C   0  0  0  0  0  0  0  0  0  0  0  0
   11.8652   11.9058   23.3929 C   0  0  0  0  0  0  0  0  0  0  0  0
   10.6645    9.7863   23.2159 C   0  0  0  0  0  0  0  0  0  0  0  0
   11.8204   10.4790   23.0794 C   0  0  0  0  0  0  0  0  0  0  0  0
   10.7625   12.5547   23.8023 C   0  0  0  0  0  0  0  0  0  0  0  0
   13.7655    9.1087   23.7460 C   0  0  0  0  0  0  0  0  0  0  0  0
   13.1357    9.9027   22.6265 C   0  0  0  0  0  0  0  0  0  0  0  0
   10.5324    7.2565   22.6954 N   0  0  0  0  0  0  0  0  0  0  0  0
    8.2665   10.0027   23.8629 N   0  0  0  0  0  0  0  0  0  0  0  0
    9.5575   11.8408   23.9077 N   0  0  0  0  0  0  0  0  0  0  0  0
   10.6006   14.8852   22.0058 N   0  3  0  0  0  0  0  0  0  0  0  0
    9.5330   14.1940   21.8125 O   0  5  0  0  0  0  0  0  0  0  0  0
   10.8501   13.8904   24.1372 O   0  0  0  0  0  0  0  0  0  0  0  0
    4.4981   12.4261   25.0598 H   0  0  0  0  0  0  0  0  0  0  0  0
    5.8530   14.4880   25.0386 H   0  0  0  0  0  0  0  0  0  0  0  0
   13.7660   16.9443   22.5571 H   0  0  0  0  0  0  0  0  0  0  0  0
   12.4844   17.1630   20.4361 H   0  0  0  0  0  0  0  0  0  0  0  0
    5.5304   10.2353   24.5176 H   0  0  0  0  0  0  0  0  0  0  0  0
    8.2566   14.4226   24.4961 H   0  0  0  0  0  0  0  0  0  0  0  0
   12.9773   15.3810   24.3146 H   0  0  0  0  0  0  0  0  0  0  0  0
   10.3921   15.7580   20.1505 H   0  0  0  0  0  0  0  0  0  0  0  0
   12.8150   12.4248   23.3095 H   0  0  0  0  0  0  0  0  0  0  0  0
   13.9500    9.7582   24.6072 H   0  0  0  0  0  0  0  0  0  0  0  0
   14.7199    8.6711   23.4341 H   0  0  0  0  0  0  0  0  0  0  0  0
   13.1146    8.2891   24.0678 H   0  0  0  0  0  0  0  0  0  0  0  0
   12.9430    9.2743   21.7574 H   0  0  0  0  0  0  0  0  0  0  0  0
   13.7730   10.7355   22.3301 H   0  0  0  0  0  0  0  0  0  0  0  0
  1 15  1  0  0  0  0
  1 20  3  0  0  0  0
  2  3  1  0  0  0  0
  2  6  2  0  0  0  0
  3  7  2  0  0  0  0
  4  5  1  0  0  0  0
  4  8  2  0  0  0  0
  5  9  2  0  0  0  0
  6 10  1  0  0  0  0
  7 11  1  0  0  0  0
  8 12  1  0  0  0  0
  9 23  1  0  0  0  0
 10 11  2  0  0  0  0
 10 21  1  0  0  0  0
 11 22  1  0  0  0  0
 12 23  2  0  0  0  0
 12 25  1  0  0  0  0
 13 15  1  0  0  0  0
 13 21  2  0  0  0  0
 13 22  1  0  0  0  0
 14 16  1  0  0  0  0
 14 17  2  0  0  0  0
 15 16  2  0  0  0  0
 16 19  1  0  0  0  0
 17 22  1  0  0  0  0
 17 25  1  0  0  0  0
 18 19  1  0  0  0  0
 23 24  1  0  0  0  0
  2 26  1  0  0  0  0
  3 27  1  0  0  0  0
  4 28  1  0  0  0  0
  5 29  1  0  0  0  0
  6 30  1  0  0  0  0
  7 31  1  0  0  0  0
  8 32  1  0  0  0  0
  9 33  1  0  0  0  0
 14 34  1  0  0  0  0
 18 35  1  0  0  0  0
 18 36  1  0  0  0  0
 18 37  1  0  0  0  0
 19 38  1  0  0  0  0
 19 39  1  0  0  0  0
M  CHG  2  23   1  24  -1
M  END
> <idnumber>
Z127511522

> <heavy_atoms>
25

> <LogS>
-6.08

> <LogP>
2.411

> <rotating_bonds>
3

> <PSA>
77.26

> <hb_acceptors>
3

> <hb_donors>
0

> <Collection>
Legacy

> <link>
https://www.enaminestore.com/catalog/Z127511522

> <ROCS_ShapeQuery>
x0446_0A_x1080_0A_x0929_0A_x0812_0A_x0719_0A_x1140_0A_x0528_0A_x0310_0A

> <ROCS_TanimotoCombo>
0.456 

> <ROCS_ShapeTanimoto>
0.279 

> <ROCS_ColorTanimoto>
0.177 

> <ROCS_RefTversky>
0.250 

> <ROCS_RefColorTversky>
0.202 

> <ROCS_RefTverskyCombo>
0.452 

> <ROCS_FitTversky>
1.695 

> <ROCS_FitColorTversky>
0.587 

> <ROCS_FitTverskyCombo>
2.282 

> <ROCS_ColorScore>
-7.247

> <ROCS_Overlap>
2958.252

> <ROCS_Rank>
433                 

$$$$
untitled-dbase-437148_8
  -OEChem-02092406493D

 38 40  0     1  0  0  0  0  0999 V2000
    6.1826   12.3587   25.0710 C   0  0  0  0  0  0  0  0  0  0  0  0
    9.9692   14.2258   22.4170 C   0  0  0  0  0  0  0  0  0  0  0  0
    9.4445   10.0531   23.4182 C   0  0  0  0  0  0  0  0  0  0  0  0
    8.4499   11.3781   25.3073 C   0  0  0  0  0  0  0  0  0  0  0  0
    9.0632   11.9843   21.8565 C   0  0  0  0  0  0  0  0  0  0  0  0
    8.0670   13.3131   23.7460 C   0  0  0  0  0  0  0  0  0  0  0  0
    9.7547   11.0320   24.5661 C   0  0  2  0  0  0  0  0  0  0  0  0
    8.4494   10.6950   22.4333 C   0  0  2  0  0  0  0  0  0  0  0  0
    7.4468   12.0268   24.3314 C   0  0  2  0  0  0  0  0  0  0  0  0
    9.3735   12.9751   22.9973 C   0  0  2  0  0  0  0  0  0  0  0  0
   10.3545   12.3156   23.9792 C   0  0  0  0  0  0  0  0  0  0  0  0
    7.1591   11.0453   23.1845 C   0  0  0  0  0  0  0  0  0  0  0  0
    4.7724   14.1580   25.6692 C   0  0  0  0  0  0  0  0  0  0  0  0
   11.9036   15.5822   22.4618 C   0  0  0  0  0  0  0  0  0  0  0  0
    5.4837   11.5307   25.6394 O   0  0  0  0  0  0  0  0  0  0  0  0
    9.3997   14.9435   21.6060 O   0  0  0  0  0  0  0  0  0  0  0  0
    5.9533   13.7010   25.0023 O   0  0  0  0  0  0  0  0  0  0  0  0
   11.2165   14.4185   22.9328 O   0  0  0  0  0  0  0  0  0  0  0  0
   10.6628   13.1732   24.9849 F   0  0  0  0  0  0  0  0  0  0  0  0
   11.5237   12.0211   23.3553 F   0  0  0  0  0  0  0  0  0  0  0  0
    6.5951    9.9076   23.6644 F   0  0  0  0  0  0  0  0  0  0  0  0
    6.2618   11.5818   22.3189 F   0  0  0  0  0  0  0  0  0  0  0  0
   10.3691    9.7835   22.8935 H   0  0  0  0  0  0  0  0  0  0  0  0
    9.0269    9.1231   23.8229 H   0  0  0  0  0  0  0  0  0  0  0  0
    8.0207   10.4704   25.7515 H   0  0  0  0  0  0  0  0  0  0  0  0
    8.6621   12.0564   26.1442 H   0  0  0  0  0  0  0  0  0  0  0  0
    9.9770   11.7450   21.2970 H   0  0  0  0  0  0  0  0  0  0  0  0
    8.3727   12.4381   21.1335 H   0  0  0  0  0  0  0  0  0  0  0  0
    7.3538   13.8052   23.0701 H   0  0  0  0  0  0  0  0  0  0  0  0
    8.2644   14.0418   24.5447 H   0  0  0  0  0  0  0  0  0  0  0  0
   10.4655   10.5732   25.2620 H   0  0  0  0  0  0  0  0  0  0  0  0
    8.2284    9.9946   21.6205 H   0  0  0  0  0  0  0  0  0  0  0  0
    4.6837   15.2410   25.5535 H   0  0  0  0  0  0  0  0  0  0  0  0
    4.8275   13.8974   26.7292 H   0  0  0  0  0  0  0  0  0  0  0  0
    3.9014   13.6735   25.2217 H   0  0  0  0  0  0  0  0  0  0  0  0
   12.8870   15.6419   22.9344 H   0  0  0  0  0  0  0  0  0  0  0  0
   11.3181   16.4737   22.7004 H   0  0  0  0  0  0  0  0  0  0  0  0
   12.0263   15.5085   21.3786 H   0  0  0  0  0  0  0  0  0  0  0  0
  1  9  1  0  0  0  0
  1 15  2  0  0  0  0
  1 17  1  0  0  0  0
  2 10  1  0  0  0  0
  2 16  2  0  0  0  0
  2 18  1  0  0  0  0
  3  7  1  0  0  0  0
  3  8  1  0  0  0  0
  4  7  1  0  0  0  0
  4  9  1  0  0  0  0
  5  8  1  0  0  0  0
  5 10  1  0  0  0  0
  6  9  1  0  0  0  0
  6 10  1  0  0  0  0
  7 11  1  0  0  0  0
  8 12  1  0  0  0  0
  9 12  1  0  0  0  0
 10 11  1  0  0  0  0
 11 19  1  0  0  0  0
 11 20  1  0  0  0  0
 12 21  1  0  0  0  0
 12 22  1  0  0  0  0
 13 17  1  0  0  0  0
 14 18  1  0  0  0  0
  3 23  1  0  0  0  0
  3 24  1  0  0  0  0
  4 25  1  0  0  0  0
  4 26  1  0  0  0  0
  5 27  1  0  0  0  0
  5 28  1  0  0  0  0
  6 29  1  0  0  0  0
  6 30  1  0  0  0  0
  7 31  1  0  0  0  0
  8 32  1  0  0  0  0
 13 33  1  0  0  0  0
 13 34  1  0  0  0  0
 13 35  1  0  0  0  0
 14 36  1  0  0  0  0
 14 37  1  0  0  0  0
 14 38  1  0  0  0  0
M  END
> <idnumber>
Z56760892

> <heavy_atoms>
22

> <LogS>
-2.68

> <LogP>
2.852

> <rotating_bonds>
4

> <PSA>
52.6

> <hb_acceptors>
2

> <hb_donors>
0

> <Collection>
Legacy

> <link>
https://www.enaminestore.com/catalog/Z56760892

> <ROCS_ShapeQuery>
x0446_0A_x1080_0A_x0929_0A_x0812_0A_x0719_0A_x1140_0A_x0528_0A_x0310_0A

> <ROCS_TanimotoCombo>
0.456 

> <ROCS_ShapeTanimoto>
0.272 

> <ROCS_ColorTanimoto>
0.184 

> <ROCS_RefTversky>
0.243 

> <ROCS_RefColorTversky>
0.199 

> <ROCS_RefTverskyCombo>
0.441 

> <ROCS_FitTversky>
1.783 

> <ROCS_FitColorTversky>
0.716 

> <ROCS_FitTverskyCombo>
2.499 

> <ROCS_ColorScore>
-7.099

> <ROCS_Overlap>
2866.594

> <ROCS_Rank>
434                 

$$$$
untitled-dbase-323034_13
  -OEChem-02092406493D

 35 38  0     0  0  0  0  0  0999 V2000
   13.3118   14.3541   22.5079 C   0  0  0  0  0  0  0  0  0  0  0  0
    6.4642   16.9486   23.1254 C   0  0  0  0  0  0  0  0  0  0  0  0
   12.2742   14.1078   23.4001 C   0  0  0  0  0  0  0  0  0  0  0  0
    6.3125   15.5494   22.9031 C   0  0  0  0  0  0  0  0  0  0  0  0
   12.9815   14.7619   21.2256 C   0  0  0  0  0  0  0  0  0  0  0  0
    7.1584   17.2161   24.2847 C   0  0  0  0  0  0  0  0  0  0  0  0
    5.7255   12.6050   23.9786 C   0  0  0  0  0  0  0  0  0  0  0  0
    8.0576   12.4831   23.9482 C   0  0  0  0  0  0  0  0  0  0  0  0
    6.9004   13.3240   23.9420 C   0  0  0  0  0  0  0  0  0  0  0  0
   10.9566   14.2746   22.9886 C   0  0  0  0  0  0  0  0  0  0  0  0
    6.8969   14.8007   23.9010 C   0  0  0  0  0  0  0  0  0  0  0  0
   10.7317   14.6862   21.6848 C   0  0  0  0  0  0  0  0  0  0  0  0
    9.4300   12.7508   23.9213 C   0  0  0  0  0  0  0  0  0  0  0  0
    7.6948   11.1431   23.9900 C   0  0  0  0  0  0  0  0  0  0  0  0
    9.8260   10.4837   23.9781 C   0  0  0  0  0  0  0  0  0  0  0  0
   10.8382    9.3868   23.9944 C   0  0  0  0  0  0  0  0  0  0  0  0
   11.7136   14.9349   20.7895 N   0  0  0  0  0  0  0  0  0  0  0  0
   10.3208   11.7363   23.9367 N   0  0  0  0  0  0  0  0  0  0  0  0
    8.5392   10.0933   24.0069 N   0  0  0  0  0  0  0  0  0  0  0  0
    9.3638   14.8473   21.2922 N   0  3  0  0  0  0  0  0  0  0  0  0
    8.7648   13.8667   20.8029 O   0  5  0  0  0  0  0  0  0  0  0  0
    8.8247   15.9622   21.4546 O   0  0  0  0  0  0  0  0  0  0  0  0
    9.9319   14.0289   23.8780 O   0  0  0  0  0  0  0  0  0  0  0  0
    7.6243   15.7838   25.0996 S   0  0  0  0  0  0  0  0  0  0  0  0
    6.0058   10.9181   24.0197 S   0  0  0  0  0  0  0  0  0  0  0  0
   14.3462   14.2299   22.8068 H   0  0  0  0  0  0  0  0  0  0  0  0
    6.0839   17.7195   22.4679 H   0  0  0  0  0  0  0  0  0  0  0  0
   12.4989   13.7866   24.4134 H   0  0  0  0  0  0  0  0  0  0  0  0
    5.7987   15.1219   22.0507 H   0  0  0  0  0  0  0  0  0  0  0  0
   13.7537   14.9662   20.4914 H   0  0  0  0  0  0  0  0  0  0  0  0
    7.4151   18.1838   24.6921 H   0  0  0  0  0  0  0  0  0  0  0  0
    4.7115   12.9825   23.9823 H   0  0  0  0  0  0  0  0  0  0  0  0
   11.1105    9.1354   25.0263 H   0  0  0  0  0  0  0  0  0  0  0  0
   10.4528    8.4834   23.5052 H   0  0  0  0  0  0  0  0  0  0  0  0
   11.7481    9.6779   23.4543 H   0  0  0  0  0  0  0  0  0  0  0  0
  1  3  2  0  0  0  0
  1  5  1  0  0  0  0
  2  4  1  0  0  0  0
  2  6  2  0  0  0  0
  3 10  1  0  0  0  0
  4 11  2  0  0  0  0
  5 17  2  0  0  0  0
  6 24  1  0  0  0  0
  7  9  2  0  0  0  0
  7 25  1  0  0  0  0
  8  9  1  0  0  0  0
  8 13  1  0  0  0  0
  8 14  2  0  0  0  0
  9 11  1  0  0  0  0
 10 12  2  0  0  0  0
 10 23  1  0  0  0  0
 11 24  1  0  0  0  0
 12 17  1  0  0  0  0
 12 20  1  0  0  0  0
 13 18  2  0  0  0  0
 13 23  1  0  0  0  0
 14 19  1  0  0  0  0
 14 25  1  0  0  0  0
 15 16  1  0  0  0  0
 15 18  1  0  0  0  0
 15 19  2  0  0  0  0
 20 21  1  0  0  0  0
 20 22  2  0  0  0  0
  1 26  1  0  0  0  0
  2 27  1  0  0  0  0
  3 28  1  0  0  0  0
  4 29  1  0  0  0  0
  5 30  1  0  0  0  0
  6 31  1  0  0  0  0
  7 32  1  0  0  0  0
 16 33  1  0  0  0  0
 16 34  1  0  0  0  0
 16 35  1  0  0  0  0
M  CHG  2  20   1  21  -1
M  END
> <idnumber>
Z31112493

> <heavy_atoms>
25

> <LogS>
-6.37

> <LogP>
3.38

> <rotating_bonds>
4

> <PSA>
91.04

> <hb_acceptors>
5

> <hb_donors>
0

> <Collection>
Legacy

> <link>
https://www.enaminestore.com/catalog/Z31112493

> <ROCS_ShapeQuery>
x0446_0A_x1080_0A_x0929_0A_x0812_0A_x0719_0A_x1140_0A_x0528_0A_x0310_0A

> <ROCS_TanimotoCombo>
0.456 

> <ROCS_ShapeTanimoto>
0.262 

> <ROCS_ColorTanimoto>
0.194 

> <ROCS_RefTversky>
0.237 

> <ROCS_RefColorTversky>
0.214 

> <ROCS_RefTverskyCombo>
0.452 

> <ROCS_FitTversky>
1.635 

> <ROCS_FitColorTversky>
0.673 

> <ROCS_FitTverskyCombo>
2.308 

> <ROCS_ColorScore>
-7.679

> <ROCS_Overlap>
2806.225

> <ROCS_Rank>
435                 

$$$$
untitled-dbase-325386_20
  -OEChem-02092406493D

 39 42  0     0  0  0  0  0  0999 V2000
   13.5045   14.7220   22.1692 C   0  0  0  0  0  0  0  0  0  0  0  0
   13.2816   14.0267   23.3577 C   0  0  0  0  0  0  0  0  0  0  0  0
   12.4262   15.2378   21.4502 C   0  0  0  0  0  0  0  0  0  0  0  0
   11.9805   13.8471   23.8272 C   0  0  0  0  0  0  0  0  0  0  0  0
    9.6869   10.6342   23.5558 C   0  0  0  0  0  0  0  0  0  0  0  0
    7.9284   12.5353   24.2306 C   0  0  0  0  0  0  0  0  0  0  0  0
    6.7959   13.3186   24.6637 C   0  0  0  0  0  0  0  0  0  0  0  0
   11.1250   15.0582   21.9197 C   0  0  0  0  0  0  0  0  0  0  0  0
   10.9022   14.3628   23.1082 C   0  0  0  0  0  0  0  0  0  0  0  0
    5.7426   12.5106   25.0611 C   0  0  0  0  0  0  0  0  0  0  0  0
    9.2000   12.8745   23.7486 C   0  0  0  0  0  0  0  0  0  0  0  0
    7.6643   11.1757   24.3262 C   0  0  0  0  0  0  0  0  0  0  0  0
    6.7421   14.8195   24.6899 C   0  0  0  0  0  0  0  0  0  0  0  0
    4.4021   12.9472   25.5695 C   0  0  0  0  0  0  0  0  0  0  0  0
    5.6058   15.3954   23.8431 C   0  0  0  0  0  0  0  0  0  0  0  0
    3.6693   13.8431   24.5695 C   0  0  0  0  0  0  0  0  0  0  0  0
    4.2202   15.2691   24.4826 C   0  0  0  0  0  0  0  0  0  0  0  0
   10.0837   11.9118   23.4098 N   0  0  0  0  0  0  0  0  0  0  0  0
    8.5063   10.1750   24.0030 N   0  0  0  0  0  0  0  0  0  0  0  0
   10.0376   15.5908   21.1741 N   0  3  0  0  0  0  0  0  0  0  0  0
   10.2776   16.2103   20.1107 O   0  5  0  0  0  0  0  0  0  0  0  0
    8.8707   15.4257   21.6022 O   0  0  0  0  0  0  0  0  0  0  0  0
    9.6248   14.1705   23.5921 O   0  0  0  0  0  0  0  0  0  0  0  0
    6.1069   10.8478   24.9179 S   0  0  0  0  0  0  0  0  0  0  0  0
   14.5176   14.8616   21.8035 H   0  0  0  0  0  0  0  0  0  0  0  0
   14.1212   13.6252   23.9177 H   0  0  0  0  0  0  0  0  0  0  0  0
   12.6149   15.7778   20.5255 H   0  0  0  0  0  0  0  0  0  0  0  0
   11.8140   13.3044   24.7541 H   0  0  0  0  0  0  0  0  0  0  0  0
   10.4135    9.8794   23.2767 H   0  0  0  0  0  0  0  0  0  0  0  0
    6.6141   15.1900   25.7088 H   0  0  0  0  0  0  0  0  0  0  0  0
    7.7058   15.2179   24.3475 H   0  0  0  0  0  0  0  0  0  0  0  0
    3.7956   12.0639   25.8047 H   0  0  0  0  0  0  0  0  0  0  0  0
    4.5144   13.5033   26.5089 H   0  0  0  0  0  0  0  0  0  0  0  0
    5.8068   16.4434   23.5885 H   0  0  0  0  0  0  0  0  0  0  0  0
    5.5798   14.8423   22.8953 H   0  0  0  0  0  0  0  0  0  0  0  0
    3.7718   13.3898   23.5753 H   0  0  0  0  0  0  0  0  0  0  0  0
    2.5951   13.8715   24.7913 H   0  0  0  0  0  0  0  0  0  0  0  0
    4.2874   15.6639   25.5044 H   0  0  0  0  0  0  0  0  0  0  0  0
    3.5062   15.9113   23.9525 H   0  0  0  0  0  0  0  0  0  0  0  0
  1  2  1  0  0  0  0
  1  3  2  0  0  0  0
  2  4  2  0  0  0  0
  3  8  1  0  0  0  0
  4  9  1  0  0  0  0
  5 18  2  0  0  0  0
  5 19  1  0  0  0  0
  6  7  1  0  0  0  0
  6 11  2  0  0  0  0
  6 12  1  0  0  0  0
  7 10  2  0  0  0  0
  7 13  1  0  0  0  0
  8  9  2  0  0  0  0
  8 20  1  0  0  0  0
  9 23  1  0  0  0  0
 10 14  1  0  0  0  0
 10 24  1  0  0  0  0
 11 18  1  0  0  0  0
 11 23  1  0  0  0  0
 12 19  2  0  0  0  0
 12 24  1  0  0  0  0
 13 15  1  0  0  0  0
 14 16  1  0  0  0  0
 15 17  1  0  0  0  0
 16 17  1  0  0  0  0
 20 21  1  0  0  0  0
 20 22  2  0  0  0  0
  1 25  1  0  0  0  0
  2 26  1  0  0  0  0
  3 27  1  0  0  0  0
  4 28  1  0  0  0  0
  5 29  1  0  0  0  0
 13 30  1  0  0  0  0
 13 31  1  0  0  0  0
 14 32  1  0  0  0  0
 14 33  1  0  0  0  0
 15 34  1  0  0  0  0
 15 35  1  0  0  0  0
 16 36  1  0  0  0  0
 16 37  1  0  0  0  0
 17 38  1  0  0  0  0
 17 39  1  0  0  0  0
M  CHG  2  20   1  21  -1
M  END
> <idnumber>
Z31209671

> <heavy_atoms>
24

> <LogS>
-7.26

> <LogP>
4.578

> <rotating_bonds>
3

> <PSA>
78.15

> <hb_acceptors>
4

> <hb_donors>
0

> <Collection>
Legacy

> <link>
https://www.enaminestore.com/catalog/Z31209671

> <ROCS_ShapeQuery>
x0446_0A_x1080_0A_x0929_0A_x0812_0A_x0719_0A_x1140_0A_x0528_0A_x0310_0A

> <ROCS_TanimotoCombo>
0.456 

> <ROCS_ShapeTanimoto>
0.256 

> <ROCS_ColorTanimoto>
0.200 

> <ROCS_RefTversky>
0.232 

> <ROCS_RefColorTversky>
0.215 

> <ROCS_RefTverskyCombo>
0.448 

> <ROCS_FitTversky>
1.648 

> <ROCS_FitColorTversky>
0.737 

> <ROCS_FitTverskyCombo>
2.385 

> <ROCS_ColorScore>
-7.705

> <ROCS_Overlap>
2745.496

> <ROCS_Rank>
436                 

$$$$
untitled-dbase-400131_23
  -OEChem-02092406493D

 54 58  0     0  0  0  0  0  0999 V2000
    2.6575   10.6684   17.9572 C   0  0  0  0  0  0  0  0  0  0  0  0
    3.9001   10.4721   18.5525 C   0  0  0  0  0  0  0  0  0  0  0  0
    1.9144   11.8001   18.2716 C   0  0  0  0  0  0  0  0  0  0  0  0
    4.4028   11.4081   19.4644 C   0  0  0  0  0  0  0  0  0  0  0  0
    2.4315   12.7244   19.1844 C   0  0  0  0  0  0  0  0  0  0  0  0
    3.6776   12.5628   19.8045 C   0  0  0  0  0  0  0  0  0  0  0  0
    2.2939   14.8524   20.5140 C   0  0  0  0  0  0  0  0  0  0  0  0
    1.6719   13.9227   19.5343 C   0  0  0  0  0  0  0  0  0  0  0  0
    7.4862   14.5897   22.2757 C   0  0  0  0  0  0  0  0  0  0  0  0
    9.5296    9.7887   23.6712 C   0  0  0  0  0  0  0  0  0  0  0  0
    9.5578   11.4629   25.5373 C   0  0  0  0  0  0  0  0  0  0  0  0
   10.7437   11.9626   23.3782 C   0  0  0  0  0  0  0  0  0  0  0  0
    7.4388   11.0351   24.2714 C   0  0  0  0  0  0  0  0  0  0  0  0
    8.6223   11.5338   22.1166 C   0  0  0  0  0  0  0  0  0  0  0  0
   10.3778   10.8558   24.3841 C   0  0  0  0  0  0  0  0  0  0  0  0
    8.2448   10.4243   23.1126 C   0  0  0  0  0  0  0  0  0  0  0  0
    8.2733   12.1147   24.9889 C   0  0  0  0  0  0  0  0  0  0  0  0
    9.4643   12.6166   22.8205 C   0  0  0  0  0  0  0  0  0  0  0  0
    8.6748   13.2300   23.9982 C   0  0  0  0  0  0  0  0  0  0  0  0
    6.3933   14.0315   24.4706 C   0  0  0  0  0  0  0  0  0  0  0  0
    6.1171   14.7113   21.6140 C   0  0  0  0  0  0  0  0  0  0  0  0
    5.4372   13.3693   21.3654 C   0  0  0  0  0  0  0  0  0  0  0  0
    3.4486   14.6453   21.0499 N   0  0  0  0  0  0  0  0  0  0  0  0
    4.1609   13.5217   20.7202 N   0  0  0  0  0  0  0  0  0  0  0  0
    7.5224   13.9699   23.5368 N   0  0  0  0  0  0  0  0  0  0  0  0
    0.5767   14.2058   19.0822 O   0  0  0  0  0  0  0  0  0  0  0  0
    8.4951   15.0242   21.7141 O   0  0  0  0  0  0  0  0  0  0  0  0
    2.2708    9.9404   17.2504 H   0  0  0  0  0  0  0  0  0  0  0  0
    4.4838    9.5887   18.3093 H   0  0  0  0  0  0  0  0  0  0  0  0
    0.9453   11.9488   17.8044 H   0  0  0  0  0  0  0  0  0  0  0  0
    5.3781   11.2076   19.9009 H   0  0  0  0  0  0  0  0  0  0  0  0
    1.7039   15.7480   20.7640 H   0  0  0  0  0  0  0  0  0  0  0  0
   10.1072    9.3333   22.8573 H   0  0  0  0  0  0  0  0  0  0  0  0
    9.2758    8.9828   24.3707 H   0  0  0  0  0  0  0  0  0  0  0  0
    9.3011   10.6832   26.2651 H   0  0  0  0  0  0  0  0  0  0  0  0
   10.1587   12.2100   26.0705 H   0  0  0  0  0  0  0  0  0  0  0  0
   11.3693   12.7198   23.8666 H   0  0  0  0  0  0  0  0  0  0  0  0
   11.3375   11.5415   22.5574 H   0  0  0  0  0  0  0  0  0  0  0  0
    6.5031   11.4636   23.8930 H   0  0  0  0  0  0  0  0  0  0  0  0
    7.1575   10.2494   24.9839 H   0  0  0  0  0  0  0  0  0  0  0  0
    9.1908   11.1063   21.2813 H   0  0  0  0  0  0  0  0  0  0  0  0
    7.7159   11.9744   21.6843 H   0  0  0  0  0  0  0  0  0  0  0  0
   11.2914   10.3990   24.7802 H   0  0  0  0  0  0  0  0  0  0  0  0
    7.6448    9.6600   22.6063 H   0  0  0  0  0  0  0  0  0  0  0  0
    7.6996   12.5354   25.8231 H   0  0  0  0  0  0  0  0  0  0  0  0
    9.7430   13.3966   22.1022 H   0  0  0  0  0  0  0  0  0  0  0  0
    9.3035   13.9664   24.5137 H   0  0  0  0  0  0  0  0  0  0  0  0
    5.7203   13.1804   24.2897 H   0  0  0  0  0  0  0  0  0  0  0  0
    6.7691   13.9885   25.5036 H   0  0  0  0  0  0  0  0  0  0  0  0
    5.8435   14.9722   24.3194 H   0  0  0  0  0  0  0  0  0  0  0  0
    5.4733   15.3349   22.2449 H   0  0  0  0  0  0  0  0  0  0  0  0
    6.2591   15.2073   20.6469 H   0  0  0  0  0  0  0  0  0  0  0  0
    5.2757   12.8175   22.2967 H   0  0  0  0  0  0  0  0  0  0  0  0
    6.0553   12.7526   20.7052 H   0  0  0  0  0  0  0  0  0  0  0  0
  1  2  1  0  0  0  0
  1  3  2  0  0  0  0
  2  4  2  0  0  0  0
  3  5  1  0  0  0  0
  4  6  1  0  0  0  0
  5  6  2  0  0  0  0
  5  8  1  0  0  0  0
  6 24  1  0  0  0  0
  7  8  1  0  0  0  0
  7 23  2  0  0  0  0
  8 26  2  0  0  0  0
  9 21  1  0  0  0  0
  9 25  1  0  0  0  0
  9 27  2  0  0  0  0
 10 15  1  0  0  0  0
 10 16  1  0  0  0  0
 11 15  1  0  0  0  0
 11 17  1  0  0  0  0
 12 15  1  0  0  0  0
 12 18  1  0  0  0  0
 13 16  1  0  0  0  0
 13 17  1  0  0  0  0
 14 16  1  0  0  0  0
 14 18  1  0  0  0  0
 17 19  1  0  0  0  0
 18 19  1  0  0  0  0
 19 25  1  0  0  0  0
 20 25  1  0  0  0  0
 21 22  1  0  0  0  0
 22 24  1  0  0  0  0
 23 24  1  0  0  0  0
  1 28  1  0  0  0  0
  2 29  1  0  0  0  0
  3 30  1  0  0  0  0
  4 31  1  0  0  0  0
  7 32  1  0  0  0  0
 10 33  1  0  0  0  0
 10 34  1  0  0  0  0
 11 35  1  0  0  0  0
 11 36  1  0  0  0  0
 12 37  1  0  0  0  0
 12 38  1  0  0  0  0
 13 39  1  0  0  0  0
 13 40  1  0  0  0  0
 14 41  1  0  0  0  0
 14 42  1  0  0  0  0
 15 43  1  0  0  0  0
 16 44  1  0  0  0  0
 17 45  1  0  0  0  0
 18 46  1  0  0  0  0
 19 47  1  0  0  0  0
 20 48  1  0  0  0  0
 20 49  1  0  0  0  0
 20 50  1  0  0  0  0
 21 51  1  0  0  0  0
 21 52  1  0  0  0  0
 22 53  1  0  0  0  0
 22 54  1  0  0  0  0
M  END
> <idnumber>
Z367986630

> <heavy_atoms>
27

> <LogS>
-4.613

> <LogP>
3.812

> <rotating_bonds>
4

> <PSA>
52.98

> <hb_acceptors>
4

> <hb_donors>
0

> <Collection>
Legacy

> <link>
https://www.enaminestore.com/catalog/Z367986630

> <ROCS_ShapeQuery>
x0446_0A_x1080_0A_x0929_0A_x0812_0A_x0719_0A_x1140_0A_x0528_0A_x0310_0A

> <ROCS_TanimotoCombo>
0.456 

> <ROCS_ShapeTanimoto>
0.256 

> <ROCS_ColorTanimoto>
0.200 

> <ROCS_RefTversky>
0.235 

> <ROCS_RefColorTversky>
0.226 

> <ROCS_RefTverskyCombo>
0.460 

> <ROCS_FitTversky>
1.540 

> <ROCS_FitColorTversky>
0.636 

> <ROCS_FitTverskyCombo>
2.176 

> <ROCS_ColorScore>
-8.112

> <ROCS_Overlap>
2773.275

> <ROCS_Rank>
437                 

$$$$
untitled-dbase-656867_127
  -OEChem-02092406493D

 39 43  0     0  0  0  0  0  0999 V2000
    9.4817    8.3047   22.2225 C   0  0  0  0  0  0  0  0  0  0  0  0
    8.1935    8.1028   22.7200 C   0  0  0  0  0  0  0  0  0  0  0  0
    6.5109   15.5942   21.4041 C   0  0  0  0  0  0  0  0  0  0  0  0
   10.1390    9.5239   22.4203 C   0  0  0  0  0  0  0  0  0  0  0  0
    7.5453    9.1205   23.4156 C   0  0  0  0  0  0  0  0  0  0  0  0
    7.8723   15.7411   21.0462 C   0  0  0  0  0  0  0  0  0  0  0  0
    6.3213   14.2530   21.6431 C   0  0  0  0  0  0  0  0  0  0  0  0
    9.5078   10.5515   23.1266 C   0  0  0  0  0  0  0  0  0  0  0  0
    8.2076   10.3342   23.6073 C   0  0  0  0  0  0  0  0  0  0  0  0
    7.3211   13.3997   25.1449 C   0  0  0  0  0  0  0  0  0  0  0  0
    6.1933   12.5794   25.3198 C   0  0  0  0  0  0  0  0  0  0  0  0
    8.4178   14.4792   21.0923 C   0  0  0  0  0  0  0  0  0  0  0  0
    8.2294   12.6167   24.4654 C   0  0  0  0  0  0  0  0  0  0  0  0
   11.6352   13.9773   22.5761 C   0  0  0  0  0  0  0  0  0  0  0  0
   10.1059   11.8921   23.4020 C   0  0  0  0  0  0  0  0  0  0  0  0
    4.9213   12.9118   25.9868 C   0  0  0  0  0  0  0  0  0  0  0  0
    9.7992   13.9449   20.8268 C   0  0  0  0  0  0  0  0  0  0  0  0
    6.3554   11.3631   24.7960 N   0  0  0  0  0  0  0  0  0  0  0  0
   12.3387   14.9251   23.1515 N   0  0  0  0  0  0  0  0  0  0  0  0
   11.8890   16.1055   22.6043 N   0  0  0  0  0  0  0  0  0  0  0  0
   10.9312   15.8835   21.7125 N   0  0  0  0  0  0  0  0  0  0  0  0
    9.4900   12.8552   24.0229 N   0  0  0  0  0  0  0  0  0  0  0  0
    7.6012   11.4046   24.2794 N   0  0  0  0  0  0  0  0  0  0  0  0
   10.7743   14.5525   21.6967 N   0  0  0  0  0  0  0  0  0  0  0  0
    7.4789   13.5664   21.4554 O   0  0  0  0  0  0  0  0  0  0  0  0
   11.7422   12.2222   22.8556 S   0  0  0  0  0  0  0  0  0  0  0  0
    7.5027   15.0004   25.6676 Cl  0  0  0  0  0  0  0  0  0  0  0  0
    9.9790    7.5070   21.6772 H   0  0  0  0  0  0  0  0  0  0  0  0
    7.6943    7.1517   22.5594 H   0  0  0  0  0  0  0  0  0  0  0  0
    5.7614   16.3688   21.4781 H   0  0  0  0  0  0  0  0  0  0  0  0
   11.1397    9.6312   22.0148 H   0  0  0  0  0  0  0  0  0  0  0  0
    6.5398    8.9470   23.7872 H   0  0  0  0  0  0  0  0  0  0  0  0
    8.3886   16.6545   20.7870 H   0  0  0  0  0  0  0  0  0  0  0  0
    5.4685   13.6599   21.9389 H   0  0  0  0  0  0  0  0  0  0  0  0
    4.1952   13.3360   25.2730 H   0  0  0  0  0  0  0  0  0  0  0  0
    4.4529   12.0274   26.4530 H   0  0  0  0  0  0  0  0  0  0  0  0
    5.0579   13.6463   26.7999 H   0  0  0  0  0  0  0  0  0  0  0  0
    9.8385   12.8586   20.9731 H   0  0  0  0  0  0  0  0  0  0  0  0
   10.1030   14.1301   19.7893 H   0  0  0  0  0  0  0  0  0  0  0  0
  1  2  1  0  0  0  0
  1  4  2  0  0  0  0
  2  5  2  0  0  0  0
  3  6  1  0  0  0  0
  3  7  2  0  0  0  0
  4  8  1  0  0  0  0
  5  9  1  0  0  0  0
  6 12  2  0  0  0  0
  7 25  1  0  0  0  0
  8  9  2  0  0  0  0
  8 15  1  0  0  0  0
  9 23  1  0  0  0  0
 10 11  1  0  0  0  0
 10 13  2  0  0  0  0
 10 27  1  0  0  0  0
 11 16  1  0  0  0  0
 11 18  2  0  0  0  0
 12 17  1  0  0  0  0
 12 25  1  0  0  0  0
 13 22  1  0  0  0  0
 13 23  1  0  0  0  0
 14 19  2  0  0  0  0
 14 24  1  0  0  0  0
 14 26  1  0  0  0  0
 15 22  2  0  0  0  0
 15 26  1  0  0  0  0
 17 24  1  0  0  0  0
 18 23  1  0  0  0  0
 19 20  1  0  0  0  0
 20 21  2  0  0  0  0
 21 24  1  0  0  0  0
  1 28  1  0  0  0  0
  2 29  1  0  0  0  0
  3 30  1  0  0  0  0
  4 31  1  0  0  0  0
  5 32  1  0  0  0  0
  6 33  1  0  0  0  0
  7 34  1  0  0  0  0
 16 35  1  0  0  0  0
 16 36  1  0  0  0  0
 16 37  1  0  0  0  0
 17 38  1  0  0  0  0
 17 39  1  0  0  0  0
M  END
> <idnumber>
Z229255230

> <heavy_atoms>
27

> <LogS>
-6.44

> <LogP>
4.42

> <rotating_bonds>
4

> <PSA>
86.93

> <hb_acceptors>
5

> <hb_donors>
0

> <Collection>
Legacy

> <link>
https://www.enaminestore.com/catalog/Z229255230

> <ROCS_ShapeQuery>
x0446_0A_x1080_0A_x0929_0A_x0812_0A_x0719_0A_x1140_0A_x0528_0A_x0310_0A

> <ROCS_TanimotoCombo>
0.456 

> <ROCS_ShapeTanimoto>
0.299 

> <ROCS_ColorTanimoto>
0.157 

> <ROCS_RefTversky>
0.266 

> <ROCS_RefColorTversky>
0.184 

> <ROCS_RefTverskyCombo>
0.450 

> <ROCS_FitTversky>
1.720 

> <ROCS_FitColorTversky>
0.511 

> <ROCS_FitTverskyCombo>
2.231 

> <ROCS_ColorScore>
-6.625

> <ROCS_Overlap>
3140.653

> <ROCS_Rank>
438                 

$$$$
untitled-dbase-529563_66
  -OEChem-02092406493D

 54 59  0     0  0  0  0  0  0999 V2000
   10.3318    7.9450   23.1136 C   0  0  0  0  0  0  0  0  0  0  0  0
    7.2729   15.5890   24.0786 C   0  0  0  0  0  0  0  0  0  0  0  0
    6.0612   15.5488   24.7653 C   0  0  0  0  0  0  0  0  0  0  0  0
    9.2343    7.4259   23.7835 C   0  0  0  0  0  0  0  0  0  0  0  0
   14.9725   16.6705   19.7520 C   0  0  0  0  0  0  0  0  0  0  0  0
   10.4439    9.3202   22.9149 C   0  0  0  0  0  0  0  0  0  0  0  0
    7.9636   14.4076   23.8076 C   0  0  0  0  0  0  0  0  0  0  0  0
    5.5357   14.3262   25.1836 C   0  0  0  0  0  0  0  0  0  0  0  0
    8.2237    8.2634   24.2704 C   0  0  0  0  0  0  0  0  0  0  0  0
   13.8042   16.9588   19.0612 C   0  0  0  0  0  0  0  0  0  0  0  0
   14.9431   15.8741   20.8984 C   0  0  0  0  0  0  0  0  0  0  0  0
    9.4369   10.1837   23.3972 C   0  0  0  0  0  0  0  0  0  0  0  0
   12.5159   15.6433   20.6642 C   0  0  0  0  0  0  0  0  0  0  0  0
    7.4392   13.1796   24.2257 C   0  0  0  0  0  0  0  0  0  0  0  0
   11.3945   15.0184   21.3064 C   0  0  0  0  0  0  0  0  0  0  0  0
    6.2180   13.1341   24.9182 C   0  0  0  0  0  0  0  0  0  0  0  0
    8.3261    9.6549   24.0753 C   0  0  0  0  0  0  0  0  0  0  0  0
    9.2807   11.5885   23.3466 C   0  0  0  0  0  0  0  0  0  0  0  0
   12.5791   16.4540   19.5052 C   0  0  0  0  0  0  0  0  0  0  0  0
   13.7065   15.3668   21.3434 C   0  0  0  0  0  0  0  0  0  0  0  0
    8.1022   11.9054   23.9788 C   0  0  0  0  0  0  0  0  0  0  0  0
   11.7491   14.3029   22.4253 C   0  0  0  0  0  0  0  0  0  0  0  0
    6.2764   10.7946   25.1175 C   0  0  0  0  0  0  0  0  0  0  0  0
   10.8973   13.5294   23.3449 C   0  0  0  0  0  0  0  0  0  0  0  0
    5.6681    9.5127   25.5864 C   0  0  0  0  0  0  0  0  0  0  0  0
    8.1444   16.5717   20.6778 C   0  0  0  0  0  0  0  0  0  0  0  0
    9.9955   15.1305   20.8169 C   0  0  0  0  0  0  0  0  0  0  0  0
    5.6609   11.9150   25.3531 N   0  0  0  0  0  0  0  0  0  0  0  0
    7.5081   10.7321   24.4297 N   0  0  0  0  0  0  0  0  0  0  0  0
   10.1735   12.4584   22.7574 N   0  0  0  0  0  0  0  0  0  0  0  0
   10.8103   13.8329   24.5329 O   0  0  0  0  0  0  0  0  0  0  0  0
    9.4826   16.4217   21.1292 O   0  0  0  0  0  0  0  0  0  0  0  0
   11.4667   16.7491   18.8169 F   0  0  0  0  0  0  0  0  0  0  0  0
   13.4263   14.3695   22.7219 S   0  0  0  0  0  0  0  0  0  0  0  0
   11.1068    7.2804   22.7429 H   0  0  0  0  0  0  0  0  0  0  0  0
    7.6803   16.5422   23.7536 H   0  0  0  0  0  0  0  0  0  0  0  0
    5.5254   16.4700   24.9750 H   0  0  0  0  0  0  0  0  0  0  0  0
    9.1552    6.3522   23.9344 H   0  0  0  0  0  0  0  0  0  0  0  0
   15.9205   17.0676   19.3994 H   0  0  0  0  0  0  0  0  0  0  0  0
   11.3081    9.7174   22.3888 H   0  0  0  0  0  0  0  0  0  0  0  0
    8.9011   14.4908   23.2709 H   0  0  0  0  0  0  0  0  0  0  0  0
    4.5891   14.3086   25.7182 H   0  0  0  0  0  0  0  0  0  0  0  0
    7.3892    7.8055   24.7853 H   0  0  0  0  0  0  0  0  0  0  0  0
   13.8392   17.5799   18.1707 H   0  0  0  0  0  0  0  0  0  0  0  0
   15.8629   15.6540   21.4328 H   0  0  0  0  0  0  0  0  0  0  0  0
    5.0172    9.1087   24.8117 H   0  0  0  0  0  0  0  0  0  0  0  0
    5.0856    9.6897   26.4904 H   0  0  0  0  0  0  0  0  0  0  0  0
    6.4541    8.7915   25.8091 H   0  0  0  0  0  0  0  0  0  0  0  0
    7.7828   17.5708   20.9329 H   0  0  0  0  0  0  0  0  0  0  0  0
    7.5133   15.8132   21.1477 H   0  0  0  0  0  0  0  0  0  0  0  0
    8.1186   16.4433   19.5931 H   0  0  0  0  0  0  0  0  0  0  0  0
    9.9338   14.9863   19.7277 H   0  0  0  0  0  0  0  0  0  0  0  0
    9.3453   14.3743   21.2820 H   0  0  0  0  0  0  0  0  0  0  0  0
   10.3390   12.3103   21.7479 H   0  0  0  0  0  0  0  0  0  0  0  0
  1  4  1  0  0  0  0
  1  6  2  0  0  0  0
  2  3  1  0  0  0  0
  2  7  2  0  0  0  0
  3  8  2  0  0  0  0
  4  9  2  0  0  0  0
  5 10  1  0  0  0  0
  5 11  2  0  0  0  0
  6 12  1  0  0  0  0
  7 14  1  0  0  0  0
  8 16  1  0  0  0  0
  9 17  1  0  0  0  0
 10 19  2  0  0  0  0
 11 20  1  0  0  0  0
 12 17  2  0  0  0  0
 12 18  1  0  0  0  0
 13 15  1  0  0  0  0
 13 19  1  0  0  0  0
 13 20  2  0  0  0  0
 14 16  2  0  0  0  0
 14 21  1  0  0  0  0
 15 22  2  0  0  0  0
 15 27  1  0  0  0  0
 16 28  1  0  0  0  0
 17 29  1  0  0  0  0
 18 21  2  0  0  0  0
 18 30  1  0  0  0  0
 19 33  1  0  0  0  0
 20 34  1  0  0  0  0
 21 29  1  0  0  0  0
 22 24  1  0  0  0  0
 22 34  1  0  0  0  0
 23 25  1  0  0  0  0
 23 28  2  0  0  0  0
 23 29  1  0  0  0  0
 24 30  1  0  0  0  0
 24 31  2  0  0  0  0
 26 32  1  0  0  0  0
 27 32  1  0  0  0  0
  1 35  1  0  0  0  0
  2 36  1  0  0  0  0
  3 37  1  0  0  0  0
  4 38  1  0  0  0  0
  5 39  1  0  0  0  0
  6 40  1  0  0  0  0
  7 41  1  0  0  0  0
  8 42  1  0  0  0  0
  9 43  1  0  0  0  0
 10 44  1  0  0  0  0
 11 45  1  0  0  0  0
 25 46  1  0  0  0  0
 25 47  1  0  0  0  0
 25 48  1  0  0  0  0
 26 49  1  0  0  0  0
 26 50  1  0  0  0  0
 26 51  1  0  0  0  0
 27 52  1  0  0  0  0
 27 53  1  0  0  0  0
 30 54  1  0  0  0  0
M  END
> <idnumber>
Z90922328

> <heavy_atoms>
34

> <LogS>
-7.87

> <LogP>
6.509

> <rotating_bonds>
4

> <PSA>
55.63

> <hb_acceptors>
3

> <hb_donors>
1

> <Collection>
Legacy

> <link>
https://www.enaminestore.com/catalog/Z90922328

> <ROCS_ShapeQuery>
x0446_0A_x1080_0A_x0929_0A_x0812_0A_x0719_0A_x1140_0A_x0528_0A_x0310_0A

> <ROCS_TanimotoCombo>
0.456 

> <ROCS_ShapeTanimoto>
0.283 

> <ROCS_ColorTanimoto>
0.173 

> <ROCS_RefTversky>
0.260 

> <ROCS_RefColorTversky>
0.194 

> <ROCS_RefTverskyCombo>
0.454 

> <ROCS_FitTversky>
1.442 

> <ROCS_FitColorTversky>
0.610 

> <ROCS_FitTverskyCombo>
2.052 

> <ROCS_ColorScore>
-6.960

> <ROCS_Overlap>
3081.248

> <ROCS_Rank>
439                 

$$$$
untitled-dbase-324930_9
  -OEChem-02092406493D

 32 35  0     0  0  0  0  0  0999 V2000
    4.0429   10.7418   25.5895 C   0  0  0  0  0  0  0  0  0  0  0  0
   13.5417   14.8094   22.1862 C   0  0  0  0  0  0  0  0  0  0  0  0
    3.7343   12.1013   25.6787 C   0  0  0  0  0  0  0  0  0  0  0  0
   13.3045   14.1294   23.3807 C   0  0  0  0  0  0  0  0  0  0  0  0
    5.3021   10.3137   25.1476 C   0  0  0  0  0  0  0  0  0  0  0  0
   12.4711   15.3005   21.4388 C   0  0  0  0  0  0  0  0  0  0  0  0
    4.6687   13.0814   25.3312 C   0  0  0  0  0  0  0  0  0  0  0  0
   11.9968   13.9402   23.8277 C   0  0  0  0  0  0  0  0  0  0  0  0
    9.6399   10.6608   23.5989 C   0  0  0  0  0  0  0  0  0  0  0  0
    6.2584   11.2814   24.7926 C   0  0  0  0  0  0  0  0  0  0  0  0
    7.5948   11.2660   24.3172 C   0  0  0  0  0  0  0  0  0  0  0  0
   11.1635   15.1113   21.8858 C   0  0  0  0  0  0  0  0  0  0  0  0
    5.9127   12.6279   24.8954 C   0  0  0  0  0  0  0  0  0  0  0  0
    7.9714   12.5919   24.1634 C   0  0  0  0  0  0  0  0  0  0  0  0
   10.9263   14.4312   23.0803 C   0  0  0  0  0  0  0  0  0  0  0  0
    9.2286   12.9338   23.7113 C   0  0  0  0  0  0  0  0  0  0  0  0
    8.4323   10.2387   24.0346 N   0  0  0  0  0  0  0  0  0  0  0  0
   10.0845   11.9284   23.4218 N   0  0  0  0  0  0  0  0  0  0  0  0
   10.0842   15.6186   21.1113 N   0  3  0  0  0  0  0  0  0  0  0  0
   10.3370   16.2249   20.0433 O   0  5  0  0  0  0  0  0  0  0  0  0
    8.9113   15.4450   21.5193 O   0  0  0  0  0  0  0  0  0  0  0  0
    6.9552   13.4226   24.5126 O   0  0  0  0  0  0  0  0  0  0  0  0
    9.6412   14.2296   23.5428 O   0  0  0  0  0  0  0  0  0  0  0  0
    3.2944   10.0033   25.8655 H   0  0  0  0  0  0  0  0  0  0  0  0
   14.5599   14.9566   21.8379 H   0  0  0  0  0  0  0  0  0  0  0  0
    2.7486   12.4036   26.0234 H   0  0  0  0  0  0  0  0  0  0  0  0
   14.1380   13.7472   23.9628 H   0  0  0  0  0  0  0  0  0  0  0  0
    5.5269    9.2532   25.0846 H   0  0  0  0  0  0  0  0  0  0  0  0
   12.6711   15.8288   20.5096 H   0  0  0  0  0  0  0  0  0  0  0  0
    4.4364   14.1377   25.3986 H   0  0  0  0  0  0  0  0  0  0  0  0
   11.8192   13.4095   24.7596 H   0  0  0  0  0  0  0  0  0  0  0  0
   10.3517    9.8785   23.3580 H   0  0  0  0  0  0  0  0  0  0  0  0
  1  3  1  0  0  0  0
  1  5  2  0  0  0  0
  2  4  1  0  0  0  0
  2  6  2  0  0  0  0
  3  7  2  0  0  0  0
  4  8  2  0  0  0  0
  5 10  1  0  0  0  0
  6 12  1  0  0  0  0
  7 13  1  0  0  0  0
  8 15  1  0  0  0  0
  9 17  1  0  0  0  0
  9 18  2  0  0  0  0
 10 11  1  0  0  0  0
 10 13  2  0  0  0  0
 11 14  1  0  0  0  0
 11 17  2  0  0  0  0
 12 15  2  0  0  0  0
 12 19  1  0  0  0  0
 13 22  1  0  0  0  0
 14 16  2  0  0  0  0
 14 22  1  0  0  0  0
 15 23  1  0  0  0  0
 16 18  1  0  0  0  0
 16 23  1  0  0  0  0
 19 20  1  0  0  0  0
 19 21  2  0  0  0  0
  1 24  1  0  0  0  0
  2 25  1  0  0  0  0
  3 26  1  0  0  0  0
  4 27  1  0  0  0  0
  5 28  1  0  0  0  0
  6 29  1  0  0  0  0
  7 30  1  0  0  0  0
  8 31  1  0  0  0  0
  9 32  1  0  0  0  0
M  CHG  2  19   1  20  -1
M  END
> <idnumber>
Z31209573

> <heavy_atoms>
23

> <LogS>
-5.797

> <LogP>
3.403

> <rotating_bonds>
3

> <PSA>
91.29

> <hb_acceptors>
4

> <hb_donors>
0

> <Collection>
Legacy

> <link>
https://www.enaminestore.com/catalog/Z31209573

> <ROCS_ShapeQuery>
x0446_0A_x1080_0A_x0929_0A_x0812_0A_x0719_0A_x1140_0A_x0528_0A_x0310_0A

> <ROCS_TanimotoCombo>
0.455 

> <ROCS_ShapeTanimoto>
0.248 

> <ROCS_ColorTanimoto>
0.207 

> <ROCS_RefTversky>
0.227 

> <ROCS_RefColorTversky>
0.226 

> <ROCS_RefTverskyCombo>
0.453 

> <ROCS_FitTversky>
1.607 

> <ROCS_FitColorTversky>
0.710 

> <ROCS_FitTverskyCombo>
2.316 

> <ROCS_ColorScore>
-8.111

> <ROCS_Overlap>
2683.525

> <ROCS_Rank>
440                 

$$$$
untitled-dbase-1067642_29
  -OEChem-02092406493D

 39 42  0     1  0  0  0  0  0999 V2000
    4.9469   13.3839   19.7506 C   0  0  0  0  0  0  0  0  0  0  0  0
    4.3705   12.7701   20.8625 C   0  0  0  0  0  0  0  0  0  0  0  0
    6.2031   13.9810   19.8566 C   0  0  0  0  0  0  0  0  0  0  0  0
    5.0500   12.7534   22.0805 C   0  0  0  0  0  0  0  0  0  0  0  0
    6.8827   13.9644   21.0746 C   0  0  0  0  0  0  0  0  0  0  0  0
    6.3062   13.3505   22.1866 C   0  0  0  0  0  0  0  0  0  0  0  0
    8.1825   14.5919   21.1548 C   0  0  0  0  0  0  0  0  0  0  0  0
   10.2797   14.6653   21.0432 C   0  0  0  0  0  0  0  0  0  0  0  0
    9.4702   11.4267   22.2374 C   0  0  0  0  0  0  0  0  0  0  0  0
    6.9859   13.3100   23.4868 C   0  0  0  0  0  0  0  0  0  0  0  0
    8.3083    9.9458   23.8653 C   0  0  0  0  0  0  0  0  0  0  0  0
    8.6377   10.6300   25.2054 C   0  0  0  0  0  0  0  0  0  0  0  0
   10.0681   12.5641   24.4093 C   0  0  0  0  0  0  0  0  0  0  0  0
    8.1206   11.0975   22.8763 C   0  0  1  0  0  0  0  0  0  0  0  0
    8.6793   12.1284   24.8870 C   0  0  1  0  0  0  0  0  0  0  0  0
   11.6326   14.1412   20.8178 C   0  0  0  0  0  0  0  0  0  0  0  0
    8.5156   15.8254   21.4552 N   0  0  0  0  0  0  0  0  0  0  0  0
    9.8952   15.8737   21.3817 N   0  0  0  0  0  0  0  0  0  0  0  0
   10.3832   12.0608   23.0714 N   0  0  0  0  0  0  0  0  0  0  0  0
    7.8094   12.2279   23.7321 N   0  0  0  0  0  0  0  0  0  0  0  0
    9.7668   11.0113   21.1172 O   0  0  0  0  0  0  0  0  0  0  0  0
    6.7696   14.2356   24.2652 O   0  0  0  0  0  0  0  0  0  0  0  0
    9.2487   13.7917   20.8799 O   0  0  0  0  0  0  0  0  0  0  0  0
    4.4180   13.3962   18.8021 H   0  0  0  0  0  0  0  0  0  0  0  0
    3.3927   12.3045   20.7795 H   0  0  0  0  0  0  0  0  0  0  0  0
    6.6380   14.4550   18.9797 H   0  0  0  0  0  0  0  0  0  0  0  0
    4.5899   12.2712   22.9393 H   0  0  0  0  0  0  0  0  0  0  0  0
    9.1058    9.2553   23.5709 H   0  0  0  0  0  0  0  0  0  0  0  0
    7.3808    9.3711   23.9679 H   0  0  0  0  0  0  0  0  0  0  0  0
    7.8354   10.4198   25.9227 H   0  0  0  0  0  0  0  0  0  0  0  0
    9.5737   10.2566   25.6328 H   0  0  0  0  0  0  0  0  0  0  0  0
   10.1221   13.6565   24.3446 H   0  0  0  0  0  0  0  0  0  0  0  0
   10.8583   12.2274   25.0877 H   0  0  0  0  0  0  0  0  0  0  0  0
    7.3676   10.9121   22.1072 H   0  0  0  0  0  0  0  0  0  0  0  0
    8.3375   12.7481   25.7214 H   0  0  0  0  0  0  0  0  0  0  0  0
   12.0717   13.7393   21.7489 H   0  0  0  0  0  0  0  0  0  0  0  0
   11.6500   13.3275   20.0684 H   0  0  0  0  0  0  0  0  0  0  0  0
   12.3256   14.9140   20.4345 H   0  0  0  0  0  0  0  0  0  0  0  0
   11.3316   12.1831   22.7302 H   0  0  0  0  0  0  0  0  0  0  0  0
  1  2  1  0  0  0  0
  1  3  2  0  0  0  0
  2  4  2  0  0  0  0
  3  5  1  0  0  0  0
  4  6  1  0  0  0  0
  5  6  2  0  0  0  0
  5  7  1  0  0  0  0
  6 10  1  0  0  0  0
  7 17  2  0  0  0  0
  7 23  1  0  0  0  0
  8 16  1  0  0  0  0
  8 18  2  0  0  0  0
  8 23  1  0  0  0  0
  9 14  1  0  0  0  0
  9 19  1  0  0  0  0
  9 21  2  0  0  0  0
 10 20  1  0  0  0  0
 10 22  2  0  0  0  0
 11 12  1  0  0  0  0
 11 14  1  0  0  0  0
 12 15  1  0  0  0  0
 13 15  1  0  0  0  0
 13 19  1  0  0  0  0
 14 20  1  0  0  0  0
 15 20  1  0  0  0  0
 17 18  1  0  0  0  0
  1 24  1  0  0  0  0
  2 25  1  0  0  0  0
  3 26  1  0  0  0  0
  4 27  1  0  0  0  0
 11 28  1  0  0  0  0
 11 29  1  0  0  0  0
 12 30  1  0  0  0  0
 12 31  1  0  0  0  0
 13 32  1  0  0  0  0
 13 33  1  0  0  0  0
 14 34  1  0  0  0  0
 15 35  1  0  0  0  0
 16 36  1  0  0  0  0
 16 37  1  0  0  0  0
 16 38  1  0  0  0  0
 19 39  1  0  0  0  0
M  END
> <idnumber>
Z4041548621

> <heavy_atoms>
23

> <LogS>
-3.496

> <LogP>
-0.179

> <rotating_bonds>
2

> <PSA>
88.33

> <hb_acceptors>
4

> <hb_donors>
1

> <Collection>
Advanced

> <link>
https://www.enaminestore.com/catalog/Z4041548621

> <ROCS_ShapeQuery>
x0446_0A_x1080_0A_x0929_0A_x0812_0A_x0719_0A_x1140_0A_x0528_0A_x0310_0A

> <ROCS_TanimotoCombo>
0.455 

> <ROCS_ShapeTanimoto>
0.227 

> <ROCS_ColorTanimoto>
0.229 

> <ROCS_RefTversky>
0.211 

> <ROCS_RefColorTversky>
0.260 

> <ROCS_RefTverskyCombo>
0.471 

> <ROCS_FitTversky>
1.507 

> <ROCS_FitColorTversky>
0.653 

> <ROCS_FitTverskyCombo>
2.160 

> <ROCS_ColorScore>
-9.366

> <ROCS_Overlap>
2490.674

> <ROCS_Rank>
441                 

$$$$
untitled-dbase-665825_189
  -OEChem-02092406493D

 56 60  0     1  0  0  0  0  0999 V2000
    6.0555   13.3128   25.1740 C   0  0  0  0  0  0  0  0  0  0  0  0
    5.5554   12.0205   25.2295 C   0  0  0  0  0  0  0  0  0  0  0  0
    6.3469   16.2253   19.7502 C   0  0  0  0  0  0  0  0  0  0  0  0
    5.4535   15.1775   19.9726 C   0  0  0  0  0  0  0  0  0  0  0  0
    7.3559   13.5247   24.7211 C   0  0  0  0  0  0  0  0  0  0  0  0
    6.3608   10.9561   24.8283 C   0  0  0  0  0  0  0  0  0  0  0  0
    7.6231   16.1848   20.3118 C   0  0  0  0  0  0  0  0  0  0  0  0
    7.1123   14.0487   21.3184 C   0  0  0  0  0  0  0  0  0  0  0  0
   10.0221   16.1381   22.0274 C   0  0  0  0  0  0  0  0  0  0  0  0
    5.8361   14.0893   20.7568 C   0  0  0  0  0  0  0  0  0  0  0  0
    8.1632   12.4616   24.3217 C   0  0  0  0  0  0  0  0  0  0  0  0
    7.6610   11.1647   24.3720 C   0  0  0  0  0  0  0  0  0  0  0  0
    8.0058   15.0965   21.0959 C   0  0  0  0  0  0  0  0  0  0  0  0
   11.1992   15.6344   22.5246 C   0  0  0  0  0  0  0  0  0  0  0  0
   11.0626   14.2383   22.4060 C   0  0  0  0  0  0  0  0  0  0  0  0
   10.1963   11.6376   23.5110 C   0  0  0  0  0  0  0  0  0  0  0  0
    9.6840   10.3348   23.5044 C   0  0  0  0  0  0  0  0  0  0  0  0
   12.0390   13.2011   22.7904 C   0  0  0  0  0  0  0  0  0  0  0  0
   12.6621    9.8692   22.3764 C   0  0  0  0  0  0  0  0  0  0  0  0
   12.5693   10.8976   23.4946 C   0  0  0  0  0  0  0  0  0  0  0  0
   11.2953    9.4228   21.8771 C   0  0  0  0  0  0  0  0  0  0  0  0
    9.8298    7.9027   23.2163 C   0  0  0  0  0  0  0  0  0  0  0  0
   12.0881   17.7865   23.0086 C   0  0  0  0  0  0  0  0  0  0  0  0
    4.8800   12.9694   20.9939 C   0  0  0  0  0  0  0  0  0  0  0  0
    9.4150   12.6768   23.9024 N   0  0  0  0  0  0  0  0  0  0  0  0
    8.4216   10.1347   23.9738 N   0  0  0  0  0  0  0  0  0  0  0  0
    9.8910   13.8782   21.8752 N   0  0  0  0  0  0  0  0  0  0  0  0
    9.2807   15.0553   21.6560 N   0  0  0  0  0  0  0  0  0  0  0  0
   11.5771   11.9367   23.2053 N   0  0  0  0  0  0  0  0  0  0  0  0
   10.3742    9.2339   22.9925 N   0  0  2  0  0  0  0  0  0  0  0  0
   13.2242   13.5061   22.6499 O   0  0  0  0  0  0  0  0  0  0  0  0
   12.2184   16.3551   23.0072 O   0  0  0  0  0  0  0  0  0  0  0  0
    3.6705   13.1437   20.3836 F   0  0  0  0  0  0  0  0  0  0  0  0
    5.3327   11.7604   20.5480 F   0  0  0  0  0  0  0  0  0  0  0  0
    4.5996   12.7898   22.3176 F   0  0  0  0  0  0  0  0  0  0  0  0
    5.4412   14.1524   25.4840 H   0  0  0  0  0  0  0  0  0  0  0  0
    4.5451   11.8382   25.5826 H   0  0  0  0  0  0  0  0  0  0  0  0
    6.0490   17.0725   19.1394 H   0  0  0  0  0  0  0  0  0  0  0  0
    4.4611   15.2181   19.5317 H   0  0  0  0  0  0  0  0  0  0  0  0
    7.7413   14.5417   24.6856 H   0  0  0  0  0  0  0  0  0  0  0  0
    5.9579    9.9463   24.8729 H   0  0  0  0  0  0  0  0  0  0  0  0
    8.3096   17.0083   20.1302 H   0  0  0  0  0  0  0  0  0  0  0  0
    7.4057   13.1981   21.9305 H   0  0  0  0  0  0  0  0  0  0  0  0
    9.6632   17.1525   21.9133 H   0  0  0  0  0  0  0  0  0  0  0  0
   13.2314   10.2823   21.5351 H   0  0  0  0  0  0  0  0  0  0  0  0
   13.2251    9.0018   22.7417 H   0  0  0  0  0  0  0  0  0  0  0  0
   12.3169   10.4238   24.4522 H   0  0  0  0  0  0  0  0  0  0  0  0
   13.5575   11.3482   23.6422 H   0  0  0  0  0  0  0  0  0  0  0  0
   10.8865   10.1473   21.1601 H   0  0  0  0  0  0  0  0  0  0  0  0
   11.4179    8.4923   21.3086 H   0  0  0  0  0  0  0  0  0  0  0  0
   10.4886    7.1539   22.7524 H   0  0  0  0  0  0  0  0  0  0  0  0
    9.7617    7.7115   24.2974 H   0  0  0  0  0  0  0  0  0  0  0  0
    8.8273    7.8367   22.7684 H   0  0  0  0  0  0  0  0  0  0  0  0
   12.9917   18.2350   23.4286 H   0  0  0  0  0  0  0  0  0  0  0  0
   11.2164   18.0733   23.6023 H   0  0  0  0  0  0  0  0  0  0  0  0
   11.9563   18.1325   21.9807 H   0  0  0  0  0  0  0  0  0  0  0  0
  1  2  1  0  0  0  0
  1  5  2  0  0  0  0
  2  6  2  0  0  0  0
  3  4  1  0  0  0  0
  3  7  2  0  0  0  0
  4 10  2  0  0  0  0
  5 11  1  0  0  0  0
  6 12  1  0  0  0  0
  7 13  1  0  0  0  0
  8 10  1  0  0  0  0
  8 13  2  0  0  0  0
  9 14  2  0  0  0  0
  9 28  1  0  0  0  0
 10 24  1  0  0  0  0
 11 12  1  0  0  0  0
 11 25  2  0  0  0  0
 12 26  2  0  0  0  0
 13 28  1  0  0  0  0
 14 15  1  0  0  0  0
 14 32  1  0  0  0  0
 15 18  1  0  0  0  0
 15 27  2  0  0  0  0
 16 17  2  0  0  0  0
 16 25  1  0  0  0  0
 16 29  1  0  0  0  0
 17 26  1  0  0  0  0
 17 30  1  0  0  0  0
 18 29  1  0  0  0  0
 18 31  2  0  0  0  0
 19 20  1  0  0  0  0
 19 21  1  0  0  0  0
 20 29  1  0  0  0  0
 21 30  1  0  0  0  0
 22 30  1  0  0  0  0
 23 32  1  0  0  0  0
 24 33  1  0  0  0  0
 24 34  1  0  0  0  0
 24 35  1  0  0  0  0
 27 28  1  0  0  0  0
  1 36  1  0  0  0  0
  2 37  1  0  0  0  0
  3 38  1  0  0  0  0
  4 39  1  0  0  0  0
  5 40  1  0  0  0  0
  6 41  1  0  0  0  0
  7 42  1  0  0  0  0
  8 43  1  0  0  0  0
  9 44  1  0  0  0  0
 19 45  1  0  0  0  0
 19 46  1  0  0  0  0
 20 47  1  0  0  0  0
 20 48  1  0  0  0  0
 21 49  1  0  0  0  0
 21 50  1  0  0  0  0
 22 51  1  0  0  0  0
 22 52  1  0  0  0  0
 22 53  1  0  0  0  0
 23 54  1  0  0  0  0
 23 55  1  0  0  0  0
 23 56  1  0  0  0  0
M  END
> <idnumber>
Z238106984

> <heavy_atoms>
35

> <LogS>
-5.62

> <LogP>
4.009

> <rotating_bonds>
4

> <PSA>
76.38

> <hb_acceptors>
6

> <hb_donors>
0

> <Collection>
Legacy

> <link>
https://www.enaminestore.com/catalog/Z238106984

> <ROCS_ShapeQuery>
x0446_0A_x1080_0A_x0929_0A_x0812_0A_x0719_0A_x1140_0A_x0528_0A_x0310_0A

> <ROCS_TanimotoCombo>
0.455 

> <ROCS_ShapeTanimoto>
0.309 

> <ROCS_ColorTanimoto>
0.147 

> <ROCS_RefTversky>
0.280 

> <ROCS_RefColorTversky>
0.168 

> <ROCS_RefTverskyCombo>
0.448 

> <ROCS_FitTversky>
1.506 

> <ROCS_FitColorTversky>
0.531 

> <ROCS_FitTverskyCombo>
2.037 

> <ROCS_ColorScore>
-6.036

> <ROCS_Overlap>
3313.943

> <ROCS_Rank>
442                 

$$$$
untitled-dbase-412685_23
  -OEChem-02092406493D

 45 48  0     0  0  0  0  0  0999 V2000
   12.2827   16.1516   23.4132 C   0  0  0  0  0  0  0  0  0  0  0  0
    6.3817   11.1659   24.8320 C   0  0  0  0  0  0  0  0  0  0  0  0
   12.7063   14.8228   23.4335 C   0  0  0  0  0  0  0  0  0  0  0  0
    5.6596   12.3181   25.1394 C   0  0  0  0  0  0  0  0  0  0  0  0
   11.1729   16.5183   22.6518 C   0  0  0  0  0  0  0  0  0  0  0  0
   10.9105   14.2273   21.9309 C   0  0  0  0  0  0  0  0  0  0  0  0
    7.5761   13.6801   24.5721 C   0  0  0  0  0  0  0  0  0  0  0  0
    7.7051   11.2766   24.3941 C   0  0  0  0  0  0  0  0  0  0  0  0
   12.0202   13.8606   22.6924 C   0  0  0  0  0  0  0  0  0  0  0  0
    6.2547   13.5721   25.0100 C   0  0  0  0  0  0  0  0  0  0  0  0
    8.3178   12.5359   24.2584 C   0  0  0  0  0  0  0  0  0  0  0  0
   10.4869   15.5561   21.9106 C   0  0  0  0  0  0  0  0  0  0  0  0
    8.4828   10.0574   24.0598 C   0  0  0  0  0  0  0  0  0  0  0  0
   11.7006   11.4629   23.0965 C   0  0  0  0  0  0  0  0  0  0  0  0
   10.3004   11.6127   23.5526 C   0  0  0  0  0  0  0  0  0  0  0  0
   12.4555   12.4941   22.7134 C   0  0  0  0  0  0  0  0  0  0  0  0
   12.0675   10.0126   23.1057 C   0  0  0  0  0  0  0  0  0  0  0  0
   10.7225    9.3108   23.2271 C   0  0  0  0  0  0  0  0  0  0  0  0
    8.2216   14.6654   19.5009 C   0  0  0  0  0  0  0  0  0  0  0  0
    8.3894   14.9279   20.9823 C   0  0  0  0  0  0  0  0  0  0  0  0
    5.4782   14.8019   25.3410 C   0  0  0  0  0  0  0  0  0  0  0  0
    9.6498   12.6913   23.8217 N   0  0  0  0  0  0  0  0  0  0  0  0
    9.7811   10.3253   23.6594 N   0  0  0  0  0  0  0  0  0  0  0  0
    7.9780    8.9434   24.1364 O   0  0  0  0  0  0  0  0  0  0  0  0
    9.4040   15.9138   21.1676 O   0  0  0  0  0  0  0  0  0  0  0  0
    4.2020   14.5481   25.7563 F   0  0  0  0  0  0  0  0  0  0  0  0
    6.0359   15.5482   26.3398 F   0  0  0  0  0  0  0  0  0  0  0  0
    5.3556   15.6476   24.2768 F   0  0  0  0  0  0  0  0  0  0  0  0
   12.8167   16.9007   23.9904 H   0  0  0  0  0  0  0  0  0  0  0  0
    5.9002   10.1979   24.9377 H   0  0  0  0  0  0  0  0  0  0  0  0
   13.5733   14.5521   24.0317 H   0  0  0  0  0  0  0  0  0  0  0  0
    4.6312   12.2290   25.4800 H   0  0  0  0  0  0  0  0  0  0  0  0
   10.8478   17.5551   22.6397 H   0  0  0  0  0  0  0  0  0  0  0  0
   10.3691   13.4838   21.3494 H   0  0  0  0  0  0  0  0  0  0  0  0
    8.0328   14.6627   24.4729 H   0  0  0  0  0  0  0  0  0  0  0  0
   13.4663   12.2787   22.3667 H   0  0  0  0  0  0  0  0  0  0  0  0
   12.5536    9.7449   22.1612 H   0  0  0  0  0  0  0  0  0  0  0  0
   12.7286    9.7545   23.9383 H   0  0  0  0  0  0  0  0  0  0  0  0
   10.3902    8.8606   22.2859 H   0  0  0  0  0  0  0  0  0  0  0  0
   10.7434    8.5237   23.9898 H   0  0  0  0  0  0  0  0  0  0  0  0
    7.9233   15.5764   18.9745 H   0  0  0  0  0  0  0  0  0  0  0  0
    9.1561   14.2958   19.0661 H   0  0  0  0  0  0  0  0  0  0  0  0
    7.4637   13.8939   19.3292 H   0  0  0  0  0  0  0  0  0  0  0  0
    8.6878   14.0130   21.5028 H   0  0  0  0  0  0  0  0  0  0  0  0
    7.4551   15.2980   21.4149 H   0  0  0  0  0  0  0  0  0  0  0  0
  1  3  1  0  0  0  0
  1  5  2  0  0  0  0
  2  4  2  0  0  0  0
  2  8  1  0  0  0  0
  3  9  2  0  0  0  0
  4 10  1  0  0  0  0
  5 12  1  0  0  0  0
  6  9  1  0  0  0  0
  6 12  2  0  0  0  0
  7 10  2  0  0  0  0
  7 11  1  0  0  0  0
  8 11  2  0  0  0  0
  8 13  1  0  0  0  0
  9 16  1  4  0  0  0
 10 21  1  0  0  0  0
 11 22  1  0  0  0  0
 12 25  1  0  0  0  0
 13 23  1  0  0  0  0
 13 24  2  0  0  0  0
 14 15  1  0  0  0  0
 14 16  2  0  0  0  0
 14 17  1  0  0  0  0
 15 22  2  0  0  0  0
 15 23  1  0  0  0  0
 17 18  1  0  0  0  0
 18 23  1  0  0  0  0
 19 20  1  0  0  0  0
 20 25  1  0  0  0  0
 21 26  1  0  0  0  0
 21 27  1  0  0  0  0
 21 28  1  0  0  0  0
  1 29  1  0  0  0  0
  2 30  1  0  0  0  0
  3 31  1  0  0  0  0
  4 32  1  0  0  0  0
  5 33  1  0  0  0  0
  6 34  1  0  0  0  0
  7 35  1  0  0  0  0
 16 36  1  0  0  0  0
 17 37  1  0  0  0  0
 17 38  1  0  0  0  0
 18 39  1  0  0  0  0
 18 40  1  0  0  0  0
 19 41  1  0  0  0  0
 19 42  1  0  0  0  0
 19 43  1  0  0  0  0
 20 44  1  0  0  0  0
 20 45  1  0  0  0  0
M  END
> <idnumber>
Z449726620

> <heavy_atoms>
28

> <LogS>
-5.243

> <LogP>
4.298

> <rotating_bonds>
4

> <PSA>
41.9

> <hb_acceptors>
3

> <hb_donors>
0

> <Collection>
Legacy

> <link>
https://www.enaminestore.com/catalog/Z449726620

> <ROCS_ShapeQuery>
x0446_0A_x1080_0A_x0929_0A_x0812_0A_x0719_0A_x1140_0A_x0528_0A_x0310_0A

> <ROCS_TanimotoCombo>
0.455 

> <ROCS_ShapeTanimoto>
0.279 

> <ROCS_ColorTanimoto>
0.176 

> <ROCS_RefTversky>
0.253 

> <ROCS_RefColorTversky>
0.186 

> <ROCS_RefTverskyCombo>
0.438 

> <ROCS_FitTversky>
1.606 

> <ROCS_FitColorTversky>
0.776 

> <ROCS_FitTverskyCombo>
2.381 

> <ROCS_ColorScore>
-6.619

> <ROCS_Overlap>
2989.312

> <ROCS_Rank>
443                 

$$$$
untitled-dbase-323481_12
  -OEChem-02092406493D

 38 41  0     0  0  0  0  0  0999 V2000
    6.4643   16.9487   23.1254 C   0  0  0  0  0  0  0  0  0  0  0  0
   12.2741   14.1070   23.4004 C   0  0  0  0  0  0  0  0  0  0  0  0
    6.3126   15.5495   22.9030 C   0  0  0  0  0  0  0  0  0  0  0  0
   13.3119   14.3527   22.5082 C   0  0  0  0  0  0  0  0  0  0  0  0
    7.1585   17.2161   24.2847 C   0  0  0  0  0  0  0  0  0  0  0  0
    5.7253   12.6051   23.9782 C   0  0  0  0  0  0  0  0  0  0  0  0
    8.0575   12.4831   23.9480 C   0  0  0  0  0  0  0  0  0  0  0  0
    6.9003   13.3240   23.9418 C   0  0  0  0  0  0  0  0  0  0  0  0
   10.9566   14.2745   22.9887 C   0  0  0  0  0  0  0  0  0  0  0  0
    6.8969   14.8007   23.9009 C   0  0  0  0  0  0  0  0  0  0  0  0
   12.9819   14.7607   21.2259 C   0  0  0  0  0  0  0  0  0  0  0  0
   10.7320   14.6862   21.6849 C   0  0  0  0  0  0  0  0  0  0  0  0
    9.4299   12.7507   23.9212 C   0  0  0  0  0  0  0  0  0  0  0  0
    7.6946   11.1431   23.9897 C   0  0  0  0  0  0  0  0  0  0  0  0
    9.8258   10.4836   23.9780 C   0  0  0  0  0  0  0  0  0  0  0  0
   14.0701   15.0332   20.2421 C   0  0  0  0  0  0  0  0  0  0  0  0
   10.8379    9.3866   23.9943 C   0  0  0  0  0  0  0  0  0  0  0  0
   11.7141   14.9344   20.7897 N   0  0  0  0  0  0  0  0  0  0  0  0
   10.3207   11.7361   23.9367 N   0  0  0  0  0  0  0  0  0  0  0  0
    8.5390   10.0932   24.0066 N   0  0  0  0  0  0  0  0  0  0  0  0
    9.3642   14.8493   21.2924 N   0  3  0  0  0  0  0  0  0  0  0  0
    8.7638   13.8695   20.8034 O   0  5  0  0  0  0  0  0  0  0  0  0
    8.8269   15.9650   21.4546 O   0  0  0  0  0  0  0  0  0  0  0  0
    9.9318   14.0288   23.8781 O   0  0  0  0  0  0  0  0  0  0  0  0
    7.6242   15.7838   25.0996 S   0  0  0  0  0  0  0  0  0  0  0  0
    6.0056   10.9182   24.0193 S   0  0  0  0  0  0  0  0  0  0  0  0
    6.0841   17.7197   22.4678 H   0  0  0  0  0  0  0  0  0  0  0  0
   12.4990   13.7855   24.4135 H   0  0  0  0  0  0  0  0  0  0  0  0
    5.7989   15.1220   22.0505 H   0  0  0  0  0  0  0  0  0  0  0  0
   14.3440   14.2257   22.8169 H   0  0  0  0  0  0  0  0  0  0  0  0
    7.4151   18.1837   24.6922 H   0  0  0  0  0  0  0  0  0  0  0  0
    4.7114   12.9827   23.9819 H   0  0  0  0  0  0  0  0  0  0  0  0
   14.3186   14.1212   19.6861 H   0  0  0  0  0  0  0  0  0  0  0  0
   13.7727   15.8087   19.5247 H   0  0  0  0  0  0  0  0  0  0  0  0
   14.9776   15.3943   20.7429 H   0  0  0  0  0  0  0  0  0  0  0  0
   11.1101    9.1352   25.0262 H   0  0  0  0  0  0  0  0  0  0  0  0
   10.4525    8.4832   23.5050 H   0  0  0  0  0  0  0  0  0  0  0  0
   11.7478    9.6778   23.4543 H   0  0  0  0  0  0  0  0  0  0  0  0
  1  3  1  0  0  0  0
  1  5  2  0  0  0  0
  2  4  2  0  0  0  0
  2  9  1  0  0  0  0
  3 10  2  0  0  0  0
  4 11  1  0  0  0  0
  5 25  1  0  0  0  0
  6  8  2  0  0  0  0
  6 26  1  0  0  0  0
  7  8  1  0  0  0  0
  7 13  2  0  0  0  0
  7 14  1  0  0  0  0
  8 10  1  0  0  0  0
  9 12  2  0  0  0  0
  9 24  1  0  0  0  0
 10 25  1  0  0  0  0
 11 16  1  0  0  0  0
 11 18  2  0  0  0  0
 12 18  1  0  0  0  0
 12 21  1  0  0  0  0
 13 19  1  0  0  0  0
 13 24  1  0  0  0  0
 14 20  2  0  0  0  0
 14 26  1  0  0  0  0
 15 17  1  0  0  0  0
 15 19  2  0  0  0  0
 15 20  1  0  0  0  0
 21 22  1  0  0  0  0
 21 23  2  0  0  0  0
  1 27  1  0  0  0  0
  2 28  1  0  0  0  0
  3 29  1  0  0  0  0
  4 30  1  0  0  0  0
  5 31  1  0  0  0  0
  6 32  1  0  0  0  0
 16 33  1  0  0  0  0
 16 34  1  0  0  0  0
 16 35  1  0  0  0  0
 17 36  1  0  0  0  0
 17 37  1  0  0  0  0
 17 38  1  0  0  0  0
M  CHG  2  21   1  22  -1
M  END
> <idnumber>
Z31110991

> <heavy_atoms>
26

> <LogS>
-6.52

> <LogP>
3.879

> <rotating_bonds>
4

> <PSA>
91.04

> <hb_acceptors>
5

> <hb_donors>
0

> <Collection>
Legacy

> <link>
https://www.enaminestore.com/catalog/Z31110991

> <ROCS_ShapeQuery>
x0446_0A_x1080_0A_x0929_0A_x0812_0A_x0719_0A_x1140_0A_x0528_0A_x0310_0A

> <ROCS_TanimotoCombo>
0.455 

> <ROCS_ShapeTanimoto>
0.261 

> <ROCS_ColorTanimoto>
0.194 

> <ROCS_RefTversky>
0.238 

> <ROCS_RefColorTversky>
0.214 

> <ROCS_RefTverskyCombo>
0.452 

> <ROCS_FitTversky>
1.601 

> <ROCS_FitColorTversky>
0.673 

> <ROCS_FitTverskyCombo>
2.274 

> <ROCS_ColorScore>
-7.679

> <ROCS_Overlap>
2813.063

> <ROCS_Rank>
444                 

$$$$
untitled-dbase-321887_102
  -OEChem-02092406493D

 38 42  0     0  0  0  0  0  0999 V2000
    5.2754   12.1204   24.9769 C   0  0  0  0  0  0  0  0  0  0  0  0
    5.2656   10.7519   24.7314 C   0  0  0  0  0  0  0  0  0  0  0  0
   12.3284    8.8457   21.7936 C   0  0  0  0  0  0  0  0  0  0  0  0
    6.4632   12.8329   24.8451 C   0  0  0  0  0  0  0  0  0  0  0  0
   11.1577    9.5102   22.1416 C   0  0  0  0  0  0  0  0  0  0  0  0
    6.4428   10.0988   24.3546 C   0  0  0  0  0  0  0  0  0  0  0  0
   13.3888    8.8904   22.6843 C   0  0  0  0  0  0  0  0  0  0  0  0
   12.2001   10.1739   24.1736 C   0  0  0  0  0  0  0  0  0  0  0  0
    7.6428   12.1689   24.4658 C   0  0  0  0  0  0  0  0  0  0  0  0
   11.0841   10.1895   23.3526 C   0  0  0  0  0  0  0  0  0  0  0  0
    7.6455   10.7871   24.2150 C   0  0  0  0  0  0  0  0  0  0  0  0
    8.8629   12.8222   24.3160 C   0  0  0  0  0  0  0  0  0  0  0  0
    9.8863   10.8872   23.7407 C   0  0  0  0  0  0  0  0  0  0  0  0
   10.9465   15.6037   21.2896 C   0  0  0  0  0  0  0  0  0  0  0  0
    9.6508   15.1026   22.9771 C   0  0  0  0  0  0  0  0  0  0  0  0
   12.2006   15.7487   20.6335 C   0  0  0  0  0  0  0  0  0  0  0  0
   13.3329   15.4433   21.2978 C   0  0  0  0  0  0  0  0  0  0  0  0
   13.3050   14.9675   22.6740 C   0  0  0  0  0  0  0  0  0  0  0  0
   12.1213   14.8303   23.2945 C   0  0  0  0  0  0  0  0  0  0  0  0
   13.3547    9.5397   23.8696 N   0  0  0  0  0  0  0  0  0  0  0  0
    8.7678   10.1421   23.8514 N   0  0  0  0  0  0  0  0  0  0  0  0
   10.0047   12.2076   23.9539 N   0  0  0  0  0  0  0  0  0  0  0  0
    9.7017   15.8142   20.9181 N   0  0  0  0  0  0  0  0  0  0  0  0
    8.8842   15.4973   21.9849 N   0  0  0  0  0  0  0  0  0  0  0  0
   10.9619   15.1481   22.5987 N   0  0  0  0  0  0  0  0  0  0  0  0
    9.0804   14.5816   24.5860 S   0  0  0  0  0  0  0  0  0  0  0  0
    4.3622   12.6291   25.2704 H   0  0  0  0  0  0  0  0  0  0  0  0
    4.3431   10.1877   24.8339 H   0  0  0  0  0  0  0  0  0  0  0  0
   12.4089    8.3089   20.8554 H   0  0  0  0  0  0  0  0  0  0  0  0
    6.4323   13.8993   25.0456 H   0  0  0  0  0  0  0  0  0  0  0  0
   10.3112    9.4903   21.4596 H   0  0  0  0  0  0  0  0  0  0  0  0
    6.4080    9.0269   24.1688 H   0  0  0  0  0  0  0  0  0  0  0  0
   14.3243    8.3884   22.4594 H   0  0  0  0  0  0  0  0  0  0  0  0
   12.2069   10.6840   25.1327 H   0  0  0  0  0  0  0  0  0  0  0  0
   12.2315   16.1021   19.6092 H   0  0  0  0  0  0  0  0  0  0  0  0
   14.3013   15.5452   20.8200 H   0  0  0  0  0  0  0  0  0  0  0  0
   14.2407   14.7344   23.1674 H   0  0  0  0  0  0  0  0  0  0  0  0
   12.0448   14.4812   24.3165 H   0  0  0  0  0  0  0  0  0  0  0  0
  1  2  1  0  0  0  0
  1  4  2  0  0  0  0
  2  6  2  0  0  0  0
  3  5  2  0  0  0  0
  3  7  1  0  0  0  0
  4  9  1  0  0  0  0
  5 10  1  0  0  0  0
  6 11  1  0  0  0  0
  7 20  2  0  0  0  0
  8 10  2  0  0  0  0
  8 20  1  0  0  0  0
  9 11  1  0  0  0  0
  9 12  2  0  0  0  0
 10 13  1  0  0  0  0
 11 21  2  0  0  0  0
 12 22  1  0  0  0  0
 12 26  1  0  0  0  0
 13 21  1  0  0  0  0
 13 22  2  0  0  0  0
 14 16  1  0  0  0  0
 14 23  2  0  0  0  0
 14 25  1  0  0  0  0
 15 24  2  0  0  0  0
 15 25  1  0  0  0  0
 15 26  1  0  0  0  0
 16 17  2  0  0  0  0
 17 18  1  0  0  0  0
 18 19  2  0  0  0  0
 19 25  1  0  0  0  0
 23 24  1  0  0  0  0
  1 27  1  0  0  0  0
  2 28  1  0  0  0  0
  3 29  1  0  0  0  0
  4 30  1  0  0  0  0
  5 31  1  0  0  0  0
  6 32  1  0  0  0  0
  7 33  1  0  0  0  0
  8 34  1  0  0  0  0
 16 35  1  0  0  0  0
 17 36  1  0  0  0  0
 18 37  1  0  0  0  0
 19 38  1  0  0  0  0
M  END
> <idnumber>
Z31083045

> <heavy_atoms>
26

> <LogS>
-6.7

> <LogP>
2.99

> <rotating_bonds>
3

> <PSA>
68.86

> <hb_acceptors>
5

> <hb_donors>
0

> <Collection>
Legacy

> <link>
https://www.enaminestore.com/catalog/Z31083045

> <ROCS_ShapeQuery>
x0446_0A_x1080_0A_x0929_0A_x0812_0A_x0719_0A_x1140_0A_x0528_0A_x0310_0A

> <ROCS_TanimotoCombo>
0.455 

> <ROCS_ShapeTanimoto>
0.248 

> <ROCS_ColorTanimoto>
0.208 

> <ROCS_RefTversky>
0.229 

> <ROCS_RefColorTversky>
0.228 

> <ROCS_RefTverskyCombo>
0.456 

> <ROCS_FitTversky>
1.510 

> <ROCS_FitColorTversky>
0.700 

> <ROCS_FitTverskyCombo>
2.210 

> <ROCS_ColorScore>
-8.169

> <ROCS_Overlap>
2703.107

> <ROCS_Rank>
445                 

$$$$
untitled-dbase-512626_5
  -OEChem-02092406493D

 35 37  0     0  0  0  0  0  0999 V2000
   13.4226   15.9418   20.1543 C   0  0  0  0  0  0  0  0  0  0  0  0
    6.0687   13.4146   25.2413 C   0  0  0  0  0  0  0  0  0  0  0  0
    5.5160   12.1614   25.0017 C   0  0  0  0  0  0  0  0  0  0  0  0
   13.1226   15.1863   22.4611 C   0  0  0  0  0  0  0  0  0  0  0  0
    7.4056   13.6455   24.9328 C   0  0  0  0  0  0  0  0  0  0  0  0
    6.3007   11.1422   24.4543 C   0  0  0  0  0  0  0  0  0  0  0  0
   12.3053   14.6986   23.4808 C   0  0  0  0  0  0  0  0  0  0  0  0
   11.2322   15.2091   20.9568 C   0  0  0  0  0  0  0  0  0  0  0  0
   12.5860   15.4416   21.1991 C   0  0  0  0  0  0  0  0  0  0  0  0
    8.1881   12.6154   24.3825 C   0  0  0  0  0  0  0  0  0  0  0  0
    7.6413   11.3456   24.1358 C   0  0  0  0  0  0  0  0  0  0  0  0
   10.9515   14.4661   23.2385 C   0  0  0  0  0  0  0  0  0  0  0  0
   10.4149   14.7214   21.9765 C   0  0  0  0  0  0  0  0  0  0  0  0
    9.5301   12.7805   24.0514 C   0  0  0  0  0  0  0  0  0  0  0  0
    9.6688   10.6390   23.3323 C   0  0  0  0  0  0  0  0  0  0  0  0
    8.1984   15.5832   21.9636 C   0  0  0  0  0  0  0  0  0  0  0  0
   10.4824    9.5331   22.7501 C   0  0  0  0  0  0  0  0  0  0  0  0
   14.1020   16.3482   19.3058 N   0  0  0  0  0  0  0  0  0  0  0  0
    8.3804   10.3534   23.6097 N   0  0  0  0  0  0  0  0  0  0  0  0
   10.2987   11.8092   23.5237 N   0  0  0  0  0  0  0  0  0  0  0  0
   10.1529   13.9845   24.2561 O   0  0  0  0  0  0  0  0  0  0  0  0
    9.0940   14.4988   21.7276 O   0  0  0  0  0  0  0  0  0  0  0  0
    9.7851    8.3706   22.5812 F   0  0  0  0  0  0  0  0  0  0  0  0
   10.9959    9.8221   21.5178 F   0  0  0  0  0  0  0  0  0  0  0  0
   11.5563    9.2060   23.5266 F   0  0  0  0  0  0  0  0  0  0  0  0
    5.4617   14.2071   25.6679 H   0  0  0  0  0  0  0  0  0  0  0  0
    4.4732   11.9722   25.2395 H   0  0  0  0  0  0  0  0  0  0  0  0
   14.1760   15.3624   22.6661 H   0  0  0  0  0  0  0  0  0  0  0  0
    7.8233   14.6301   25.1260 H   0  0  0  0  0  0  0  0  0  0  0  0
    5.8447   10.1699   24.2772 H   0  0  0  0  0  0  0  0  0  0  0  0
   12.7295   14.5011   24.4617 H   0  0  0  0  0  0  0  0  0  0  0  0
   10.8049   15.4053   19.9756 H   0  0  0  0  0  0  0  0  0  0  0  0
    7.1781   15.2725   21.7259 H   0  0  0  0  0  0  0  0  0  0  0  0
    8.4851   16.4356   21.3426 H   0  0  0  0  0  0  0  0  0  0  0  0
    8.2541   15.8674   23.0171 H   0  0  0  0  0  0  0  0  0  0  0  0
  1  9  1  0  0  0  0
  1 18  3  0  0  0  0
  2  3  1  0  0  0  0
  2  5  2  0  0  0  0
  3  6  2  0  0  0  0
  4  7  2  0  0  0  0
  4  9  1  0  0  0  0
  5 10  1  0  0  0  0
  6 11  1  0  0  0  0
  7 12  1  0  0  0  0
  8  9  2  0  0  0  0
  8 13  1  0  0  0  0
 10 11  1  0  0  0  0
 10 14  2  0  0  0  0
 11 19  2  0  0  0  0
 12 13  2  0  0  0  0
 12 21  1  0  0  0  0
 13 22  1  0  0  0  0
 14 20  1  0  0  0  0
 14 21  1  0  0  0  0
 15 17  1  0  0  0  0
 15 19  1  0  0  0  0
 15 20  2  0  0  0  0
 16 22  1  0  0  0  0
 17 23  1  0  0  0  0
 17 24  1  0  0  0  0
 17 25  1  0  0  0  0
  2 26  1  0  0  0  0
  3 27  1  0  0  0  0
  4 28  1  0  0  0  0
  5 29  1  0  0  0  0
  6 30  1  0  0  0  0
  7 31  1  0  0  0  0
  8 32  1  0  0  0  0
 16 33  1  0  0  0  0
 16 34  1  0  0  0  0
 16 35  1  0  0  0  0
M  END
> <idnumber>
Z86333678

> <heavy_atoms>
25

> <LogS>
-5.57

> <LogP>
3.447

> <rotating_bonds>
4

> <PSA>
68.03

> <hb_acceptors>
4

> <hb_donors>
0

> <Collection>
HTS

> <link>
https://www.enaminestore.com/catalog/Z86333678

> <ROCS_ShapeQuery>
x0446_0A_x1080_0A_x0929_0A_x0812_0A_x0719_0A_x1140_0A_x0528_0A_x0310_0A

> <ROCS_TanimotoCombo>
0.455 

> <ROCS_ShapeTanimoto>
0.279 

> <ROCS_ColorTanimoto>
0.177 

> <ROCS_RefTversky>
0.250 

> <ROCS_RefColorTversky>
0.190 

> <ROCS_RefTverskyCombo>
0.440 

> <ROCS_FitTversky>
1.705 

> <ROCS_FitColorTversky>
0.716 

> <ROCS_FitTverskyCombo>
2.421 

> <ROCS_ColorScore>
-6.788

> <ROCS_Overlap>
2953.870

> <ROCS_Rank>
446                 

$$$$
untitled-dbase-1131065_25
  -OEChem-02092406493D

 50 53  0     1  0  0  0  0  0999 V2000
   11.0559   18.8269   21.8524 C   0  0  0  0  0  0  0  0  0  0  0  0
    9.3098   17.0430   21.3784 C   0  0  0  0  0  0  0  0  0  0  0  0
   10.5756   17.4918   21.7745 C   0  0  0  0  0  0  0  0  0  0  0  0
   11.2761   16.3473   22.0803 C   0  0  0  0  0  0  0  0  0  0  0  0
   12.0624   13.7137   22.5073 C   0  0  0  0  0  0  0  0  0  0  0  0
   10.8192   13.9638   22.0752 C   0  0  0  0  0  0  0  0  0  0  0  0
   12.9194   14.9207   22.7193 C   0  0  0  0  0  0  0  0  0  0  0  0
    9.9457   12.7958   21.8552 C   0  0  0  0  0  0  0  0  0  0  0  0
    6.5831   12.8049   26.7933 C   0  0  0  0  0  0  0  0  0  0  0  0
    6.4048   14.1226   26.9766 C   0  0  0  0  0  0  0  0  0  0  0  0
    6.3879   12.0617   25.5315 C   0  0  0  0  0  0  0  0  0  0  0  0
    9.5329    9.8537   23.8609 C   0  0  0  0  0  0  0  0  0  0  0  0
   10.2604   10.7736   24.8553 C   0  0  0  0  0  0  0  0  0  0  0  0
    7.4560   11.2152   23.3807 C   0  0  0  0  0  0  0  0  0  0  0  0
    8.6861   12.7463   24.9879 C   0  0  0  0  0  0  0  0  0  0  0  0
    8.8524   10.8097   22.8759 C   0  0  1  0  0  0  0  0  0  0  0  0
    9.9728   12.1962   24.3556 C   0  0  2  0  0  0  0  0  0  0  0  0
   14.3269   14.6816   23.2064 C   0  0  0  0  0  0  0  0  0  0  0  0
    6.6088   14.8615   28.2703 C   0  0  0  0  0  0  0  0  0  0  0  0
    5.9632   15.0013   25.8352 C   0  0  0  0  0  0  0  0  0  0  0  0
   11.4482   19.9172   21.9162 N   0  0  0  0  0  0  0  0  0  0  0  0
    9.1935   15.7169   21.4218 N   0  0  0  0  0  0  0  0  0  0  0  0
   12.5505   16.1524   22.5194 N   0  0  0  0  0  0  0  0  0  0  0  0
   10.4069   15.2790   21.8554 N   0  0  0  0  0  0  0  0  0  0  0  0
    9.6921   11.9893   22.9427 N   0  0  0  0  0  0  0  0  0  0  0  0
    7.4862   11.9385   24.6769 N   0  0  0  0  0  0  0  0  0  0  0  0
    9.4940   12.6055   20.7260 O   0  0  0  0  0  0  0  0  0  0  0  0
    5.2727   11.5871   25.3104 O   0  0  0  0  0  0  0  0  0  0  0  0
    6.9797   12.0151   27.8143 F   0  0  0  0  0  0  0  0  0  0  0  0
    8.4573   17.6247   21.0566 H   0  0  0  0  0  0  0  0  0  0  0  0
   12.4596   12.7261   22.7019 H   0  0  0  0  0  0  0  0  0  0  0  0
   10.2686    9.2307   23.3388 H   0  0  0  0  0  0  0  0  0  0  0  0
    8.8277    9.1861   24.3665 H   0  0  0  0  0  0  0  0  0  0  0  0
    9.9230   10.6070   25.8835 H   0  0  0  0  0  0  0  0  0  0  0  0
   11.3364   10.5671   24.8182 H   0  0  0  0  0  0  0  0  0  0  0  0
    6.9712   11.8830   22.6584 H   0  0  0  0  0  0  0  0  0  0  0  0
    6.8366   10.3182   23.4775 H   0  0  0  0  0  0  0  0  0  0  0  0
    8.8001   12.8222   26.0754 H   0  0  0  0  0  0  0  0  0  0  0  0
    8.4854   13.7584   24.6150 H   0  0  0  0  0  0  0  0  0  0  0  0
    8.7933   10.3982   21.8636 H   0  0  0  0  0  0  0  0  0  0  0  0
   10.8172   12.8641   24.5370 H   0  0  0  0  0  0  0  0  0  0  0  0
   14.9830   14.5648   22.3504 H   0  0  0  0  0  0  0  0  0  0  0  0
   14.3445   13.7822   23.8132 H   0  0  0  0  0  0  0  0  0  0  0  0
   14.6439   15.5297   23.8044 H   0  0  0  0  0  0  0  0  0  0  0  0
    7.6231   15.2413   28.4060 H   0  0  0  0  0  0  0  0  0  0  0  0
    6.3924   14.2014   29.1171 H   0  0  0  0  0  0  0  0  0  0  0  0
    5.9308   15.7203   28.3224 H   0  0  0  0  0  0  0  0  0  0  0  0
    4.8699   15.0541   25.7995 H   0  0  0  0  0  0  0  0  0  0  0  0
    6.3407   16.0253   25.9208 H   0  0  0  0  0  0  0  0  0  0  0  0
    6.3226   14.5950   24.8840 H   0  0  0  0  0  0  0  0  0  0  0  0
  1  3  1  0  0  0  0
  1 21  3  0  0  0  0
  2  3  1  0  0  0  0
  2 22  2  0  0  0  0
  3  4  2  0  0  0  0
  4 23  1  0  0  0  0
  4 24  1  0  0  0  0
  5  6  2  0  0  0  0
  5  7  1  0  0  0  0
  6  8  1  0  0  0  0
  6 24  1  0  0  0  0
  7 18  1  0  0  0  0
  7 23  2  0  0  0  0
  8 25  1  0  0  0  0
  8 27  2  0  0  0  0
  9 10  2  0  0  0  0
  9 11  1  0  0  0  0
  9 29  1  0  0  0  0
 10 19  1  0  0  0  0
 10 20  1  0  0  0  0
 11 26  1  0  0  0  0
 11 28  2  0  0  0  0
 12 13  1  0  0  0  0
 12 16  1  0  0  0  0
 13 17  1  0  0  0  0
 14 16  1  0  0  0  0
 14 26  1  0  0  0  0
 15 17  1  0  0  0  0
 15 26  1  0  0  0  0
 16 25  1  6  0  0  0
 17 25  1  6  0  0  0
 22 24  1  0  0  0  0
  2 30  1  0  0  0  0
  5 31  1  0  0  0  0
 12 32  1  0  0  0  0
 12 33  1  0  0  0  0
 13 34  1  0  0  0  0
 13 35  1  0  0  0  0
 14 36  1  0  0  0  0
 14 37  1  0  0  0  0
 15 38  1  0  0  0  0
 15 39  1  0  0  0  0
 16 40  1  0  0  0  0
 17 41  1  0  0  0  0
 18 42  1  0  0  0  0
 18 43  1  0  0  0  0
 18 44  1  0  0  0  0
 19 45  1  0  0  0  0
 19 46  1  0  0  0  0
 19 47  1  0  0  0  0
 20 48  1  0  0  0  0
 20 49  1  0  0  0  0
 20 50  1  0  0  0  0
M  END
> <idnumber>
Z5606587320

> <heavy_atoms>
29

> <LogS>
-3.776

> <LogP>
1.353

> <rotating_bonds>
2

> <PSA>
94.6

> <hb_acceptors>
5

> <hb_donors>
0

> <Collection>
Advanced

> <link>
https://www.enaminestore.com/catalog/Z5606587320

> <ROCS_ShapeQuery>
x0446_0A_x1080_0A_x0929_0A_x0812_0A_x0719_0A_x1140_0A_x0528_0A_x0310_0A

> <ROCS_TanimotoCombo>
0.455 

> <ROCS_ShapeTanimoto>
0.247 

> <ROCS_ColorTanimoto>
0.208 

> <ROCS_RefTversky>
0.230 

> <ROCS_RefColorTversky>
0.244 

> <ROCS_RefTverskyCombo>
0.474 

> <ROCS_FitTversky>
1.436 

> <ROCS_FitColorTversky>
0.585 

> <ROCS_FitTverskyCombo>
2.021 

> <ROCS_ColorScore>
-8.789

> <ROCS_Overlap>
2722.182

> <ROCS_Rank>
447                 

$$$$
untitled-dbase-321758_78
  -OEChem-02092406493D

 40 43  0     1  0  0  0  0  0999 V2000
    5.5012   12.0277   25.0774 C   0  0  0  0  0  0  0  0  0  0  0  0
    6.1535   13.2243   25.3351 C   0  0  0  0  0  0  0  0  0  0  0  0
    6.2135   10.9593   24.5355 C   0  0  0  0  0  0  0  0  0  0  0  0
    7.5123   13.3421   25.0484 C   0  0  0  0  0  0  0  0  0  0  0  0
    9.5471   10.1802   23.4622 C   0  0  0  0  0  0  0  0  0  0  0  0
    7.5716   11.0666   24.2454 C   0  0  0  0  0  0  0  0  0  0  0  0
    8.2333   12.2805   24.5067 C   0  0  0  0  0  0  0  0  0  0  0  0
   10.1911   11.3618   23.7165 C   0  0  0  0  0  0  0  0  0  0  0  0
    9.4853   14.8317   21.7582 C   0  0  0  0  0  0  0  0  0  0  0  0
    7.4831   14.7585   21.2432 C   0  0  0  0  0  0  0  0  0  0  0  0
   11.9359   14.7386   21.1182 C   0  0  0  0  0  0  0  0  0  0  0  0
   12.4858   13.4435   21.6684 C   0  0  0  0  0  0  0  0  0  0  0  0
   10.9060   15.1535   22.1665 C   0  0  2  0  0  0  0  0  0  0  0  0
   12.4488   13.7082   23.1613 C   0  0  2  0  0  0  0  0  0  0  0  0
    6.1105   15.1926   20.9601 C   0  0  0  0  0  0  0  0  0  0  0  0
   12.4200   12.4466   24.0014 C   0  0  0  0  0  0  0  0  0  0  0  0
    8.2370   10.0216   23.7229 N   0  0  0  0  0  0  0  0  0  0  0  0
    9.5436   12.4188   24.2388 N   0  0  0  0  0  0  0  0  0  0  0  0
    8.4610   15.6342   21.6159 N   0  0  0  0  0  0  0  0  0  0  0  0
    7.8539   13.4779   21.1524 N   0  0  0  0  0  0  0  0  0  0  0  0
   11.5677   11.4581   23.4185 N   0  0  0  0  0  0  0  0  0  0  0  0
    9.2095   13.5263   21.5008 O   0  0  0  0  0  0  0  0  0  0  0  0
   11.2569   14.4767   23.3902 O   0  0  0  0  0  0  0  0  0  0  0  0
    4.4430   11.9228   25.2962 H   0  0  0  0  0  0  0  0  0  0  0  0
    5.6108   14.0637   25.7589 H   0  0  0  0  0  0  0  0  0  0  0  0
    5.6888   10.0266   24.3372 H   0  0  0  0  0  0  0  0  0  0  0  0
    8.0118   14.2861   25.2570 H   0  0  0  0  0  0  0  0  0  0  0  0
   10.0488    9.3160   23.0431 H   0  0  0  0  0  0  0  0  0  0  0  0
   12.7409   15.4837   21.0889 H   0  0  0  0  0  0  0  0  0  0  0  0
   11.5353   14.6428   20.1043 H   0  0  0  0  0  0  0  0  0  0  0  0
   11.8187   12.6161   21.3981 H   0  0  0  0  0  0  0  0  0  0  0  0
   13.4892   13.2093   21.3020 H   0  0  0  0  0  0  0  0  0  0  0  0
   10.9713   16.2594   22.3456 H   0  0  0  0  0  0  0  0  0  0  0  0
   13.3034   14.3237   23.4648 H   0  0  0  0  0  0  0  0  0  0  0  0
    5.9792   15.4554   19.8943 H   0  0  0  0  0  0  0  0  0  0  0  0
    5.3626   14.4128   21.1998 H   0  0  0  0  0  0  0  0  0  0  0  0
    5.8164   16.0787   21.5547 H   0  0  0  0  0  0  0  0  0  0  0  0
   13.4401   12.0419   24.0766 H   0  0  0  0  0  0  0  0  0  0  0  0
   12.0483   12.6932   25.0070 H   0  0  0  0  0  0  0  0  0  0  0  0
   11.9376   10.7936   22.7662 H   0  0  0  0  0  0  0  0  0  0  0  0
  1  2  1  0  0  0  0
  1  3  2  0  0  0  0
  2  4  2  0  0  0  0
  3  6  1  0  0  0  0
  4  7  1  0  0  0  0
  5  8  1  0  0  0  0
  5 17  2  0  0  0  0
  6  7  2  0  0  0  0
  6 17  1  0  0  0  0
  7 18  1  0  0  0  0
  8 18  2  0  0  0  0
  8 21  1  0  0  0  0
  9 13  1  6  0  0  0
  9 19  2  0  0  0  0
  9 22  1  0  0  0  0
 10 15  1  0  0  0  0
 10 19  1  0  0  0  0
 10 20  2  0  0  0  0
 11 12  1  0  0  0  0
 11 13  1  0  0  0  0
 12 14  1  0  0  0  0
 13 23  1  0  0  0  0
 14 16  1  6  0  0  0
 14 23  1  0  0  0  0
 16 21  1  0  0  0  0
 20 22  1  0  0  0  0
  1 24  1  0  0  0  0
  2 25  1  0  0  0  0
  3 26  1  0  0  0  0
  4 27  1  0  0  0  0
  5 28  1  0  0  0  0
 11 29  1  0  0  0  0
 11 30  1  0  0  0  0
 12 31  1  0  0  0  0
 12 32  1  0  0  0  0
 13 33  1  0  0  0  0
 14 34  1  0  0  0  0
 15 35  1  0  0  0  0
 15 36  1  0  0  0  0
 15 37  1  0  0  0  0
 16 38  1  0  0  0  0
 16 39  1  0  0  0  0
 21 40  1  0  0  0  0
M  END
> <idnumber>
Z1754400236

> <heavy_atoms>
23

> <LogS>
-1.991

> <LogP>
1.734

> <rotating_bonds>
4

> <PSA>
85.96

> <hb_acceptors>
6

> <hb_donors>
1

> <Collection>
Advanced

> <link>
https://www.enaminestore.com/catalog/Z1754400236

> <ROCS_ShapeQuery>
x0446_0A_x1080_0A_x0929_0A_x0812_0A_x0719_0A_x1140_0A_x0528_0A_x0310_0A

> <ROCS_TanimotoCombo>
0.455 

> <ROCS_ShapeTanimoto>
0.268 

> <ROCS_ColorTanimoto>
0.188 

> <ROCS_RefTversky>
0.241 

> <ROCS_RefColorTversky>
0.208 

> <ROCS_RefTverskyCombo>
0.449 

> <ROCS_FitTversky>
1.734 

> <ROCS_FitColorTversky>
0.655 

> <ROCS_FitTverskyCombo>
2.389 

> <ROCS_ColorScore>
-7.455

> <ROCS_Overlap>
2842.114

> <ROCS_Rank>
448                 

$$$$
untitled-dbase-1045871_11
  -OEChem-02092406493D

 43 46  0     1  0  0  0  0  0999 V2000
    2.8298   11.9257   23.9128 C   0  0  0  0  0  0  0  0  0  0  0  0
    2.4847   12.7867   22.8711 C   0  0  0  0  0  0  0  0  0  0  0  0
    4.6523   13.8424   23.0255 C   0  0  0  0  0  0  0  0  0  0  0  0
    3.3959   13.7450   22.4274 C   0  0  0  0  0  0  0  0  0  0  0  0
    4.9975   12.9814   24.0673 C   0  0  0  0  0  0  0  0  0  0  0  0
    4.0862   12.0231   24.5110 C   0  0  0  0  0  0  0  0  0  0  0  0
    9.3993   13.6204   22.8854 C   0  0  0  0  0  0  0  0  0  0  0  0
   10.2609   15.4901   22.6814 C   0  0  0  0  0  0  0  0  0  0  0  0
    9.3504   10.9084   22.6306 C   0  0  0  0  0  0  0  0  0  0  0  0
    9.8111   11.5053   24.5781 C   0  0  0  0  0  0  0  0  0  0  0  0
    7.5344   10.6116   24.2749 C   0  0  0  0  0  0  0  0  0  0  0  0
    9.0132   10.2806   24.0209 C   0  0  0  0  0  0  0  0  0  0  0  0
    8.9642   12.2213   23.4413 C   0  0  0  0  0  0  0  0  0  0  0  0
    1.1351   12.6663   22.2430 C   0  0  0  0  0  0  0  0  0  0  0  0
    5.6155   14.8774   22.5345 C   0  0  0  0  0  0  0  0  0  0  0  0
   11.0437   16.6933   22.9838 C   0  0  0  0  0  0  0  0  0  0  0  0
   10.1742   14.4406   23.5491 N   0  0  0  0  0  0  0  0  0  0  0  0
    9.5862   15.3541   21.5359 N   0  0  0  0  0  0  0  0  0  0  0  0
    7.4827   12.0484   23.8292 N   0  0  2  0  0  0  0  0  0  0  0  0
    7.0635   14.4751   24.5906 O   0  0  0  0  0  0  0  0  0  0  0  0
    6.5052   12.5789   26.1527 O   0  0  0  0  0  0  0  0  0  0  0  0
    9.0025   14.0883   21.6729 O   0  0  0  0  0  0  0  0  0  0  0  0
    3.0555   14.5851   21.4081 O   0  0  0  0  0  0  0  0  0  0  0  0
    6.5935   13.1217   24.8115 S   0  0  0  0  0  0  0  0  0  0  0  0
    4.4576   10.9301   25.7968 Cl  0  0  0  0  0  0  0  0  0  0  0  0
    2.1140   11.1805   24.2533 H   0  0  0  0  0  0  0  0  0  0  0  0
   10.3904   10.8239   22.2948 H   0  0  0  0  0  0  0  0  0  0  0  0
    8.6873   10.6365   21.8038 H   0  0  0  0  0  0  0  0  0  0  0  0
    9.5862   11.7961   25.6090 H   0  0  0  0  0  0  0  0  0  0  0  0
   10.8991   11.4785   24.4452 H   0  0  0  0  0  0  0  0  0  0  0  0
    6.8772    9.9741   23.6760 H   0  0  0  0  0  0  0  0  0  0  0  0
    7.2709   10.5387   25.3336 H   0  0  0  0  0  0  0  0  0  0  0  0
    9.3763    9.2786   24.2445 H   0  0  0  0  0  0  0  0  0  0  0  0
    0.4151   13.3081   22.7638 H   0  0  0  0  0  0  0  0  0  0  0  0
    1.1625   12.9578   21.1858 H   0  0  0  0  0  0  0  0  0  0  0  0
    0.7718   11.6318   22.2795 H   0  0  0  0  0  0  0  0  0  0  0  0
    5.4817   15.8108   23.0914 H   0  0  0  0  0  0  0  0  0  0  0  0
    6.6510   14.5401   22.6559 H   0  0  0  0  0  0  0  0  0  0  0  0
    5.4657   15.0792   21.4677 H   0  0  0  0  0  0  0  0  0  0  0  0
   12.0875   16.5981   22.6319 H   0  0  0  0  0  0  0  0  0  0  0  0
   10.6213   17.6019   22.5136 H   0  0  0  0  0  0  0  0  0  0  0  0
   11.0823   16.9110   24.0684 H   0  0  0  0  0  0  0  0  0  0  0  0
    2.1562   14.3910   21.1025 H   0  0  0  0  0  0  0  0  0  0  0  0
  1  2  2  0  0  0  0
  1  6  1  0  0  0  0
  2  4  1  0  0  0  0
  2 14  1  0  0  0  0
  3  4  2  0  0  0  0
  3  5  1  0  0  0  0
  3 15  1  0  0  0  0
  4 23  1  0  0  0  0
  5  6  2  0  0  0  0
  5 24  1  0  0  0  0
  6 25  1  0  0  0  0
  7 13  1  0  0  0  0
  7 17  2  0  0  0  0
  7 22  1  0  0  0  0
  8 16  1  0  0  0  0
  8 17  1  0  0  0  0
  8 18  2  0  0  0  0
  9 12  1  0  0  0  0
  9 13  1  0  0  0  0
 10 12  1  0  0  0  0
 10 13  1  0  0  0  0
 11 12  1  0  0  0  0
 11 19  1  0  0  0  0
 13 19  1  0  0  0  0
 18 22  1  0  0  0  0
 19 24  1  0  0  0  0
 20 24  2  0  0  0  0
 21 24  2  0  0  0  0
  1 26  1  0  0  0  0
  9 27  1  0  0  0  0
  9 28  1  0  0  0  0
 10 29  1  0  0  0  0
 10 30  1  0  0  0  0
 11 31  1  0  0  0  0
 11 32  1  0  0  0  0
 12 33  1  0  0  0  0
 14 34  1  0  0  0  0
 14 35  1  0  0  0  0
 14 36  1  0  0  0  0
 15 37  1  0  0  0  0
 15 38  1  0  0  0  0
 15 39  1  0  0  0  0
 16 40  1  0  0  0  0
 16 41  1  0  0  0  0
 16 42  1  0  0  0  0
 23 43  1  0  0  0  0
M  END
> <idnumber>
Z3617969466

> <heavy_atoms>
25

> <LogS>
-3.343

> <LogP>
2.383

> <rotating_bonds>
2

> <PSA>
96.53

> <hb_acceptors>
5

> <hb_donors>
1

> <Collection>
Premium

> <link>
https://www.enaminestore.com/catalog/Z3617969466

> <ROCS_ShapeQuery>
x0446_0A_x1080_0A_x0929_0A_x0812_0A_x0719_0A_x1140_0A_x0528_0A_x0310_0A

> <ROCS_TanimotoCombo>
0.455 

> <ROCS_ShapeTanimoto>
0.219 

> <ROCS_ColorTanimoto>
0.237 

> <ROCS_RefTversky>
0.205 

> <ROCS_RefColorTversky>
0.276 

> <ROCS_RefTverskyCombo>
0.481 

> <ROCS_FitTversky>
1.437 

> <ROCS_FitColorTversky>
0.626 

> <ROCS_FitTverskyCombo>
2.063 

> <ROCS_ColorScore>
-9.943

> <ROCS_Overlap>
2421.874

> <ROCS_Rank>
449                 

$$$$
untitled-dbase-412848_104
  -OEChem-02092406493D

 54 59  0     0  0  0  0  0  0999 V2000
    6.2995   17.4476   23.4320 C   0  0  0  0  0  0  0  0  0  0  0  0
    6.9130   17.0217   24.6101 C   0  0  0  0  0  0  0  0  0  0  0  0
    5.7988   16.5105   22.5282 C   0  0  0  0  0  0  0  0  0  0  0  0
   12.0760   18.7599   21.6074 C   0  0  0  0  0  0  0  0  0  0  0  0
    7.0258   15.6587   24.8843 C   0  0  0  0  0  0  0  0  0  0  0  0
    5.9116   15.1476   22.8024 C   0  0  0  0  0  0  0  0  0  0  0  0
   11.1264   17.7384   21.5876 C   0  0  0  0  0  0  0  0  0  0  0  0
   13.1951   18.6559   22.4335 C   0  0  0  0  0  0  0  0  0  0  0  0
   12.4151   16.5089   23.2200 C   0  0  0  0  0  0  0  0  0  0  0  0
    5.6340   12.6797   24.9582 C   0  0  0  0  0  0  0  0  0  0  0  0
    7.7078   12.4252   23.9145 C   0  0  0  0  0  0  0  0  0  0  0  0
    6.5251   14.7216   23.9805 C   0  0  0  0  0  0  0  0  0  0  0  0
   11.2960   16.6129   22.3939 C   0  0  0  0  0  0  0  0  0  0  0  0
    6.6418   13.3128   24.2636 C   0  0  0  0  0  0  0  0  0  0  0  0
   13.3647   17.5304   23.2398 C   0  0  0  0  0  0  0  0  0  0  0  0
    8.9121   12.6066   23.2270 C   0  0  0  0  0  0  0  0  0  0  0  0
    7.4497   11.1390   24.3707 C   0  0  0  0  0  0  0  0  0  0  0  0
   10.3201   15.5635   22.3731 C   0  0  0  0  0  0  0  0  0  0  0  0
    9.3712   10.3720   23.5362 C   0  0  0  0  0  0  0  0  0  0  0  0
   12.4350   10.3765   23.0342 C   0  0  0  0  0  0  0  0  0  0  0  0
   12.3589    8.2404   24.1432 C   0  0  0  0  0  0  0  0  0  0  0  0
   13.8019   10.6239   23.6659 C   0  0  0  0  0  0  0  0  0  0  0  0
   13.7271    8.5386   24.7496 C   0  0  0  0  0  0  0  0  0  0  0  0
   10.3265    9.2364   23.3081 C   0  0  0  0  0  0  0  0  0  0  0  0
    9.7504   11.5651   23.0382 N   0  0  0  0  0  0  0  0  0  0  0  0
    8.2485   10.0658   24.2106 N   0  0  0  0  0  0  0  0  0  0  0  0
    9.2093   15.6154   21.5845 N   0  0  0  0  0  0  0  0  0  0  0  0
   10.4118   14.4559   23.1133 N   0  0  0  0  0  0  0  0  0  0  0  0
    8.5425   14.4918   21.8179 N   0  0  0  0  0  0  0  0  0  0  0  0
    9.2862   13.8412   22.7235 N   0  0  0  0  0  0  0  0  0  0  0  0
   11.6371    9.4970   23.8999 N   0  0  0  0  0  0  0  0  0  0  0  0
   14.4812    9.3864   23.8825 O   0  0  0  0  0  0  0  0  0  0  0  0
   14.4394   17.4308   24.0332 F   0  0  0  0  0  0  0  0  0  0  0  0
    5.9623   11.0176   25.1937 S   0  0  0  0  0  0  0  0  0  0  0  0
    6.2106   18.5089   23.2188 H   0  0  0  0  0  0  0  0  0  0  0  0
    7.3017   17.7511   25.3145 H   0  0  0  0  0  0  0  0  0  0  0  0
    5.3201   16.8424   21.6116 H   0  0  0  0  0  0  0  0  0  0  0  0
   11.9443   19.6364   20.9797 H   0  0  0  0  0  0  0  0  0  0  0  0
    7.5067   15.3425   25.8071 H   0  0  0  0  0  0  0  0  0  0  0  0
    5.5162   14.4296   22.0876 H   0  0  0  0  0  0  0  0  0  0  0  0
   10.2590   17.8355   20.9391 H   0  0  0  0  0  0  0  0  0  0  0  0
   13.9355   19.4503   22.4481 H   0  0  0  0  0  0  0  0  0  0  0  0
   12.5620   15.6378   23.8541 H   0  0  0  0  0  0  0  0  0  0  0  0
    4.7168   13.1041   25.3445 H   0  0  0  0  0  0  0  0  0  0  0  0
   11.9266   11.3378   22.8972 H   0  0  0  0  0  0  0  0  0  0  0  0
   12.5680    9.9178   22.0458 H   0  0  0  0  0  0  0  0  0  0  0  0
   12.4888    7.6882   23.2033 H   0  0  0  0  0  0  0  0  0  0  0  0
   11.7945    7.6055   24.8356 H   0  0  0  0  0  0  0  0  0  0  0  0
   14.4183   11.2292   22.9933 H   0  0  0  0  0  0  0  0  0  0  0  0
   13.7161   11.1657   24.6155 H   0  0  0  0  0  0  0  0  0  0  0  0
   13.6395    9.0096   25.7365 H   0  0  0  0  0  0  0  0  0  0  0  0
   14.2897    7.6082   24.8764 H   0  0  0  0  0  0  0  0  0  0  0  0
    9.9371    8.3105   23.7452 H   0  0  0  0  0  0  0  0  0  0  0  0
   10.4725    9.0546   22.2381 H   0  0  0  0  0  0  0  0  0  0  0  0
  1  2  1  0  0  0  0
  1  3  2  0  0  0  0
  2  5  2  0  0  0  0
  3  6  1  0  0  0  0
  4  7  1  0  0  0  0
  4  8  2  0  0  0  0
  5 12  1  0  0  0  0
  6 12  2  0  0  0  0
  7 13  2  0  0  0  0
  8 15  1  0  0  0  0
  9 13  1  0  0  0  0
  9 15  2  0  0  0  0
 10 14  2  0  0  0  0
 10 34  1  0  0  0  0
 11 14  1  0  0  0  0
 11 16  2  0  0  0  0
 11 17  1  0  0  0  0
 12 14  1  0  0  0  0
 13 18  1  0  0  0  0
 15 33  1  0  0  0  0
 16 25  1  0  0  0  0
 16 30  1  0  0  0  0
 17 26  2  0  0  0  0
 17 34  1  0  0  0  0
 18 27  1  0  0  0  0
 18 28  2  0  0  0  0
 19 24  1  0  0  0  0
 19 25  2  0  0  0  0
 19 26  1  0  0  0  0
 20 22  1  0  0  0  0
 20 31  1  0  0  0  0
 21 23  1  0  0  0  0
 21 31  1  0  0  0  0
 22 32  1  0  0  0  0
 23 32  1  0  0  0  0
 24 31  1  0  0  0  0
 27 29  2  0  0  0  0
 28 30  1  0  0  0  0
 29 30  1  0  0  0  0
  1 35  1  0  0  0  0
  2 36  1  0  0  0  0
  3 37  1  0  0  0  0
  4 38  1  0  0  0  0
  5 39  1  0  0  0  0
  6 40  1  0  0  0  0
  7 41  1  0  0  0  0
  8 42  1  0  0  0  0
  9 43  1  0  0  0  0
 10 44  1  0  0  0  0
 20 45  1  0  0  0  0
 20 46  1  0  0  0  0
 21 47  1  0  0  0  0
 21 48  1  0  0  0  0
 22 49  1  0  0  0  0
 22 50  1  0  0  0  0
 23 51  1  0  0  0  0
 23 52  1  0  0  0  0
 24 53  1  0  0  0  0
 24 54  1  0  0  0  0
M  END
> <idnumber>
Z52641846

> <heavy_atoms>
34

> <LogS>
-6.87

> <LogP>
4.102

> <rotating_bonds>
5

> <PSA>
81.85

> <hb_acceptors>
7

> <hb_donors>
0

> <Collection>
HTS

> <link>
https://www.enaminestore.com/catalog/Z52641846

> <ROCS_ShapeQuery>
x0446_0A_x1080_0A_x0929_0A_x0812_0A_x0719_0A_x1140_0A_x0528_0A_x0310_0A

> <ROCS_TanimotoCombo>
0.455 

> <ROCS_ShapeTanimoto>
0.270 

> <ROCS_ColorTanimoto>
0.185 

> <ROCS_RefTversky>
0.251 

> <ROCS_RefColorTversky>
0.220 

> <ROCS_RefTverskyCombo>
0.471 

> <ROCS_FitTversky>
1.388 

> <ROCS_FitColorTversky>
0.542 

> <ROCS_FitTverskyCombo>
1.930 

> <ROCS_ColorScore>
-7.908

> <ROCS_Overlap>
2972.726

> <ROCS_Rank>
450                 

$$$$
untitled-dbase-352605_24
  -OEChem-02092406493D

 35 37  0     0  0  0  0  0  0999 V2000
    5.4172   11.6284   25.0385 C   0  0  0  0  0  0  0  0  0  0  0  0
    5.8105   12.9577   25.0812 C   0  0  0  0  0  0  0  0  0  0  0  0
    6.3359   10.6515   24.6586 C   0  0  0  0  0  0  0  0  0  0  0  0
    7.1190   13.2987   24.7432 C   0  0  0  0  0  0  0  0  0  0  0  0
    7.6458   10.9816   24.3191 C   0  0  0  0  0  0  0  0  0  0  0  0
    8.0447   12.3302   24.3622 C   0  0  0  0  0  0  0  0  0  0  0  0
    9.7660   10.3958   23.6381 C   0  0  0  0  0  0  0  0  0  0  0  0
   10.1542   11.7085   23.6800 C   0  0  0  0  0  0  0  0  0  0  0  0
   11.6943   16.0217   21.6660 C   0  0  0  0  0  0  0  0  0  0  0  0
   12.8306   15.4379   22.0405 C   0  0  0  0  0  0  0  0  0  0  0  0
   10.4880   15.2282   21.8778 C   0  0  0  0  0  0  0  0  0  0  0  0
   12.8263   14.0763   22.6270 C   0  0  0  0  0  0  0  0  0  0  0  0
   10.7082    9.3133   23.2389 C   0  0  0  0  0  0  0  0  0  0  0  0
    8.1808   15.1753   21.6508 C   0  0  0  0  0  0  0  0  0  0  0  0
   11.5398   12.1264   23.3272 C   0  0  0  0  0  0  0  0  0  0  0  0
    8.5137   10.0211   23.9558 N   0  0  0  0  0  0  0  0  0  0  0  0
    9.3014   12.6842   24.0408 N   0  0  0  0  0  0  0  0  0  0  0  0
   10.4101   14.0452   22.3790 N   0  0  0  0  0  0  0  0  0  0  0  0
   11.5870   13.4517   22.7618 N   0  0  0  0  0  0  0  0  0  0  0  0
   13.8973   13.5709   22.9624 O   0  0  0  0  0  0  0  0  0  0  0  0
    9.3898   15.8965   21.4705 O   0  0  0  0  0  0  0  0  0  0  0  0
    4.4013   11.3490   25.3004 H   0  0  0  0  0  0  0  0  0  0  0  0
    5.1046   13.7282   25.3752 H   0  0  0  0  0  0  0  0  0  0  0  0
    6.0142    9.6121   24.6306 H   0  0  0  0  0  0  0  0  0  0  0  0
    7.4136   14.3456   24.7805 H   0  0  0  0  0  0  0  0  0  0  0  0
   11.6522   17.0117   21.2332 H   0  0  0  0  0  0  0  0  0  0  0  0
   13.7848   15.9393   21.9268 H   0  0  0  0  0  0  0  0  0  0  0  0
   11.2345    8.9193   24.1177 H   0  0  0  0  0  0  0  0  0  0  0  0
   10.1803    8.4833   22.7502 H   0  0  0  0  0  0  0  0  0  0  0  0
   11.4561    9.6781   22.5217 H   0  0  0  0  0  0  0  0  0  0  0  0
    7.3400   15.7784   21.2994 H   0  0  0  0  0  0  0  0  0  0  0  0
    8.0533   14.9347   22.7093 H   0  0  0  0  0  0  0  0  0  0  0  0
    8.2293   14.2498   21.0721 H   0  0  0  0  0  0  0  0  0  0  0  0
   12.1937   12.1229   24.2114 H   0  0  0  0  0  0  0  0  0  0  0  0
   11.9947   11.4434   22.5957 H   0  0  0  0  0  0  0  0  0  0  0  0
  1  2  1  0  0  0  0
  1  3  2  0  0  0  0
  2  4  2  0  0  0  0
  3  5  1  0  0  0  0
  4  6  1  0  0  0  0
  5  6  1  0  0  0  0
  5 16  2  0  0  0  0
  6 17  2  0  0  0  0
  7  8  2  0  0  0  0
  7 13  1  0  0  0  0
  7 16  1  0  0  0  0
  8 15  1  0  0  0  0
  8 17  1  0  0  0  0
  9 10  2  0  0  0  0
  9 11  1  0  0  0  0
 10 12  1  0  0  0  0
 11 18  2  0  0  0  0
 11 21  1  0  0  0  0
 12 19  1  0  0  0  0
 12 20  2  0  0  0  0
 14 21  1  0  0  0  0
 15 19  1  0  0  0  0
 18 19  1  0  0  0  0
  1 22  1  0  0  0  0
  2 23  1  0  0  0  0
  3 24  1  0  0  0  0
  4 25  1  0  0  0  0
  9 26  1  0  0  0  0
 10 27  1  0  0  0  0
 13 28  1  0  0  0  0
 13 29  1  0  0  0  0
 13 30  1  0  0  0  0
 14 31  1  0  0  0  0
 14 32  1  0  0  0  0
 14 33  1  0  0  0  0
 15 34  1  0  0  0  0
 15 35  1  0  0  0  0
M  END
> <idnumber>
Z1955031558

> <heavy_atoms>
21

> <LogS>
-1.983

> <LogP>
0.979

> <rotating_bonds>
3

> <PSA>
67.68

> <hb_acceptors>
4

> <hb_donors>
0

> <Collection>
HTS

> <link>
https://www.enaminestore.com/catalog/Z1955031558

> <ROCS_ShapeQuery>
x0446_0A_x1080_0A_x0929_0A_x0812_0A_x0719_0A_x1140_0A_x0528_0A_x0310_0A

> <ROCS_TanimotoCombo>
0.455 

> <ROCS_ShapeTanimoto>
0.267 

> <ROCS_ColorTanimoto>
0.188 

> <ROCS_RefTversky>
0.239 

> <ROCS_RefColorTversky>
0.200 

> <ROCS_RefTverskyCombo>
0.439 

> <ROCS_FitTversky>
1.815 

> <ROCS_FitColorTversky>
0.755 

> <ROCS_FitTverskyCombo>
2.570 

> <ROCS_ColorScore>
-7.157

> <ROCS_Overlap>
2817.930

> <ROCS_Rank>
451                 

$$$$
untitled-dbase-1028538_134
  -OEChem-02092406493D

 44 47  0     1  0  0  0  0  0999 V2000
   11.4925   14.7028   22.8448 C   0  0  0  0  0  0  0  0  0  0  0  0
   10.5985   14.5817   21.8441 C   0  0  0  0  0  0  0  0  0  0  0  0
   11.1473   15.6058   23.9834 C   0  0  0  0  0  0  0  0  0  0  0  0
    9.0942   16.0095   22.7813 C   0  0  0  0  0  0  0  0  0  0  0  0
    7.2096   13.5330   22.2969 C   0  0  0  0  0  0  0  0  0  0  0  0
    8.3100   13.0618   24.5009 C   0  0  0  0  0  0  0  0  0  0  0  0
    9.5340    9.4816   24.2564 C   0  0  0  0  0  0  0  0  0  0  0  0
    7.4397   12.4985   23.3547 C   0  0  2  0  0  0  0  0  0  0  0  0
    9.1124   10.7485   24.9520 C   0  0  2  0  0  0  0  0  0  0  0  0
    8.2930   10.2171   23.8246 C   0  0  1  0  0  0  0  0  0  0  0  0
    9.5215   12.1197   24.4620 C   0  0  1  0  0  0  0  0  0  0  0  0
    8.3189   11.3528   22.8249 C   0  0  2  0  0  0  0  0  0  0  0  0
   12.8160   14.0039   22.9161 C   0  0  0  0  0  0  0  0  0  0  0  0
    5.4866   14.6438   23.7265 C   0  0  0  0  0  0  0  0  0  0  0  0
    7.7977   16.7512   22.7996 C   0  0  0  0  0  0  0  0  0  0  0  0
    6.7200   15.9751   22.0575 C   0  0  0  0  0  0  0  0  0  0  0  0
    9.3859   15.2294   21.7899 N   0  0  0  0  0  0  0  0  0  0  0  0
    9.9179   16.2204   23.8623 N   0  0  0  0  0  0  0  0  0  0  0  0
    6.4996   14.6718   22.6792 N   0  0  0  0  0  0  0  0  0  0  0  0
   11.9062   15.7717   24.9337 O   0  0  0  0  0  0  0  0  0  0  0  0
    7.6471   13.3386   21.1597 O   0  0  0  0  0  0  0  0  0  0  0  0
    9.6361   11.9322   23.0299 O   0  0  0  0  0  0  0  0  0  0  0  0
   10.8915   13.7512   20.7753 O   0  0  0  0  0  0  0  0  0  0  0  0
    8.6175   14.0939   24.2981 H   0  0  0  0  0  0  0  0  0  0  0  0
    7.7930   13.0329   25.4653 H   0  0  0  0  0  0  0  0  0  0  0  0
   10.4054    9.5031   23.6145 H   0  0  0  0  0  0  0  0  0  0  0  0
    9.4027    8.5481   24.7909 H   0  0  0  0  0  0  0  0  0  0  0  0
    6.4638   12.1530   23.7113 H   0  0  0  0  0  0  0  0  0  0  0  0
    8.7281   10.7075   25.9594 H   0  0  0  0  0  0  0  0  0  0  0  0
    7.3210    9.7922   24.0226 H   0  0  0  0  0  0  0  0  0  0  0  0
   10.4395   12.5124   24.9038 H   0  0  0  0  0  0  0  0  0  0  0  0
    8.1674   11.0596   21.7836 H   0  0  0  0  0  0  0  0  0  0  0  0
   13.5791   14.6196   22.4442 H   0  0  0  0  0  0  0  0  0  0  0  0
   12.7516   13.0469   22.4015 H   0  0  0  0  0  0  0  0  0  0  0  0
   13.0812   13.8306   23.9574 H   0  0  0  0  0  0  0  0  0  0  0  0
    5.9576   14.8517   24.6985 H   0  0  0  0  0  0  0  0  0  0  0  0
    4.7230   15.4076   23.5183 H   0  0  0  0  0  0  0  0  0  0  0  0
    5.0142   13.6507   23.7530 H   0  0  0  0  0  0  0  0  0  0  0  0
    7.9647   17.7142   22.3064 H   0  0  0  0  0  0  0  0  0  0  0  0
    7.5145   16.9329   23.8414 H   0  0  0  0  0  0  0  0  0  0  0  0
    5.7816   16.5385   22.0852 H   0  0  0  0  0  0  0  0  0  0  0  0
    6.9922   15.8295   21.0068 H   0  0  0  0  0  0  0  0  0  0  0  0
    9.6105   16.8507   24.5973 H   0  0  0  0  0  0  0  0  0  0  0  0
   10.1651   13.7677   20.1465 H   0  0  0  0  0  0  0  0  0  0  0  0
  1  2  2  0  0  0  0
  1  3  1  0  0  0  0
  1 13  1  0  0  0  0
  2 17  1  0  0  0  0
  2 23  1  0  0  0  0
  3 18  1  0  0  0  0
  3 20  2  0  0  0  0
  4 15  1  0  0  0  0
  4 17  2  0  0  0  0
  4 18  1  0  0  0  0
  5  8  1  1  0  0  0
  5 19  1  0  0  0  0
  5 21  2  0  0  0  0
  6  8  1  0  0  0  0
  6 11  1  0  0  0  0
  7  9  1  1  0  0  0
  7 10  1  1  0  0  0
  8 12  1  0  0  0  0
  9 10  1  0  0  0  0
  9 11  1  0  0  0  0
 10 12  1  0  0  0  0
 11 22  1  1  0  0  0
 12 22  1  1  0  0  0
 14 19  1  0  0  0  0
 15 16  1  0  0  0  0
 16 19  1  0  0  0  0
  6 24  1  0  0  0  0
  6 25  1  0  0  0  0
  7 26  1  0  0  0  0
  7 27  1  0  0  0  0
  8 28  1  0  0  0  0
  9 29  1  0  0  0  0
 10 30  1  0  0  0  0
 11 31  1  0  0  0  0
 12 32  1  0  0  0  0
 13 33  1  0  0  0  0
 13 34  1  0  0  0  0
 13 35  1  0  0  0  0
 14 36  1  0  0  0  0
 14 37  1  0  0  0  0
 14 38  1  0  0  0  0
 15 39  1  0  0  0  0
 15 40  1  0  0  0  0
 16 41  1  0  0  0  0
 16 42  1  0  0  0  0
 18 43  1  0  0  0  0
 23 44  1  0  0  0  0
M  END
> <idnumber>
Z3368594743

> <heavy_atoms>
23

> <LogS>
-2.477

> <LogP>
-0.806

> <rotating_bonds>
4

> <PSA>
91.23

> <hb_acceptors>
5

> <hb_donors>
2

> <Collection>
Advanced

> <link>
https://www.enaminestore.com/catalog/Z3368594743

> <ROCS_ShapeQuery>
x0446_0A_x1080_0A_x0929_0A_x0812_0A_x0719_0A_x1140_0A_x0528_0A_x0310_0A

> <ROCS_TanimotoCombo>
0.455 

> <ROCS_ShapeTanimoto>
0.234 

> <ROCS_ColorTanimoto>
0.221 

> <ROCS_RefTversky>
0.216 

> <ROCS_RefColorTversky>
0.309 

> <ROCS_RefTverskyCombo>
0.525 

> <ROCS_FitTversky>
1.567 

> <ROCS_FitColorTversky>
0.438 

> <ROCS_FitTverskyCombo>
2.005 

> <ROCS_ColorScore>
-11.296

> <ROCS_Overlap>
2550.700

> <ROCS_Rank>
452                 

$$$$
untitled-dbase-685237_4
  -OEChem-02092406493D

 46 49  0     0  0  0  0  0  0999 V2000
   12.1002   16.3458   20.7129 C   0  0  0  0  0  0  0  0  0  0  0  0
   11.4230   15.1391   20.5373 C   0  0  0  0  0  0  0  0  0  0  0  0
   13.0437   16.4741   21.7322 C   0  0  0  0  0  0  0  0  0  0  0  0
   12.6327   14.1890   22.4004 C   0  0  0  0  0  0  0  0  0  0  0  0
   11.6892   14.0607   21.3810 C   0  0  0  0  0  0  0  0  0  0  0  0
   13.3100   15.3957   22.5760 C   0  0  0  0  0  0  0  0  0  0  0  0
    9.4474   11.8919   24.0672 C   0  0  0  0  0  0  0  0  0  0  0  0
    9.5088   10.5728   23.7025 C   0  0  0  0  0  0  0  0  0  0  0  0
    7.5109   10.8618   24.3896 C   0  0  0  0  0  0  0  0  0  0  0  0
   10.5458   12.8007   23.9707 C   0  0  0  0  0  0  0  0  0  0  0  0
    6.0898   13.0122   25.3609 C   0  0  0  0  0  0  0  0  0  0  0  0
   11.8348   10.7918   23.0503 C   0  0  0  0  0  0  0  0  0  0  0  0
    7.5384   13.2557   25.0058 C   0  0  0  0  0  0  0  0  0  0  0  0
    5.3073   14.1893   25.8818 C   0  0  0  0  0  0  0  0  0  0  0  0
    4.8276    9.4576   23.3109 C   0  0  0  0  0  0  0  0  0  0  0  0
   10.6779    8.5890   22.8292 C   0  0  0  0  0  0  0  0  0  0  0  0
   12.8927   13.0069   23.2888 C   0  0  0  0  0  0  0  0  0  0  0  0
    5.4858    9.5606   24.6446 C   0  0  0  0  0  0  0  0  0  0  0  0
    8.3129    9.9330   23.9002 N   0  0  0  0  0  0  0  0  0  0  0  0
    5.4836   11.8683   25.2479 N   0  0  0  0  0  0  0  0  0  0  0  0
    8.1681   12.0605   24.5023 N   0  0  0  0  0  0  0  0  0  0  0  0
   10.6686    9.9995   23.1991 N   0  0  0  0  0  0  0  0  0  0  0  0
    6.2102   10.8126   24.7762 N   0  0  0  0  0  0  0  0  0  0  0  0
   11.7074   12.1697   23.4446 N   0  0  0  0  0  0  0  0  0  0  0  0
   10.4877   13.9813   24.3053 O   0  0  0  0  0  0  0  0  0  0  0  0
   12.8920   10.3259   22.6113 O   0  0  0  0  0  0  0  0  0  0  0  0
   11.0319   12.9060   21.2033 F   0  0  0  0  0  0  0  0  0  0  0  0
   14.4834   15.5934   23.8265 Cl  0  0  0  0  0  0  0  0  0  0  0  0
   11.8920   17.1850   20.0561 H   0  0  0  0  0  0  0  0  0  0  0  0
   10.6883   15.0391   19.7437 H   0  0  0  0  0  0  0  0  0  0  0  0
   13.5630   17.4212   21.8561 H   0  0  0  0  0  0  0  0  0  0  0  0
    7.5978   14.0251   24.2302 H   0  0  0  0  0  0  0  0  0  0  0  0
    8.0822   13.5763   25.8993 H   0  0  0  0  0  0  0  0  0  0  0  0
    4.8469   14.7087   25.0472 H   0  0  0  0  0  0  0  0  0  0  0  0
    5.9795   14.8596   26.4090 H   0  0  0  0  0  0  0  0  0  0  0  0
    4.5413   13.8343   26.5645 H   0  0  0  0  0  0  0  0  0  0  0  0
    5.5902    9.5110   22.5199 H   0  0  0  0  0  0  0  0  0  0  0  0
    4.2920    8.4994   23.2395 H   0  0  0  0  0  0  0  0  0  0  0  0
    4.1145   10.2862   23.1891 H   0  0  0  0  0  0  0  0  0  0  0  0
   10.3863    8.4842   21.7737 H   0  0  0  0  0  0  0  0  0  0  0  0
   11.6886    8.1791   22.9727 H   0  0  0  0  0  0  0  0  0  0  0  0
    9.9660    8.0393   23.4625 H   0  0  0  0  0  0  0  0  0  0  0  0
   13.6941   12.3836   22.8775 H   0  0  0  0  0  0  0  0  0  0  0  0
   13.2096   13.3276   24.2868 H   0  0  0  0  0  0  0  0  0  0  0  0
    4.7171    9.5063   25.4295 H   0  0  0  0  0  0  0  0  0  0  0  0
    6.1903    8.7241   24.7629 H   0  0  0  0  0  0  0  0  0  0  0  0
  1  2  1  0  0  0  0
  1  3  2  0  0  0  0
  2  5  2  0  0  0  0
  3  6  1  0  0  0  0
  4  5  1  0  0  0  0
  4  6  2  0  0  0  0
  4 17  1  0  0  0  0
  5 27  1  0  0  0  0
  6 28  1  0  0  0  0
  7  8  2  0  0  0  0
  7 10  1  0  0  0  0
  7 21  1  0  0  0  0
  8 19  1  0  0  0  0
  8 22  1  0  0  0  0
  9 19  2  0  0  0  0
  9 21  1  0  0  0  0
  9 23  1  0  0  0  0
 10 24  1  0  0  0  0
 10 25  2  0  0  0  0
 11 13  1  0  0  0  0
 11 14  1  0  0  0  0
 11 20  2  0  0  0  0
 12 22  1  0  0  0  0
 12 24  1  0  0  0  0
 12 26  2  0  0  0  0
 13 21  1  0  0  0  0
 15 18  1  0  0  0  0
 16 22  1  0  0  0  0
 17 24  1  0  0  0  0
 18 23  1  0  0  0  0
 20 23  1  0  0  0  0
  1 29  1  0  0  0  0
  2 30  1  0  0  0  0
  3 31  1  0  0  0  0
 13 32  1  0  0  0  0
 13 33  1  0  0  0  0
 14 34  1  0  0  0  0
 14 35  1  0  0  0  0
 14 36  1  0  0  0  0
 15 37  1  0  0  0  0
 15 38  1  0  0  0  0
 15 39  1  0  0  0  0
 16 40  1  0  0  0  0
 16 41  1  0  0  0  0
 16 42  1  0  0  0  0
 17 43  1  0  0  0  0
 17 44  1  0  0  0  0
 18 45  1  0  0  0  0
 18 46  1  0  0  0  0
M  END
> <idnumber>
Z274625206

> <heavy_atoms>
28

> <LogS>
-4.64

> <LogP>
3.728

> <rotating_bonds>
3

> <PSA>
74.04

> <hb_acceptors>
5

> <hb_donors>
0

> <Collection>
Legacy

> <link>
https://www.enaminestore.com/catalog/Z274625206

> <ROCS_ShapeQuery>
x0446_0A_x1080_0A_x0929_0A_x0812_0A_x0719_0A_x1140_0A_x0528_0A_x0310_0A

> <ROCS_TanimotoCombo>
0.455 

> <ROCS_ShapeTanimoto>
0.270 

> <ROCS_ColorTanimoto>
0.185 

> <ROCS_RefTversky>
0.246 

> <ROCS_RefColorTversky>
0.202 

> <ROCS_RefTverskyCombo>
0.448 

> <ROCS_FitTversky>
1.557 

> <ROCS_FitColorTversky>
0.691 

> <ROCS_FitTverskyCombo>
2.248 

> <ROCS_ColorScore>
-7.220

> <ROCS_Overlap>
2914.285

> <ROCS_Rank>
453                 

$$$$
untitled-dbase-965155_1
  -OEChem-02092406493D

 39 42  0     0  0  0  0  0  0999 V2000
    6.3241   13.6866   25.2066 C   0  0  0  0  0  0  0  0  0  0  0  0
    5.9706   12.4366   25.7114 C   0  0  0  0  0  0  0  0  0  0  0  0
    7.3464   13.8003   24.2621 C   0  0  0  0  0  0  0  0  0  0  0  0
    6.6334   11.2928   25.2689 C   0  0  0  0  0  0  0  0  0  0  0  0
    8.0239   12.6566   23.8263 C   0  0  0  0  0  0  0  0  0  0  0  0
    7.6567   11.4078   24.3225 C   0  0  0  0  0  0  0  0  0  0  0  0
    9.5953   13.9777   22.2919 C   0  0  0  0  0  0  0  0  0  0  0  0
   10.8042   15.7121   21.7524 C   0  0  0  0  0  0  0  0  0  0  0  0
    9.1164   12.6884   22.8291 C   0  0  0  0  0  0  0  0  0  0  0  0
    8.3473   10.2085   23.8222 C   0  0  0  0  0  0  0  0  0  0  0  0
   12.0045   16.5723   21.6108 C   0  0  0  0  0  0  0  0  0  0  0  0
   13.1180   16.1561   22.5796 C   0  0  0  0  0  0  0  0  0  0  0  0
   11.9956   13.9402   23.0555 C   0  0  0  0  0  0  0  0  0  0  0  0
   13.3256   14.6202   22.6478 C   0  0  0  0  0  0  0  0  0  0  0  0
   13.8117   14.0722   21.2919 C   0  0  0  0  0  0  0  0  0  0  0  0
   14.3968   14.3030   23.7059 C   0  0  0  0  0  0  0  0  0  0  0  0
    8.8202   14.8158   21.6393 N   0  0  0  0  0  0  0  0  0  0  0  0
    9.5860   15.9151   21.2955 N   0  0  0  0  0  0  0  0  0  0  0  0
    9.7016   11.6199   22.3822 N   0  0  0  0  0  0  0  0  0  0  0  0
   10.8440   14.4997   22.3808 N   0  0  0  0  0  0  0  0  0  0  0  0
    9.3168   10.4174   22.8661 N   0  0  0  0  0  0  0  0  0  0  0  0
    8.0495    9.0955   24.2457 O   0  0  0  0  0  0  0  0  0  0  0  0
    5.8026   14.5760   25.5487 H   0  0  0  0  0  0  0  0  0  0  0  0
    5.1745   12.3528   26.4455 H   0  0  0  0  0  0  0  0  0  0  0  0
    7.5971   14.7887   23.8880 H   0  0  0  0  0  0  0  0  0  0  0  0
    6.3363   10.3264   25.6664 H   0  0  0  0  0  0  0  0  0  0  0  0
   12.3660   16.5104   20.5779 H   0  0  0  0  0  0  0  0  0  0  0  0
   11.7362   17.6192   21.7915 H   0  0  0  0  0  0  0  0  0  0  0  0
   14.0501   16.6597   22.2948 H   0  0  0  0  0  0  0  0  0  0  0  0
   12.8617   16.5246   23.5830 H   0  0  0  0  0  0  0  0  0  0  0  0
   12.0231   12.8644   22.8471 H   0  0  0  0  0  0  0  0  0  0  0  0
   11.8041   14.0761   24.1275 H   0  0  0  0  0  0  0  0  0  0  0  0
   13.9475   12.9995   21.3705 H   0  0  0  0  0  0  0  0  0  0  0  0
   14.7534   14.5439   21.0352 H   0  0  0  0  0  0  0  0  0  0  0  0
   13.0703   14.2942   20.5327 H   0  0  0  0  0  0  0  0  0  0  0  0
   14.5437   13.2292   23.7555 H   0  0  0  0  0  0  0  0  0  0  0  0
   14.0661   14.6716   24.6713 H   0  0  0  0  0  0  0  0  0  0  0  0
   15.3275   14.7870   23.4290 H   0  0  0  0  0  0  0  0  0  0  0  0
    9.8219    9.6288   22.4744 H   0  0  0  0  0  0  0  0  0  0  0  0
  1  2  1  0  0  0  0
  1  3  2  0  0  0  0
  2  4  2  0  0  0  0
  3  5  1  0  0  0  0
  4  6  1  0  0  0  0
  5  6  2  0  0  0  0
  5  9  1  0  0  0  0
  6 10  1  0  0  0  0
  7  9  1  0  0  0  0
  7 17  2  0  0  0  0
  7 20  1  0  0  0  0
  8 11  1  0  0  0  0
  8 18  2  0  0  0  0
  8 20  1  0  0  0  0
  9 19  2  0  0  0  0
 10 21  1  0  0  0  0
 10 22  2  0  0  0  0
 11 12  1  0  0  0  0
 12 14  1  0  0  0  0
 13 14  1  0  0  0  0
 13 20  1  0  0  0  0
 14 15  1  0  0  0  0
 14 16  1  0  0  0  0
 17 18  1  0  0  0  0
 19 21  1  0  0  0  0
  1 23  1  0  0  0  0
  2 24  1  0  0  0  0
  3 25  1  0  0  0  0
  4 26  1  0  0  0  0
 11 27  1  0  0  0  0
 11 28  1  0  0  0  0
 12 29  1  0  0  0  0
 12 30  1  0  0  0  0
 13 31  1  0  0  0  0
 13 32  1  0  0  0  0
 15 33  1  0  0  0  0
 15 34  1  0  0  0  0
 15 35  1  0  0  0  0
 16 36  1  0  0  0  0
 16 37  1  0  0  0  0
 16 38  1  0  0  0  0
 21 39  1  0  0  0  0
M  END
> <idnumber>
Z2863954082

> <heavy_atoms>
22

> <LogS>
-3.984

> <LogP>
1.126

> <rotating_bonds>
1

> <PSA>
72.17

> <hb_acceptors>
4

> <hb_donors>
1

> <Collection>
HTS

> <link>
https://www.enaminestore.com/catalog/Z2863954082

> <ROCS_ShapeQuery>
x0446_0A_x1080_0A_x0929_0A_x0812_0A_x0719_0A_x1140_0A_x0528_0A_x0310_0A

> <ROCS_TanimotoCombo>
0.455 

> <ROCS_ShapeTanimoto>
0.255 

> <ROCS_ColorTanimoto>
0.201 

> <ROCS_RefTversky>
0.230 

> <ROCS_RefColorTversky>
0.222 

> <ROCS_RefTverskyCombo>
0.452 

> <ROCS_FitTversky>
1.700 

> <ROCS_FitColorTversky>
0.681 

> <ROCS_FitTverskyCombo>
2.381 

> <ROCS_ColorScore>
-7.941

> <ROCS_Overlap>
2722.082

> <ROCS_Rank>
454                 

$$$$
untitled-dbase-897340_182
  -OEChem-02092406493D

 40 42  0     0  0  0  0  0  0999 V2000
    5.5015   12.1630   25.0579 C   0  0  0  0  0  0  0  0  0  0  0  0
    6.0747   13.4494   25.1230 C   0  0  0  0  0  0  0  0  0  0  0  0
    6.2654   11.0539   24.6837 C   0  0  0  0  0  0  0  0  0  0  0  0
    7.4232   13.6519   24.8156 C   0  0  0  0  0  0  0  0  0  0  0  0
    7.5937   11.2774   24.3849 C   0  0  0  0  0  0  0  0  0  0  0  0
    8.1579   12.5430   24.4493 C   0  0  0  0  0  0  0  0  0  0  0  0
   10.7711   14.6698   21.4504 C   0  0  0  0  0  0  0  0  0  0  0  0
    8.6340   10.3383   23.9673 C   0  0  0  0  0  0  0  0  0  0  0  0
    9.5672   12.4312   24.0737 C   0  0  0  0  0  0  0  0  0  0  0  0
   10.5750    9.4114   21.2183 C   0  0  0  0  0  0  0  0  0  0  0  0
   12.8193   10.4225   21.5945 C   0  0  0  0  0  0  0  0  0  0  0  0
   12.3554   16.6126   21.8345 C   0  0  0  0  0  0  0  0  0  0  0  0
   11.0538   10.5459   23.3986 C   0  0  0  0  0  0  0  0  0  0  0  0
   10.8643   11.9398   21.2236 C   0  0  0  0  0  0  0  0  0  0  0  0
   11.3098   10.6012   21.8723 C   0  0  0  0  0  0  0  0  0  0  0  0
    9.4752   14.5642   21.2666 N   0  0  0  0  0  0  0  0  0  0  0  0
    8.9876   15.8507   21.3127 N   0  0  0  0  0  0  0  0  0  0  0  0
    9.9651   16.7242   21.5212 N   0  0  0  0  0  0  0  0  0  0  0  0
   11.0790   15.9836   21.6068 N   0  0  0  0  0  0  0  0  0  0  0  0
    9.7852   11.0909   23.8025 N   0  0  0  0  0  0  0  0  0  0  0  0
    8.4555    9.1443   23.8141 O   0  0  0  0  0  0  0  0  0  0  0  0
   10.3363   13.3734   24.0302 O   0  0  0  0  0  0  0  0  0  0  0  0
   11.9627   13.3683   21.4968 S   0  0  0  0  0  0  0  0  0  0  0  0
    4.4502   12.0346   25.3026 H   0  0  0  0  0  0  0  0  0  0  0  0
    5.4572   14.2944   25.4166 H   0  0  0  0  0  0  0  0  0  0  0  0
    5.8243   10.0653   24.6332 H   0  0  0  0  0  0  0  0  0  0  0  0
    7.8633   14.6408   24.8656 H   0  0  0  0  0  0  0  0  0  0  0  0
    9.4921    9.4651   21.3716 H   0  0  0  0  0  0  0  0  0  0  0  0
   10.7597    9.3770   20.1386 H   0  0  0  0  0  0  0  0  0  0  0  0
   10.9148    8.4592   21.6423 H   0  0  0  0  0  0  0  0  0  0  0  0
   13.4108   11.2343   22.0308 H   0  0  0  0  0  0  0  0  0  0  0  0
   13.1905    9.4785   22.0092 H   0  0  0  0  0  0  0  0  0  0  0  0
   13.0226   10.4128   20.5173 H   0  0  0  0  0  0  0  0  0  0  0  0
   12.7931   16.8495   20.8612 H   0  0  0  0  0  0  0  0  0  0  0  0
   12.2125   17.5242   22.4215 H   0  0  0  0  0  0  0  0  0  0  0  0
   13.0022   15.9272   22.3892 H   0  0  0  0  0  0  0  0  0  0  0  0
   11.0891    9.5162   23.7700 H   0  0  0  0  0  0  0  0  0  0  0  0
   11.8244   11.1060   23.9407 H   0  0  0  0  0  0  0  0  0  0  0  0
   10.7549   11.8206   20.1397 H   0  0  0  0  0  0  0  0  0  0  0  0
    9.8770   12.2232   21.6070 H   0  0  0  0  0  0  0  0  0  0  0  0
  1  2  1  0  0  0  0
  1  3  2  0  0  0  0
  2  4  2  0  0  0  0
  3  5  1  0  0  0  0
  4  6  1  0  0  0  0
  5  6  2  0  0  0  0
  5  8  1  0  0  0  0
  6  9  1  0  0  0  0
  7 16  2  0  0  0  0
  7 19  1  0  0  0  0
  7 23  1  0  0  0  0
  8 20  1  0  0  0  0
  8 21  2  0  0  0  0
  9 20  1  0  0  0  0
  9 22  2  0  0  0  0
 10 15  1  0  0  0  0
 11 15  1  0  0  0  0
 12 19  1  0  0  0  0
 13 15  1  0  0  0  0
 13 20  1  0  0  0  0
 14 15  1  0  0  0  0
 14 23  1  0  0  0  0
 16 17  1  0  0  0  0
 17 18  2  0  0  0  0
 18 19  1  0  0  0  0
  1 24  1  0  0  0  0
  2 25  1  0  0  0  0
  3 26  1  0  0  0  0
  4 27  1  0  0  0  0
 10 28  1  0  0  0  0
 10 29  1  0  0  0  0
 10 30  1  0  0  0  0
 11 31  1  0  0  0  0
 11 32  1  0  0  0  0
 11 33  1  0  0  0  0
 12 34  1  0  0  0  0
 12 35  1  0  0  0  0
 12 36  1  0  0  0  0
 13 37  1  0  0  0  0
 13 38  1  0  0  0  0
 14 39  1  0  0  0  0
 14 40  1  0  0  0  0
M  END
> <idnumber>
Z2379555130

> <heavy_atoms>
23

> <LogS>
-4.555

> <LogP>
2.812

> <rotating_bonds>
5

> <PSA>
80.98

> <hb_acceptors>
5

> <hb_donors>
0

> <Collection>
HTS

> <link>
https://www.enaminestore.com/catalog/Z2379555130

> <ROCS_ShapeQuery>
x0446_0A_x1080_0A_x0929_0A_x0812_0A_x0719_0A_x1140_0A_x0528_0A_x0310_0A

> <ROCS_TanimotoCombo>
0.455 

> <ROCS_ShapeTanimoto>
0.254 

> <ROCS_ColorTanimoto>
0.201 

> <ROCS_RefTversky>
0.230 

> <ROCS_RefColorTversky>
0.219 

> <ROCS_RefTverskyCombo>
0.449 

> <ROCS_FitTversky>
1.692 

> <ROCS_FitColorTversky>
0.711 

> <ROCS_FitTverskyCombo>
2.403 

> <ROCS_ColorScore>
-7.853

> <ROCS_Overlap>
2717.950

> <ROCS_Rank>
455                 

$$$$
untitled-dbase-510261_7
  -OEChem-02092406493D

 42 45  0     0  0  0  0  0  0999 V2000
   12.3573   15.2728   21.7888 C   0  0  0  0  0  0  0  0  0  0  0  0
   12.2299   14.8808   23.1233 C   0  0  0  0  0  0  0  0  0  0  0  0
    9.7312   10.0412   23.6953 C   0  0  0  0  0  0  0  0  0  0  0  0
    8.3770    9.8611   23.9375 C   0  0  0  0  0  0  0  0  0  0  0  0
    5.9606   13.1957   24.7103 C   0  0  0  0  0  0  0  0  0  0  0  0
   11.2295   15.5704   21.0134 C   0  0  0  0  0  0  0  0  0  0  0  0
   10.9748   14.7719   23.7312 C   0  0  0  0  0  0  0  0  0  0  0  0
    5.3855   11.9309   24.7026 C   0  0  0  0  0  0  0  0  0  0  0  0
   10.2181   11.3323   23.7224 C   0  0  0  0  0  0  0  0  0  0  0  0
    7.5545   10.9655   24.1977 C   0  0  0  0  0  0  0  0  0  0  0  0
    7.3275   13.3433   24.4624 C   0  0  0  0  0  0  0  0  0  0  0  0
    9.9607   15.4661   21.6079 C   0  0  0  0  0  0  0  0  0  0  0  0
    8.1451   12.2465   24.2040 C   0  0  0  0  0  0  0  0  0  0  0  0
    9.8658   15.0730   22.9399 C   0  0  0  0  0  0  0  0  0  0  0  0
    6.1796   10.8167   24.4470 C   0  0  0  0  0  0  0  0  0  0  0  0
    7.8731   15.4531   22.0569 C   0  0  0  0  0  0  0  0  0  0  0  0
    7.9007   14.7266   24.4815 C   0  0  0  0  0  0  0  0  0  0  0  0
    5.7162   15.9264   20.8953 C   0  0  0  0  0  0  0  0  0  0  0  0
    4.2476   15.9366   21.2783 C   0  0  0  0  0  0  0  0  0  0  0  0
    9.4590   12.4244   23.9692 N   0  0  0  0  0  0  0  0  0  0  0  0
    8.7129   15.6979   21.0762 N   0  0  0  0  0  0  0  0  0  0  0  0
    8.5194   15.0734   23.2003 N   0  0  0  0  0  0  0  0  0  0  0  0
    6.5213   15.5338   22.0501 N   0  0  0  0  0  0  0  0  0  0  0  0
    3.8528   14.6281   21.6704 O   0  0  0  0  0  0  0  0  0  0  0  0
    5.6135    9.6005   24.4427 F   0  0  0  0  0  0  0  0  0  0  0  0
   13.3466   15.3484   21.3445 H   0  0  0  0  0  0  0  0  0  0  0  0
   13.1228   14.6564   23.7016 H   0  0  0  0  0  0  0  0  0  0  0  0
   10.3818    9.1986   23.4925 H   0  0  0  0  0  0  0  0  0  0  0  0
    7.9680    8.8535   23.9223 H   0  0  0  0  0  0  0  0  0  0  0  0
    5.3386   14.0644   24.9098 H   0  0  0  0  0  0  0  0  0  0  0  0
   11.3389   15.8741   19.9773 H   0  0  0  0  0  0  0  0  0  0  0  0
   10.8772   14.4678   24.7672 H   0  0  0  0  0  0  0  0  0  0  0  0
    4.3238   11.8116   24.8951 H   0  0  0  0  0  0  0  0  0  0  0  0
   11.2685   11.5341   23.5400 H   0  0  0  0  0  0  0  0  0  0  0  0
    7.1298   15.4797   24.6992 H   0  0  0  0  0  0  0  0  0  0  0  0
    8.6639   14.8364   25.2653 H   0  0  0  0  0  0  0  0  0  0  0  0
    5.9101   15.2166   20.0848 H   0  0  0  0  0  0  0  0  0  0  0  0
    6.0348   16.9248   20.5808 H   0  0  0  0  0  0  0  0  0  0  0  0
    3.6380   16.2299   20.4180 H   0  0  0  0  0  0  0  0  0  0  0  0
    4.0523   16.6262   22.1059 H   0  0  0  0  0  0  0  0  0  0  0  0
    5.9922   15.3103   22.9041 H   0  0  0  0  0  0  0  0  0  0  0  0
    2.9125   14.6788   21.9060 H   0  0  0  0  0  0  0  0  0  0  0  0
  1  2  1  0  0  0  0
  1  6  2  0  0  0  0
  2  7  2  0  0  0  0
  3  4  2  0  0  0  0
  3  9  1  0  0  0  0
  4 10  1  0  0  0  0
  5  8  2  0  0  0  0
  5 11  1  0  0  0  0
  6 12  1  0  0  0  0
  7 14  1  0  0  0  0
  8 15  1  0  0  0  0
  9 20  2  0  0  0  0
 10 13  1  0  0  0  0
 10 15  2  0  0  0  0
 11 13  2  0  0  0  0
 11 17  1  0  0  0  0
 12 14  2  0  0  0  0
 12 21  1  0  0  0  0
 13 20  1  0  0  0  0
 14 22  1  0  0  0  0
 15 25  1  0  0  0  0
 16 21  2  0  0  0  0
 16 22  1  0  0  0  0
 16 23  1  0  0  0  0
 17 22  1  0  0  0  0
 18 19  1  0  0  0  0
 18 23  1  0  0  0  0
 19 24  1  0  0  0  0
  1 26  1  0  0  0  0
  2 27  1  0  0  0  0
  3 28  1  0  0  0  0
  4 29  1  0  0  0  0
  5 30  1  0  0  0  0
  6 31  1  0  0  0  0
  7 32  1  0  0  0  0
  8 33  1  0  0  0  0
  9 34  1  0  0  0  0
 17 35  1  0  0  0  0
 17 36  1  0  0  0  0
 18 37  1  0  0  0  0
 18 38  1  0  0  0  0
 19 39  1  0  0  0  0
 19 40  1  0  0  0  0
 23 41  1  0  0  0  0
 24 42  1  0  0  0  0
M  END
> <idnumber>
Z785235072

> <heavy_atoms>
25

> <LogS>
-4.24

> <LogP>
2.95

> <rotating_bonds>
5

> <PSA>
62.97

> <hb_acceptors>
4

> <hb_donors>
2

> <Collection>
HTS

> <link>
https://www.enaminestore.com/catalog/Z785235072

> <ROCS_ShapeQuery>
x0446_0A_x1080_0A_x0929_0A_x0812_0A_x0719_0A_x1140_0A_x0528_0A_x0310_0A

> <ROCS_TanimotoCombo>
0.455 

> <ROCS_ShapeTanimoto>
0.258 

> <ROCS_ColorTanimoto>
0.197 

> <ROCS_RefTversky>
0.235 

> <ROCS_RefColorTversky>
0.217 

> <ROCS_RefTverskyCombo>
0.452 

> <ROCS_FitTversky>
1.607 

> <ROCS_FitColorTversky>
0.682 

> <ROCS_FitTverskyCombo>
2.289 

> <ROCS_ColorScore>
-7.765

> <ROCS_Overlap>
2782.844

> <ROCS_Rank>
456                 

$$$$
untitled-dbase-929066_98
  -OEChem-02092406493D

 51 55  0     0  0  0  0  0  0999 V2000
    7.2561   15.9407   20.3010 C   0  0  0  0  0  0  0  0  0  0  0  0
    7.8579   14.7648   22.3109 C   0  0  0  0  0  0  0  0  0  0  0  0
    6.8964   15.1393   21.3788 C   0  0  0  0  0  0  0  0  0  0  0  0
    8.5798   16.3378   20.2014 C   0  0  0  0  0  0  0  0  0  0  0  0
    9.1547   15.2144   22.1212 C   0  0  0  0  0  0  0  0  0  0  0  0
    6.8622   11.7839   25.6991 C   0  0  0  0  0  0  0  0  0  0  0  0
    5.9634   12.3450   27.5139 C   0  0  0  0  0  0  0  0  0  0  0  0
    7.5114   13.9177   23.4622 C   0  0  0  0  0  0  0  0  0  0  0  0
   13.4810   14.8052   22.3786 C   0  0  0  0  0  0  0  0  0  0  0  0
   12.5863   14.7875   23.6324 C   0  0  0  0  0  0  0  0  0  0  0  0
   12.1903   14.7573   21.5398 C   0  0  0  0  0  0  0  0  0  0  0  0
    7.8349   10.3099   23.6108 C   0  0  0  0  0  0  0  0  0  0  0  0
    9.3438   11.0299   24.8631 C   0  0  0  0  0  0  0  0  0  0  0  0
    9.1962   12.1577   22.6664 C   0  0  0  0  0  0  0  0  0  0  0  0
    9.3022   10.7758   23.3188 C   0  0  0  0  0  0  0  0  0  0  0  0
   11.4549   15.3718   22.7544 C   0  0  0  0  0  0  0  0  0  0  0  0
    7.8947   11.5957   24.5399 C   0  0  0  0  0  0  0  0  0  0  0  0
    5.4760   14.6970   21.5102 C   0  0  0  0  0  0  0  0  0  0  0  0
    9.0016   17.1984   19.0575 C   0  0  0  0  0  0  0  0  0  0  0  0
    5.8883   12.9727   28.8390 C   0  0  0  0  0  0  0  0  0  0  0  0
    9.5418   15.9941   21.0868 N   0  0  0  0  0  0  0  0  0  0  0  0
    5.6397   11.3081   25.6570 N   0  0  0  0  0  0  0  0  0  0  0  0
    5.0484   11.6774   26.8509 N   0  0  0  0  0  0  0  0  0  0  0  0
    8.1694   12.7065   23.5651 N   0  0  0  0  0  0  0  0  0  0  0  0
    6.6566   14.3459   24.2328 O   0  0  0  0  0  0  0  0  0  0  0  0
    7.1454   12.4565   26.8481 O   0  0  0  0  0  0  0  0  0  0  0  0
   10.1342   14.8688   23.0159 O   0  0  0  0  0  0  0  0  0  0  0  0
    6.5225   16.2453   19.5612 H   0  0  0  0  0  0  0  0  0  0  0  0
   14.0508   15.7336   22.2573 H   0  0  0  0  0  0  0  0  0  0  0  0
   14.1559   13.9536   22.2634 H   0  0  0  0  0  0  0  0  0  0  0  0
   12.3795   13.7831   24.0192 H   0  0  0  0  0  0  0  0  0  0  0  0
   12.9232   15.4231   24.4555 H   0  0  0  0  0  0  0  0  0  0  0  0
   12.1995   15.3681   20.6333 H   0  0  0  0  0  0  0  0  0  0  0  0
   11.8616   13.7434   21.2844 H   0  0  0  0  0  0  0  0  0  0  0  0
    7.1400   10.3501   22.7660 H   0  0  0  0  0  0  0  0  0  0  0  0
    7.7237    9.3424   24.1146 H   0  0  0  0  0  0  0  0  0  0  0  0
    9.3934   10.1394   25.5009 H   0  0  0  0  0  0  0  0  0  0  0  0
   10.0845   11.7561   25.2129 H   0  0  0  0  0  0  0  0  0  0  0  0
   10.1155   12.7453   22.7379 H   0  0  0  0  0  0  0  0  0  0  0  0
    8.8220   12.1257   21.6396 H   0  0  0  0  0  0  0  0  0  0  0  0
    9.9990   10.0526   22.8965 H   0  0  0  0  0  0  0  0  0  0  0  0
   11.4485   16.4677   22.7427 H   0  0  0  0  0  0  0  0  0  0  0  0
    5.3250   13.7445   20.9892 H   0  0  0  0  0  0  0  0  0  0  0  0
    5.1969   14.5676   22.5632 H   0  0  0  0  0  0  0  0  0  0  0  0
    4.7888   15.4400   21.0868 H   0  0  0  0  0  0  0  0  0  0  0  0
    8.8991   18.2582   19.3199 H   0  0  0  0  0  0  0  0  0  0  0  0
   10.0461   17.0074   18.7803 H   0  0  0  0  0  0  0  0  0  0  0  0
    8.3941   16.9997   18.1654 H   0  0  0  0  0  0  0  0  0  0  0  0
    6.1922   12.2714   29.6373 H   0  0  0  0  0  0  0  0  0  0  0  0
    6.5378   13.8646   28.9206 H   0  0  0  0  0  0  0  0  0  0  0  0
    4.8676   13.3243   29.0817 H   0  0  0  0  0  0  0  0  0  0  0  0
  1  3  2  0  0  0  0
  1  4  1  0  0  0  0
  2  3  1  0  0  0  0
  2  5  2  0  0  0  0
  2  8  1  0  0  0  0
  3 18  1  0  0  0  0
  4 19  1  0  0  0  0
  4 21  2  0  0  0  0
  5 21  1  0  0  0  0
  5 27  1  0  0  0  0
  6 17  1  0  0  0  0
  6 22  2  0  0  0  0
  6 26  1  0  0  0  0
  7 20  1  0  0  0  0
  7 23  2  0  0  0  0
  7 26  1  0  0  0  0
  8 24  1  0  0  0  0
  8 25  2  0  0  0  0
  9 10  1  0  0  0  0
  9 11  1  0  0  0  0
 10 16  1  0  0  0  0
 11 16  1  0  0  0  0
 12 15  1  0  0  0  0
 12 17  1  0  0  0  0
 13 15  1  0  0  0  0
 13 17  1  0  0  0  0
 14 15  1  0  0  0  0
 14 24  1  0  0  0  0
 16 27  1  0  0  0  0
 17 24  1  0  0  0  0
 22 23  1  0  0  0  0
  1 28  1  0  0  0  0
  9 29  1  0  0  0  0
  9 30  1  0  0  0  0
 10 31  1  0  0  0  0
 10 32  1  0  0  0  0
 11 33  1  0  0  0  0
 11 34  1  0  0  0  0
 12 35  1  0  0  0  0
 12 36  1  0  0  0  0
 13 37  1  0  0  0  0
 13 38  1  0  0  0  0
 14 39  1  0  0  0  0
 14 40  1  0  0  0  0
 15 41  1  0  0  0  0
 16 42  1  0  0  0  0
 18 43  1  0  0  0  0
 18 44  1  0  0  0  0
 18 45  1  0  0  0  0
 19 46  1  0  0  0  0
 19 47  1  0  0  0  0
 19 48  1  0  0  0  0
 20 49  1  0  0  0  0
 20 50  1  0  0  0  0
 20 51  1  0  0  0  0
M  END
> <idnumber>
Z2648736318

> <heavy_atoms>
27

> <LogS>
-3.684

> <LogP>
1.479

> <rotating_bonds>
4

> <PSA>
81.35

> <hb_acceptors>
5

> <hb_donors>
0

> <Collection>
Premium

> <link>
https://www.enaminestore.com/catalog/Z2648736318

> <ROCS_ShapeQuery>
x0446_0A_x1080_0A_x0929_0A_x0812_0A_x0719_0A_x1140_0A_x0528_0A_x0310_0A

> <ROCS_TanimotoCombo>
0.455 

> <ROCS_ShapeTanimoto>
0.240 

> <ROCS_ColorTanimoto>
0.215 

> <ROCS_RefTversky>
0.223 

> <ROCS_RefColorTversky>
0.256 

> <ROCS_RefTverskyCombo>
0.480 

> <ROCS_FitTversky>
1.455 

> <ROCS_FitColorTversky>
0.571 

> <ROCS_FitTverskyCombo>
2.027 

> <ROCS_ColorScore>
-9.247

> <ROCS_Overlap>
2642.810

> <ROCS_Rank>
457                 

$$$$
untitled-dbase-295241_6
  -OEChem-02092406493D

 60 64  0     1  0  0  0  0  0999 V2000
    1.9384   12.7058   18.8162 C   0  0  0  0  0  0  0  0  0  0  0  0
    2.2056   11.6660   17.9271 C   0  0  0  0  0  0  0  0  0  0  0  0
    4.3409   11.2898   18.9991 C   0  0  0  0  0  0  0  0  0  0  0  0
    2.8798   13.0328   19.7965 C   0  0  0  0  0  0  0  0  0  0  0  0
    4.0899   12.3304   19.8998 C   0  0  0  0  0  0  0  0  0  0  0  0
    3.4040   10.9592   18.0179 C   0  0  0  0  0  0  0  0  0  0  0  0
    2.6173   14.1323   20.7504 C   0  0  0  0  0  0  0  0  0  0  0  0
    4.7951   13.6040   21.6951 C   0  0  0  0  0  0  0  0  0  0  0  0
    8.1736   14.2867   22.1610 C   0  0  0  0  0  0  0  0  0  0  0  0
    7.6377   11.8556   22.2657 C   0  0  0  0  0  0  0  0  0  0  0  0
    9.4140   10.2271   22.9571 C   0  0  0  0  0  0  0  0  0  0  0  0
    7.4864   10.7057   24.4889 C   0  0  0  0  0  0  0  0  0  0  0  0
    9.9370   12.6828   22.8446 C   0  0  0  0  0  0  0  0  0  0  0  0
    8.0072   13.1614   24.3791 C   0  0  0  0  0  0  0  0  0  0  0  0
    9.7878   11.5299   25.0732 C   0  0  0  0  0  0  0  0  0  0  0  0
    7.9111   10.5453   23.0202 C   0  0  0  0  0  0  0  0  0  0  0  0
    8.4327   13.0081   22.9063 C   0  0  0  0  0  0  0  0  0  0  0  0
   10.2352   11.3677   23.6012 C   0  0  1  0  0  0  0  0  0  0  0  0
    8.2772   11.8532   25.1575 C   0  0  2  0  0  0  0  0  0  0  0  0
   11.7310   11.0458   23.5346 C   0  0  0  0  0  0  0  0  0  0  0  0
    7.8496   12.0091   26.6198 C   0  0  0  0  0  0  0  0  0  0  0  0
    6.5148   17.1281   22.3413 C   0  0  0  0  0  0  0  0  0  0  0  0
    5.7630   13.9962   22.7531 C   0  0  0  0  0  0  0  0  0  0  0  0
    6.4587   15.9535   21.4250 C   0  0  0  0  0  0  0  0  0  0  0  0
    5.0573   12.6356   20.8756 N   0  0  0  0  0  0  0  0  0  0  0  0
    3.6336   14.3478   21.6670 N   0  0  0  0  0  0  0  0  0  0  0  0
    6.8504   14.7273   22.1153 N   0  0  0  0  0  0  0  0  0  0  0  0
    1.5787   14.7813   20.7089 O   0  0  0  0  0  0  0  0  0  0  0  0
    9.1194   14.8782   21.6337 O   0  0  0  0  0  0  0  0  0  0  0  0
    3.7295    9.6775   16.9158 Cl  0  0  0  0  0  0  0  0  0  0  0  0
    0.9996   13.2459   18.7323 H   0  0  0  0  0  0  0  0  0  0  0  0
    1.4693   11.4168   17.1671 H   0  0  0  0  0  0  0  0  0  0  0  0
    5.2758   10.7371   19.0674 H   0  0  0  0  0  0  0  0  0  0  0  0
    7.9123   11.7406   21.2088 H   0  0  0  0  0  0  0  0  0  0  0  0
    6.5628   12.0793   22.2800 H   0  0  0  0  0  0  0  0  0  0  0  0
    9.6118    9.2787   23.4731 H   0  0  0  0  0  0  0  0  0  0  0  0
    9.7168   10.0854   21.9115 H   0  0  0  0  0  0  0  0  0  0  0  0
    6.4086   10.9074   24.5405 H   0  0  0  0  0  0  0  0  0  0  0  0
    7.6562    9.7640   25.0265 H   0  0  0  0  0  0  0  0  0  0  0  0
   10.2613   12.5993   21.7981 H   0  0  0  0  0  0  0  0  0  0  0  0
   10.5190   13.5087   23.2764 H   0  0  0  0  0  0  0  0  0  0  0  0
    8.5500   13.9957   24.8444 H   0  0  0  0  0  0  0  0  0  0  0  0
    6.9419   13.4242   24.4364 H   0  0  0  0  0  0  0  0  0  0  0  0
   10.0041   10.6096   25.6325 H   0  0  0  0  0  0  0  0  0  0  0  0
   10.3679   12.3294   25.5536 H   0  0  0  0  0  0  0  0  0  0  0  0
    7.3426    9.7296   22.5596 H   0  0  0  0  0  0  0  0  0  0  0  0
   12.2988   11.8537   23.9899 H   0  0  0  0  0  0  0  0  0  0  0  0
   12.0342   10.9335   22.4964 H   0  0  0  0  0  0  0  0  0  0  0  0
   11.9293   10.1202   24.0698 H   0  0  0  0  0  0  0  0  0  0  0  0
    8.4116   12.8182   27.0801 H   0  0  0  0  0  0  0  0  0  0  0  0
    8.0444   11.0843   27.1574 H   0  0  0  0  0  0  0  0  0  0  0  0
    6.7872   12.2362   26.6671 H   0  0  0  0  0  0  0  0  0  0  0  0
    7.5397   17.2476   22.7227 H   0  0  0  0  0  0  0  0  0  0  0  0
    6.2196   18.0350   21.7933 H   0  0  0  0  0  0  0  0  0  0  0  0
    5.8263   16.9687   23.1843 H   0  0  0  0  0  0  0  0  0  0  0  0
    6.1447   13.0971   23.2431 H   0  0  0  0  0  0  0  0  0  0  0  0
    5.2577   14.6289   23.4871 H   0  0  0  0  0  0  0  0  0  0  0  0
    5.4314   15.8409   21.0482 H   0  0  0  0  0  0  0  0  0  0  0  0
    7.1424   16.1241   20.5803 H   0  0  0  0  0  0  0  0  0  0  0  0
    3.5179   15.0897   22.3516 H   0  0  0  0  0  0  0  0  0  0  0  0
  1  2  2  0  0  0  0
  1  4  1  0  0  0  0
  2  6  1  0  0  0  0
  3  5  1  0  0  0  0
  3  6  2  0  0  0  0
  4  5  2  0  0  0  0
  4  7  1  0  0  0  0
  5 25  1  0  0  0  0
  6 30  1  0  0  0  0
  7 26  1  0  0  0  0
  7 28  2  0  0  0  0
  8 23  1  0  0  0  0
  8 25  2  0  0  0  0
  8 26  1  0  0  0  0
  9 17  1  0  0  0  0
  9 27  1  0  0  0  0
  9 29  2  0  0  0  0
 10 16  1  0  0  0  0
 10 17  1  0  0  0  0
 11 16  1  0  0  0  0
 11 18  1  0  0  0  0
 12 16  1  0  0  0  0
 12 19  1  0  0  0  0
 13 17  1  0  0  0  0
 13 18  1  0  0  0  0
 14 17  1  0  0  0  0
 14 19  1  0  0  0  0
 15 18  1  0  0  0  0
 15 19  1  0  0  0  0
 18 20  1  0  0  0  0
 19 21  1  0  0  0  0
 22 24  1  0  0  0  0
 23 27  1  0  0  0  0
 24 27  1  0  0  0  0
  1 31  1  0  0  0  0
  2 32  1  0  0  0  0
  3 33  1  0  0  0  0
 10 34  1  0  0  0  0
 10 35  1  0  0  0  0
 11 36  1  0  0  0  0
 11 37  1  0  0  0  0
 12 38  1  0  0  0  0
 12 39  1  0  0  0  0
 13 40  1  0  0  0  0
 13 41  1  0  0  0  0
 14 42  1  0  0  0  0
 14 43  1  0  0  0  0
 15 44  1  0  0  0  0
 15 45  1  0  0  0  0
 16 46  1  0  0  0  0
 20 47  1  0  0  0  0
 20 48  1  0  0  0  0
 20 49  1  0  0  0  0
 21 50  1  0  0  0  0
 21 51  1  0  0  0  0
 21 52  1  0  0  0  0
 22 53  1  0  0  0  0
 22 54  1  0  0  0  0
 22 55  1  0  0  0  0
 23 56  1  0  0  0  0
 23 57  1  0  0  0  0
 24 58  1  0  0  0  0
 24 59  1  0  0  0  0
 26 60  1  0  0  0  0
M  END
> <idnumber>
Z28495333

> <heavy_atoms>
30

> <LogS>
-6.774

> <LogP>
4.126

> <rotating_bonds>
4

> <PSA>
61.77

> <hb_acceptors>
3

> <hb_donors>
1

> <Collection>
Advanced

> <link>
https://www.enaminestore.com/catalog/Z28495333

> <ROCS_ShapeQuery>
x0446_0A_x1080_0A_x0929_0A_x0812_0A_x0719_0A_x1140_0A_x0528_0A_x0310_0A

> <ROCS_TanimotoCombo>
0.455 

> <ROCS_ShapeTanimoto>
0.260 

> <ROCS_ColorTanimoto>
0.195 

> <ROCS_RefTversky>
0.240 

> <ROCS_RefColorTversky>
0.225 

> <ROCS_RefTverskyCombo>
0.465 

> <ROCS_FitTversky>
1.474 

> <ROCS_FitColorTversky>
0.591 

> <ROCS_FitTverskyCombo>
2.065 

> <ROCS_ColorScore>
-8.093

> <ROCS_Overlap>
2843.321

> <ROCS_Rank>
458                 

$$$$
untitled-dbase-880705_70
  -OEChem-02092406493D

 48 50  0     0  0  0  0  0  0999 V2000
    6.1082   11.1525   25.1480 C   0  0  0  0  0  0  0  0  0  0  0  0
    7.2799   11.0112   24.3928 C   0  0  0  0  0  0  0  0  0  0  0  0
    7.9310   12.2147   24.5120 C   0  0  0  0  0  0  0  0  0  0  0  0
    7.8773    9.9706   23.6008 C   0  0  0  0  0  0  0  0  0  0  0  0
    9.6779   11.6659   23.2440 C   0  0  0  0  0  0  0  0  0  0  0  0
   10.9212   14.8043   21.6095 C   0  0  0  0  0  0  0  0  0  0  0  0
   13.3915   14.5397   21.9829 C   0  0  0  0  0  0  0  0  0  0  0  0
   10.9518   15.9018   22.6687 C   0  0  0  0  0  0  0  0  0  0  0  0
   13.2807   15.6516   23.0213 C   0  0  0  0  0  0  0  0  0  0  0  0
   12.0614   13.7797   21.7917 C   0  0  0  0  0  0  0  0  0  0  0  0
    7.5002   15.2643   24.4909 C   0  0  0  0  0  0  0  0  0  0  0  0
    8.7042   14.4075   26.5394 C   0  0  0  0  0  0  0  0  0  0  0  0
    6.2796   14.9389   26.6303 C   0  0  0  0  0  0  0  0  0  0  0  0
   11.7807   12.8688   23.0025 C   0  0  0  0  0  0  0  0  0  0  0  0
   12.1557   12.8899   20.5395 C   0  0  0  0  0  0  0  0  0  0  0  0
    7.3905   14.3461   25.7285 C   0  0  0  0  0  0  0  0  0  0  0  0
    6.0154   12.3636   25.7115 N   0  0  0  0  0  0  0  0  0  0  0  0
    9.1104   12.6007   23.9737 N   0  0  0  0  0  0  0  0  0  0  0  0
    7.1406   12.9880   25.3068 N   0  0  0  0  0  0  0  0  0  0  0  0
    9.0968   10.3918   23.0538 N   0  0  0  0  0  0  0  0  0  0  0  0
   10.8546   11.8595   22.6272 N   0  0  0  0  0  0  0  0  0  0  0  0
    7.3741    8.8660   23.4359 O   0  0  0  0  0  0  0  0  0  0  0  0
   12.2225   16.5488   22.6910 O   0  0  0  0  0  0  0  0  0  0  0  0
   12.3878   13.6972   19.4833 F   0  0  0  0  0  0  0  0  0  0  0  0
    5.3169   10.4364   25.3168 H   0  0  0  0  0  0  0  0  0  0  0  0
    9.9602   14.2796   21.6966 H   0  0  0  0  0  0  0  0  0  0  0  0
   10.9521   15.2505   20.6084 H   0  0  0  0  0  0  0  0  0  0  0  0
   13.7475   14.9512   21.0312 H   0  0  0  0  0  0  0  0  0  0  0  0
   14.1544   13.8300   22.3304 H   0  0  0  0  0  0  0  0  0  0  0  0
   10.1631   16.6460   22.5123 H   0  0  0  0  0  0  0  0  0  0  0  0
   10.7883   15.4615   23.6578 H   0  0  0  0  0  0  0  0  0  0  0  0
   13.0520   15.2178   24.0002 H   0  0  0  0  0  0  0  0  0  0  0  0
   14.2169   16.2105   23.1265 H   0  0  0  0  0  0  0  0  0  0  0  0
    6.5793   15.2390   23.8970 H   0  0  0  0  0  0  0  0  0  0  0  0
    7.6750   16.3103   24.7644 H   0  0  0  0  0  0  0  0  0  0  0  0
    8.3265   14.9513   23.8420 H   0  0  0  0  0  0  0  0  0  0  0  0
    8.6730   13.7700   27.4293 H   0  0  0  0  0  0  0  0  0  0  0  0
    9.5567   14.0729   25.9370 H   0  0  0  0  0  0  0  0  0  0  0  0
    8.9112   15.4305   26.8744 H   0  0  0  0  0  0  0  0  0  0  0  0
    6.1436   14.3353   27.5358 H   0  0  0  0  0  0  0  0  0  0  0  0
    6.5249   15.9558   26.9581 H   0  0  0  0  0  0  0  0  0  0  0  0
    5.3125   14.9656   26.1150 H   0  0  0  0  0  0  0  0  0  0  0  0
   12.7327   12.4372   23.2943 H   0  0  0  0  0  0  0  0  0  0  0  0
   11.3724   13.5042   23.7818 H   0  0  0  0  0  0  0  0  0  0  0  0
   11.2210   12.3639   20.3932 H   0  0  0  0  0  0  0  0  0  0  0  0
   12.9766   12.1925   20.6478 H   0  0  0  0  0  0  0  0  0  0  0  0
    9.6030    9.7280   22.4747 H   0  0  0  0  0  0  0  0  0  0  0  0
   11.0600   11.2198   21.8439 H   0  0  0  0  0  0  0  0  0  0  0  0
  1  2  1  0  0  0  0
  1 17  2  0  0  0  0
  2  3  2  0  0  0  0
  2  4  1  0  0  0  0
  3 18  1  0  0  0  0
  3 19  1  0  0  0  0
  4 20  1  0  0  0  0
  4 22  2  0  0  0  0
  5 18  2  0  0  0  0
  5 20  1  0  0  0  0
  5 21  1  0  0  0  0
  6  8  1  0  0  0  0
  6 10  1  0  0  0  0
  7  9  1  0  0  0  0
  7 10  1  0  0  0  0
  8 23  1  0  0  0  0
  9 23  1  0  0  0  0
 10 14  1  0  0  0  0
 10 15  1  0  0  0  0
 11 16  1  0  0  0  0
 12 16  1  0  0  0  0
 13 16  1  0  0  0  0
 14 21  1  0  0  0  0
 15 24  1  0  0  0  0
 16 19  1  0  0  0  0
 17 19  1  0  0  0  0
  1 25  1  0  0  0  0
  6 26  1  0  0  0  0
  6 27  1  0  0  0  0
  7 28  1  0  0  0  0
  7 29  1  0  0  0  0
  8 30  1  0  0  0  0
  8 31  1  0  0  0  0
  9 32  1  0  0  0  0
  9 33  1  0  0  0  0
 11 34  1  0  0  0  0
 11 35  1  0  0  0  0
 11 36  1  0  0  0  0
 12 37  1  0  0  0  0
 12 38  1  0  0  0  0
 12 39  1  0  0  0  0
 13 40  1  0  0  0  0
 13 41  1  0  0  0  0
 13 42  1  0  0  0  0
 14 43  1  0  0  0  0
 14 44  1  0  0  0  0
 15 45  1  0  0  0  0
 15 46  1  0  0  0  0
 20 47  1  0  0  0  0
 21 48  1  0  0  0  0
M  END
> <idnumber>
Z2273755430

> <heavy_atoms>
24

> <LogS>
-2.612

> <LogP>
0.853

> <rotating_bonds>
5

> <PSA>
80.54

> <hb_acceptors>
5

> <hb_donors>
2

> <Collection>
HTS

> <link>
https://www.enaminestore.com/catalog/Z2273755430

> <ROCS_ShapeQuery>
x0446_0A_x1080_0A_x0929_0A_x0812_0A_x0719_0A_x1140_0A_x0528_0A_x0310_0A

> <ROCS_TanimotoCombo>
0.455 

> <ROCS_ShapeTanimoto>
0.244 

> <ROCS_ColorTanimoto>
0.211 

> <ROCS_RefTversky>
0.224 

> <ROCS_RefColorTversky>
0.230 

> <ROCS_RefTverskyCombo>
0.453 

> <ROCS_FitTversky>
1.594 

> <ROCS_FitColorTversky>
0.723 

> <ROCS_FitTverskyCombo>
2.316 

> <ROCS_ColorScore>
-8.234

> <ROCS_Overlap>
2643.150

> <ROCS_Rank>
459                 

$$$$
untitled-dbase-1136048_22
  -OEChem-02092406493D

 44 47  0     1  0  0  0  0  0999 V2000
   11.5242    8.5492   21.2162 C   0  0  0  0  0  0  0  0  0  0  0  0
   10.3985    9.1554   21.7739 C   0  0  0  0  0  0  0  0  0  0  0  0
   12.7765    8.7297   21.8034 C   0  0  0  0  0  0  0  0  0  0  0  0
   11.7775   10.1227   23.5059 C   0  0  0  0  0  0  0  0  0  0  0  0
   10.5251    9.9422   22.9187 C   0  0  0  0  0  0  0  0  0  0  0  0
    7.4568   10.9110   24.3981 C   0  0  0  0  0  0  0  0  0  0  0  0
   12.9032    9.5165   22.9482 C   0  0  0  0  0  0  0  0  0  0  0  0
    8.0213   12.1634   24.2159 C   0  0  0  0  0  0  0  0  0  0  0  0
    6.1936   10.8691   24.9799 C   0  0  0  0  0  0  0  0  0  0  0  0
    9.3582   10.5703   23.4973 C   0  0  0  0  0  0  0  0  0  0  0  0
    6.2651   13.1818   25.0933 C   0  0  0  0  0  0  0  0  0  0  0  0
    9.3567   14.8552   22.1140 C   0  0  1  0  0  0  0  0  0  0  0  0
    9.9910   13.5038   21.8439 C   0  0  2  0  0  0  0  0  0  0  0  0
   10.0179   15.2672   23.4179 C   0  0  1  0  0  0  0  0  0  0  0  0
   10.2136   12.9458   23.2507 C   0  0  2  0  0  0  0  0  0  0  0  0
    9.2142   16.2833   24.2094 C   0  0  0  0  0  0  0  0  0  0  0  0
    8.3004    9.9275   23.9462 N   0  0  0  0  0  0  0  0  0  0  0  0
    7.4855   13.3500   24.5389 N   0  0  0  0  0  0  0  0  0  0  0  0
    5.5917   12.0306   25.3320 N   0  0  0  0  0  0  0  0  0  0  0  0
    9.2366   11.9271   23.6392 N   0  0  0  0  0  0  0  0  0  0  0  0
    5.5994   14.3684   25.4770 N   0  0  0  0  0  0  0  0  0  0  0  0
   10.1473   14.0528   24.1750 O   0  0  0  0  0  0  0  0  0  0  0  0
   14.1253    9.6923   23.5207 O   0  0  0  0  0  0  0  0  0  0  0  0
    5.5287    9.6921   25.2117 O   0  0  0  0  0  0  0  0  0  0  0  0
    9.5779   15.7960   21.0853 O   0  0  0  0  0  0  0  0  0  0  0  0
   11.2509   13.6460   21.1900 O   0  0  0  0  0  0  0  0  0  0  0  0
    7.8410   15.9471   24.1167 O   0  0  0  0  0  0  0  0  0  0  0  0
   11.4261    7.9366   20.3248 H   0  0  0  0  0  0  0  0  0  0  0  0
    9.4291    9.0057   21.3046 H   0  0  0  0  0  0  0  0  0  0  0  0
   13.6498    8.2550   21.3641 H   0  0  0  0  0  0  0  0  0  0  0  0
   11.8873   10.7350   24.3988 H   0  0  0  0  0  0  0  0  0  0  0  0
    8.2282   14.7566   22.2185 H   0  0  0  0  0  0  0  0  0  0  0  0
    9.3535   12.8743   21.2482 H   0  0  0  0  0  0  0  0  0  0  0  0
   11.0379   15.6553   23.2448 H   0  0  0  0  0  0  0  0  0  0  0  0
   11.2115   12.4515   23.3538 H   0  0  0  0  0  0  0  0  0  0  0  0
    9.3669   17.2831   23.8001 H   0  0  0  0  0  0  0  0  0  0  0  0
    9.5173   16.2671   25.2574 H   0  0  0  0  0  0  0  0  0  0  0  0
    6.0674   15.2435   25.3684 H   0  0  0  0  0  0  0  0  0  0  0  0
    4.7147   14.3010   25.9349 H   0  0  0  0  0  0  0  0  0  0  0  0
   14.0513   10.2607   24.3039 H   0  0  0  0  0  0  0  0  0  0  0  0
    4.6719    9.8768   25.6201 H   0  0  0  0  0  0  0  0  0  0  0  0
    9.1337   16.6120   21.3607 H   0  0  0  0  0  0  0  0  0  0  0  0
   11.6037   12.7505   21.0457 H   0  0  0  0  0  0  0  0  0  0  0  0
    7.3502   16.6108   24.6302 H   0  0  0  0  0  0  0  0  0  0  0  0
  1  2  2  0  0  0  0
  1  3  1  0  0  0  0
  2  5  1  0  0  0  0
  3  7  2  0  0  0  0
  4  5  2  0  0  0  0
  4  7  1  0  0  0  0
  5 10  1  0  0  0  0
  6  8  2  0  0  0  0
  6  9  1  0  0  0  0
  6 17  1  0  0  0  0
  7 23  1  0  0  0  0
  8 18  1  0  0  0  0
  8 20  1  0  0  0  0
  9 19  2  0  0  0  0
  9 24  1  0  0  0  0
 10 17  2  0  0  0  0
 10 20  1  0  0  0  0
 11 18  2  0  0  0  0
 11 19  1  0  0  0  0
 11 21  1  0  0  0  0
 12 13  1  0  0  0  0
 12 14  1  0  0  0  0
 12 25  1  1  0  0  0
 13 15  1  0  0  0  0
 13 26  1  1  0  0  0
 14 16  1  6  0  0  0
 14 22  1  0  0  0  0
 15 20  1  6  0  0  0
 15 22  1  0  0  0  0
 16 27  1  0  0  0  0
  1 28  1  0  0  0  0
  2 29  1  0  0  0  0
  3 30  1  0  0  0  0
  4 31  1  0  0  0  0
 12 32  1  0  0  0  0
 13 33  1  0  0  0  0
 14 34  1  0  0  0  0
 15 35  1  0  0  0  0
 16 36  1  0  0  0  0
 16 37  1  0  0  0  0
 21 38  1  0  0  0  0
 21 39  1  0  0  0  0
 23 40  1  0  0  0  0
 24 41  1  0  0  0  0
 25 42  1  0  0  0  0
 26 43  1  0  0  0  0
 27 44  1  0  0  0  0
M  END
> <idnumber>
Z6214442002

> <heavy_atoms>
27

> <LogS>
-2.995

> <LogP>
0.173

> <rotating_bonds>
3

> <PSA>
180

> <hb_acceptors>
10

> <hb_donors>
6

> <Collection>
Advanced

> <link>
https://www.enaminestore.com/catalog/Z6214442002

> <ROCS_ShapeQuery>
x0446_0A_x1080_0A_x0929_0A_x0812_0A_x0719_0A_x1140_0A_x0528_0A_x0310_0A

> <ROCS_TanimotoCombo>
0.455 

> <ROCS_ShapeTanimoto>
0.271 

> <ROCS_ColorTanimoto>
0.184 

> <ROCS_RefTversky>
0.246 

> <ROCS_RefColorTversky>
0.249 

> <ROCS_RefTverskyCombo>
0.495 

> <ROCS_FitTversky>
1.597 

> <ROCS_FitColorTversky>
0.414 

> <ROCS_FitTverskyCombo>
2.010 

> <ROCS_ColorScore>
-9.047

> <ROCS_Overlap>
2912.731

> <ROCS_Rank>
460                 

$$$$
untitled-dbase-1071141_62
  -OEChem-02092406493D

 54 57  0     1  0  0  0  0  0999 V2000
    6.9705   14.1016   21.1396 C   0  0  0  0  0  0  0  0  0  0  0  0
    8.3078   14.4272   21.1707 C   0  0  0  0  0  0  0  0  0  0  0  0
    8.0840   12.3459   24.2905 C   0  0  0  0  0  0  0  0  0  0  0  0
    9.3633   12.2353   23.8100 C   0  0  0  0  0  0  0  0  0  0  0  0
    8.3213   15.8488   21.1926 C   0  0  0  0  0  0  0  0  0  0  0  0
    7.5998   11.0210   24.3389 C   0  0  0  0  0  0  0  0  0  0  0  0
   10.3529   13.2889   23.5592 C   0  0  0  0  0  0  0  0  0  0  0  0
    7.2558   13.4979   24.7141 C   0  0  0  0  0  0  0  0  0  0  0  0
    9.4785   13.5157   21.1814 C   0  0  0  0  0  0  0  0  0  0  0  0
    9.5168   16.7373   21.2125 C   0  0  0  0  0  0  0  0  0  0  0  0
   10.5332   16.3793   22.3011 C   0  0  0  0  0  0  0  0  0  0  0  0
   11.2492   15.0425   22.0748 C   0  0  0  0  0  0  0  0  0  0  0  0
    6.2126   10.7016   24.7811 C   0  0  1  0  0  0  0  0  0  0  0  0
    5.7673   13.0776   24.7089 C   0  0  2  0  0  0  0  0  0  0  0  0
    6.1517    9.5446   25.7704 C   0  0  0  0  0  0  0  0  0  0  0  0
    4.9024   14.1346   25.3808 C   0  0  0  0  0  0  0  0  0  0  0  0
   13.6289   10.7221   22.2626 C   0  0  0  0  0  0  0  0  0  0  0  0
   10.7541   10.2706   23.0855 C   0  0  0  0  0  0  0  0  0  0  0  0
   11.9813   10.5799   23.9323 C   0  0  0  0  0  0  0  0  0  0  0  0
    7.0865   16.3658   21.1797 N   0  0  0  0  0  0  0  0  0  0  0  0
    8.4916   10.1306   23.8992 N   0  0  0  0  0  0  0  0  0  0  0  0
    6.2939   15.2835   21.1506 N   0  0  0  0  0  0  0  0  0  0  0  0
    9.5571   10.8986   23.5955 N   0  0  0  0  0  0  0  0  0  0  0  0
   10.3735   13.8846   22.2903 N   0  0  0  0  0  0  0  0  0  0  0  0
   11.0887   13.5783   24.5013 O   0  0  0  0  0  0  0  0  0  0  0  0
    5.5943   11.8411   25.4333 O   0  0  0  0  0  0  0  0  0  0  0  0
   13.1275    9.9666   23.3567 O   0  0  0  0  0  0  0  0  0  0  0  0
    6.4538   13.1527   21.1167 H   0  0  0  0  0  0  0  0  0  0  0  0
    7.5615   13.7840   25.7281 H   0  0  0  0  0  0  0  0  0  0  0  0
    7.4079   14.3602   24.0561 H   0  0  0  0  0  0  0  0  0  0  0  0
    9.1569   12.4743   21.2778 H   0  0  0  0  0  0  0  0  0  0  0  0
   10.0360   13.5933   20.2412 H   0  0  0  0  0  0  0  0  0  0  0  0
   10.0012   16.7063   20.2288 H   0  0  0  0  0  0  0  0  0  0  0  0
    9.1989   17.7761   21.3697 H   0  0  0  0  0  0  0  0  0  0  0  0
   11.2967   17.1673   22.3195 H   0  0  0  0  0  0  0  0  0  0  0  0
   10.0556   16.3867   23.2889 H   0  0  0  0  0  0  0  0  0  0  0  0
   11.6717   14.9849   21.0651 H   0  0  0  0  0  0  0  0  0  0  0  0
   12.0913   14.9806   22.7736 H   0  0  0  0  0  0  0  0  0  0  0  0
    5.6014   10.4561   23.9040 H   0  0  0  0  0  0  0  0  0  0  0  0
    5.4118   12.9301   23.6803 H   0  0  0  0  0  0  0  0  0  0  0  0
    6.7549    9.7731   26.6492 H   0  0  0  0  0  0  0  0  0  0  0  0
    6.5343    8.6359   25.3055 H   0  0  0  0  0  0  0  0  0  0  0  0
    5.1212    9.3752   26.0831 H   0  0  0  0  0  0  0  0  0  0  0  0
    5.2386   14.2974   26.4055 H   0  0  0  0  0  0  0  0  0  0  0  0
    3.8614   13.8103   25.3988 H   0  0  0  0  0  0  0  0  0  0  0  0
    4.9692   15.0759   24.8341 H   0  0  0  0  0  0  0  0  0  0  0  0
   14.5070   10.2226   21.8459 H   0  0  0  0  0  0  0  0  0  0  0  0
   13.8948   11.7259   22.6032 H   0  0  0  0  0  0  0  0  0  0  0  0
   12.8545   10.7931   21.4951 H   0  0  0  0  0  0  0  0  0  0  0  0
   10.5670    9.1914   23.0394 H   0  0  0  0  0  0  0  0  0  0  0  0
   10.8948   10.6314   22.0601 H   0  0  0  0  0  0  0  0  0  0  0  0
   12.1541   11.6605   23.9531 H   0  0  0  0  0  0  0  0  0  0  0  0
   11.8685   10.2199   24.9601 H   0  0  0  0  0  0  0  0  0  0  0  0
    5.2916   15.4244   21.1363 H   0  0  0  0  0  0  0  0  0  0  0  0
  1  2  2  0  0  0  0
  1 22  1  0  0  0  0
  2  5  1  0  0  0  0
  2  9  1  0  0  0  0
  3  4  2  0  0  0  0
  3  6  1  0  0  0  0
  3  8  1  0  0  0  0
  4  7  1  0  0  0  0
  4 23  1  0  0  0  0
  5 10  1  0  0  0  0
  5 20  2  0  0  0  0
  6 13  1  0  0  0  0
  6 21  2  0  0  0  0
  7 24  1  0  0  0  0
  7 25  2  0  0  0  0
  8 14  1  0  0  0  0
  9 24  1  0  0  0  0
 10 11  1  0  0  0  0
 11 12  1  0  0  0  0
 12 24  1  0  0  0  0
 13 15  1  1  0  0  0
 13 26  1  0  0  0  0
 14 16  1  1  0  0  0
 14 26  1  0  0  0  0
 17 27  1  0  0  0  0
 18 19  1  0  0  0  0
 18 23  1  0  0  0  0
 19 27  1  0  0  0  0
 20 22  1  0  0  0  0
 21 23  1  0  0  0  0
  1 28  1  0  0  0  0
  8 29  1  0  0  0  0
  8 30  1  0  0  0  0
  9 31  1  0  0  0  0
  9 32  1  0  0  0  0
 10 33  1  0  0  0  0
 10 34  1  0  0  0  0
 11 35  1  0  0  0  0
 11 36  1  0  0  0  0
 12 37  1  0  0  0  0
 12 38  1  0  0  0  0
 13 39  1  0  0  0  0
 14 40  1  0  0  0  0
 15 41  1  0  0  0  0
 15 42  1  0  0  0  0
 15 43  1  0  0  0  0
 16 44  1  0  0  0  0
 16 45  1  0  0  0  0
 16 46  1  0  0  0  0
 17 47  1  0  0  0  0
 17 48  1  0  0  0  0
 17 49  1  0  0  0  0
 18 50  1  0  0  0  0
 18 51  1  0  0  0  0
 19 52  1  0  0  0  0
 19 53  1  0  0  0  0
 22 54  1  0  0  0  0
M  END
> <idnumber>
Z4107138575

> <heavy_atoms>
27

> <LogS>
-1.786

> <LogP>
0.108

> <rotating_bonds>
4

> <PSA>
85.27

> <hb_acceptors>
5

> <hb_donors>
1

> <Collection>
HTS

> <link>
https://www.enaminestore.com/catalog/Z4107138575

> <ROCS_ShapeQuery>
x0446_0A_x1080_0A_x0929_0A_x0812_0A_x0719_0A_x1140_0A_x0528_0A_x0310_0A

> <ROCS_TanimotoCombo>
0.455 

> <ROCS_ShapeTanimoto>
0.280 

> <ROCS_ColorTanimoto>
0.175 

> <ROCS_RefTversky>
0.252 

> <ROCS_RefColorTversky>
0.196 

> <ROCS_RefTverskyCombo>
0.448 

> <ROCS_FitTversky>
1.664 

> <ROCS_FitColorTversky>
0.617 

> <ROCS_FitTverskyCombo>
2.282 

> <ROCS_ColorScore>
-7.029

> <ROCS_Overlap>
2980.202

> <ROCS_Rank>
461                 

$$$$
untitled-dbase-737465_16
  -OEChem-02092406493D

 54 59  0     0  0  0  0  0  0999 V2000
   12.8451   16.3004   22.3887 C   0  0  0  0  0  0  0  0  0  0  0  0
   12.9436   15.1699   23.2032 C   0  0  0  0  0  0  0  0  0  0  0  0
   11.6854   16.5554   21.6459 C   0  0  0  0  0  0  0  0  0  0  0  0
   11.8904   14.2551   23.3057 C   0  0  0  0  0  0  0  0  0  0  0  0
   10.6176   15.6467   21.7367 C   0  0  0  0  0  0  0  0  0  0  0  0
   10.7455   14.5293   22.5570 C   0  0  0  0  0  0  0  0  0  0  0  0
    8.7752   14.5832   21.5521 C   0  0  0  0  0  0  0  0  0  0  0  0
    3.7824   12.7679   19.9708 C   0  0  0  0  0  0  0  0  0  0  0  0
    2.4525   14.1287   21.1608 C   0  0  0  0  0  0  0  0  0  0  0  0
    4.6830   14.3165   21.3228 C   0  0  0  0  0  0  0  0  0  0  0  0
    8.6761   11.0423   25.5362 C   0  0  0  0  0  0  0  0  0  0  0  0
    9.6541    9.7308   23.6373 C   0  0  0  0  0  0  0  0  0  0  0  0
    7.2428   10.4136   23.5786 C   0  0  0  0  0  0  0  0  0  0  0  0
   10.3361   12.1182   23.9936 C   0  0  0  0  0  0  0  0  0  0  0  0
    7.8973   12.8086   23.9333 C   0  0  0  0  0  0  0  0  0  0  0  0
    8.8921   11.5032   22.0391 C   0  0  0  0  0  0  0  0  0  0  0  0
    9.9405   10.8064   24.6938 C   0  0  0  0  0  0  0  0  0  0  0  0
    7.5151   11.4933   24.6347 C   0  0  0  0  0  0  0  0  0  0  0  0
    8.5020   10.1858   22.7312 C   0  0  0  0  0  0  0  0  0  0  0  0
    9.1875   12.6363   23.0761 C   0  0  0  0  0  0  0  0  0  0  0  0
    7.4148   14.1488   21.1738 C   0  0  0  0  0  0  0  0  0  0  0  0
    9.3871   15.6633   21.1209 N   0  0  0  0  0  0  0  0  0  0  0  0
    2.5233   13.1190   20.2786 N   0  0  0  0  0  0  0  0  0  0  0  0
    4.9082   13.3198   20.4517 N   0  0  0  0  0  0  0  0  0  0  0  0
    3.4862   14.7745   21.7240 N   0  0  0  0  0  0  0  0  0  0  0  0
    9.5525   13.8672   22.4195 N   0  0  0  0  0  0  0  0  0  0  0  0
    3.9387   11.7109   19.0478 N   0  0  0  0  0  0  0  0  0  0  0  0
    1.1596   14.5556   21.5343 N   0  0  0  0  0  0  0  0  0  0  0  0
    6.1050   15.1044   22.0098 S   0  0  0  0  0  0  0  0  0  0  0  0
   13.6800   16.9939   22.3308 H   0  0  0  0  0  0  0  0  0  0  0  0
   13.8562   14.9968   23.7685 H   0  0  0  0  0  0  0  0  0  0  0  0
   11.6188   17.4370   21.0167 H   0  0  0  0  0  0  0  0  0  0  0  0
   11.9674   13.3783   23.9388 H   0  0  0  0  0  0  0  0  0  0  0  0
    8.4021   10.1203   26.0637 H   0  0  0  0  0  0  0  0  0  0  0  0
    8.8723   11.8011   26.3037 H   0  0  0  0  0  0  0  0  0  0  0  0
   10.5531    9.5445   23.0372 H   0  0  0  0  0  0  0  0  0  0  0  0
    9.3953    8.7837   24.1265 H   0  0  0  0  0  0  0  0  0  0  0  0
    6.9442    9.4777   24.0668 H   0  0  0  0  0  0  0  0  0  0  0  0
    6.4073   10.7181   22.9363 H   0  0  0  0  0  0  0  0  0  0  0  0
   10.5806   12.8791   24.7466 H   0  0  0  0  0  0  0  0  0  0  0  0
   11.2496   11.9656   23.4036 H   0  0  0  0  0  0  0  0  0  0  0  0
    7.0670   13.1508   23.3014 H   0  0  0  0  0  0  0  0  0  0  0  0
    8.0546   13.5942   24.6845 H   0  0  0  0  0  0  0  0  0  0  0  0
    9.7737   11.3414   21.4041 H   0  0  0  0  0  0  0  0  0  0  0  0
    8.0856   11.8194   21.3638 H   0  0  0  0  0  0  0  0  0  0  0  0
   10.7593   10.4760   25.3430 H   0  0  0  0  0  0  0  0  0  0  0  0
    6.6165   11.6494   25.2419 H   0  0  0  0  0  0  0  0  0  0  0  0
    8.3028    9.4178   21.9753 H   0  0  0  0  0  0  0  0  0  0  0  0
    7.2498   14.2340   20.0844 H   0  0  0  0  0  0  0  0  0  0  0  0
    7.2523   13.0815   21.4098 H   0  0  0  0  0  0  0  0  0  0  0  0
    3.1264   11.2424   18.7028 H   0  0  0  0  0  0  0  0  0  0  0  0
    4.8589   11.3888   18.8289 H   0  0  0  0  0  0  0  0  0  0  0  0
    0.3639   14.1328   21.1022 H   0  0  0  0  0  0  0  0  0  0  0  0
    1.0646   15.3352   22.1522 H   0  0  0  0  0  0  0  0  0  0  0  0
  1  2  1  0  0  0  0
  1  3  2  0  0  0  0
  2  4  2  0  0  0  0
  3  5  1  0  0  0  0
  4  6  1  0  0  0  0
  5  6  2  0  0  0  0
  5 22  1  0  0  0  0
  6 26  1  0  0  0  0
  7 21  1  0  0  0  0
  7 22  2  0  0  0  0
  7 26  1  0  0  0  0
  8 23  1  0  0  0  0
  8 24  2  0  0  0  0
  8 27  1  0  0  0  0
  9 23  2  0  0  0  0
  9 25  1  0  0  0  0
  9 28  1  0  0  0  0
 10 24  1  0  0  0  0
 10 25  2  0  0  0  0
 10 29  1  0  0  0  0
 11 17  1  0  0  0  0
 11 18  1  0  0  0  0
 12 17  1  0  0  0  0
 12 19  1  0  0  0  0
 13 18  1  0  0  0  0
 13 19  1  0  0  0  0
 14 17  1  0  0  0  0
 14 20  1  0  0  0  0
 15 18  1  0  0  0  0
 15 20  1  0  0  0  0
 16 19  1  0  0  0  0
 16 20  1  0  0  0  0
 20 26  1  0  0  0  0
 21 29  1  0  0  0  0
  1 30  1  0  0  0  0
  2 31  1  0  0  0  0
  3 32  1  0  0  0  0
  4 33  1  0  0  0  0
 11 34  1  0  0  0  0
 11 35  1  0  0  0  0
 12 36  1  0  0  0  0
 12 37  1  0  0  0  0
 13 38  1  0  0  0  0
 13 39  1  0  0  0  0
 14 40  1  0  0  0  0
 14 41  1  0  0  0  0
 15 42  1  0  0  0  0
 15 43  1  0  0  0  0
 16 44  1  0  0  0  0
 16 45  1  0  0  0  0
 17 46  1  0  0  0  0
 18 47  1  0  0  0  0
 19 48  1  0  0  0  0
 21 49  1  0  0  0  0
 21 50  1  0  0  0  0
 27 51  1  0  0  0  0
 27 52  1  0  0  0  0
 28 53  1  0  0  0  0
 28 54  1  0  0  0  0
M  END
> <idnumber>
Z440994152

> <heavy_atoms>
29

> <LogS>
-6.754

> <LogP>
3.831

> <rotating_bonds>
4

> <PSA>
108.53

> <hb_acceptors>
6

> <hb_donors>
2

> <Collection>
Advanced

> <link>
https://www.enaminestore.com/catalog/Z440994152

> <ROCS_ShapeQuery>
x0446_0A_x1080_0A_x0929_0A_x0812_0A_x0719_0A_x1140_0A_x0528_0A_x0310_0A

> <ROCS_TanimotoCombo>
0.455 

> <ROCS_ShapeTanimoto>
0.282 

> <ROCS_ColorTanimoto>
0.173 

> <ROCS_RefTversky>
0.256 

> <ROCS_RefColorTversky>
0.226 

> <ROCS_RefTverskyCombo>
0.482 

> <ROCS_FitTversky>
1.585 

> <ROCS_FitColorTversky>
0.422 

> <ROCS_FitTverskyCombo>
2.007 

> <ROCS_ColorScore>
-8.209

> <ROCS_Overlap>
3024.733

> <ROCS_Rank>
462                 

$$$$
untitled-dbase-816976_78
  -OEChem-02092406493D

 56 59  0     1  0  0  0  0  0999 V2000
   11.7355   13.9217   22.3405 C   0  0  0  0  0  0  0  0  0  0  0  0
    9.7001   15.1831   22.6614 C   0  0  0  0  0  0  0  0  0  0  0  0
   12.3933   15.0847   21.9404 C   0  0  0  0  0  0  0  0  0  0  0  0
   10.3579   16.3463   22.2613 C   0  0  0  0  0  0  0  0  0  0  0  0
   10.3888   13.9708   22.7010 C   0  0  0  0  0  0  0  0  0  0  0  0
   11.7045   16.2970   21.9008 C   0  0  0  0  0  0  0  0  0  0  0  0
    6.0174   12.0911   24.3307 C   0  0  0  0  0  0  0  0  0  0  0  0
    9.6155    9.7715   23.7993 C   0  0  0  0  0  0  0  0  0  0  0  0
    9.6447   11.5701   22.0556 C   0  0  0  0  0  0  0  0  0  0  0  0
   10.3523   12.0924   24.4044 C   0  0  0  0  0  0  0  0  0  0  0  0
    7.4591   10.6782   22.8962 C   0  0  0  0  0  0  0  0  0  0  0  0
    8.1607   11.2093   25.2469 C   0  0  0  0  0  0  0  0  0  0  0  0
    8.1800   13.0096   23.4941 C   0  0  0  0  0  0  0  0  0  0  0  0
    8.9090   10.3125   22.5486 C   0  0  2  0  0  0  0  0  0  0  0  0
    9.6122   10.8387   24.9025 C   0  0  1  0  0  0  0  0  0  0  0  0
    9.6632   12.6897   23.1420 C   0  0  0  0  0  0  0  0  0  0  0  0
    7.4425   11.7518   23.9968 C   0  0  0  0  0  0  0  0  0  0  0  0
   12.4090   17.5405   21.4745 C   0  0  0  0  0  0  0  0  0  0  0  0
    4.8012   15.3046   23.5682 C   0  0  0  0  0  0  0  0  0  0  0  0
    2.3205   14.9538   23.5456 C   0  0  0  0  0  0  0  0  0  0  0  0
    3.9019   12.9688   23.3628 C   0  0  0  0  0  0  0  0  0  0  0  0
    3.6614   14.4450   23.0138 C   0  0  0  0  0  0  0  0  0  0  0  0
    5.2909   12.5821   23.2627 N   0  0  0  0  0  0  0  0  0  0  0  0
    5.6069   11.9189   25.4724 O   0  0  0  0  0  0  0  0  0  0  0  0
    3.6511   14.5957   21.5923 O   0  0  0  0  0  0  0  0  0  0  0  0
   12.2798   12.9814   22.3678 H   0  0  0  0  0  0  0  0  0  0  0  0
    8.6510   15.2306   22.9417 H   0  0  0  0  0  0  0  0  0  0  0  0
   13.4428   15.0373   21.6628 H   0  0  0  0  0  0  0  0  0  0  0  0
    9.8137   17.2866   22.2331 H   0  0  0  0  0  0  0  0  0  0  0  0
    9.1104    8.8644   24.1529 H   0  0  0  0  0  0  0  0  0  0  0  0
   10.6464    9.4873   23.5550 H   0  0  0  0  0  0  0  0  0  0  0  0
   10.6728   11.3070   21.7719 H   0  0  0  0  0  0  0  0  0  0  0  0
    9.1629   11.9433   21.1416 H   0  0  0  0  0  0  0  0  0  0  0  0
   10.3820   12.8440   25.2049 H   0  0  0  0  0  0  0  0  0  0  0  0
   11.3977   11.8405   24.1808 H   0  0  0  0  0  0  0  0  0  0  0  0
    6.9383   11.0398   21.9997 H   0  0  0  0  0  0  0  0  0  0  0  0
    6.9155    9.7826   23.2255 H   0  0  0  0  0  0  0  0  0  0  0  0
    7.6358   10.3279   25.6384 H   0  0  0  0  0  0  0  0  0  0  0  0
    8.1449   11.9567   26.0510 H   0  0  0  0  0  0  0  0  0  0  0  0
    8.1389   13.7987   24.2585 H   0  0  0  0  0  0  0  0  0  0  0  0
    7.6667   13.4244   22.6148 H   0  0  0  0  0  0  0  0  0  0  0  0
    8.9175    9.5495   21.7621 H   0  0  0  0  0  0  0  0  0  0  0  0
   10.1136   10.4473   25.7948 H   0  0  0  0  0  0  0  0  0  0  0  0
   12.3227   17.6755   20.3894 H   0  0  0  0  0  0  0  0  0  0  0  0
   11.9896   18.4258   21.9697 H   0  0  0  0  0  0  0  0  0  0  0  0
   13.4744   17.5047   21.7370 H   0  0  0  0  0  0  0  0  0  0  0  0
    5.7708   14.9536   23.1968 H   0  0  0  0  0  0  0  0  0  0  0  0
    4.6834   16.3576   23.2921 H   0  0  0  0  0  0  0  0  0  0  0  0
    4.8468   15.2363   24.6612 H   0  0  0  0  0  0  0  0  0  0  0  0
    1.4862   14.3552   23.1636 H   0  0  0  0  0  0  0  0  0  0  0  0
    2.1343   15.9805   23.2093 H   0  0  0  0  0  0  0  0  0  0  0  0
    2.2894   14.9384   24.6399 H   0  0  0  0  0  0  0  0  0  0  0  0
    3.6035   12.7600   24.3960 H   0  0  0  0  0  0  0  0  0  0  0  0
    3.3333   12.3099   22.6979 H   0  0  0  0  0  0  0  0  0  0  0  0
    5.7552   12.6757   22.3643 H   0  0  0  0  0  0  0  0  0  0  0  0
    3.5071   15.5378   21.4198 H   0  0  0  0  0  0  0  0  0  0  0  0
  1  3  2  0  0  0  0
  1  5  1  0  0  0  0
  2  4  1  0  0  0  0
  2  5  2  0  0  0  0
  3  6  1  0  0  0  0
  4  6  2  0  0  0  0
  5 16  1  0  0  0  0
  6 18  1  0  0  0  0
  7 17  1  0  0  0  0
  7 23  1  0  0  0  0
  7 24  2  0  0  0  0
  8 14  1  0  0  0  0
  8 15  1  0  0  0  0
  9 14  1  0  0  0  0
  9 16  1  0  0  0  0
 10 15  1  0  0  0  0
 10 16  1  0  0  0  0
 11 14  1  0  0  0  0
 11 17  1  0  0  0  0
 12 15  1  0  0  0  0
 12 17  1  0  0  0  0
 13 16  1  0  0  0  0
 13 17  1  0  0  0  0
 19 22  1  0  0  0  0
 20 22  1  0  0  0  0
 21 22  1  0  0  0  0
 21 23  1  0  0  0  0
 22 25  1  0  0  0  0
  1 26  1  0  0  0  0
  2 27  1  0  0  0  0
  3 28  1  0  0  0  0
  4 29  1  0  0  0  0
  8 30  1  0  0  0  0
  8 31  1  0  0  0  0
  9 32  1  0  0  0  0
  9 33  1  0  0  0  0
 10 34  1  0  0  0  0
 10 35  1  0  0  0  0
 11 36  1  0  0  0  0
 11 37  1  0  0  0  0
 12 38  1  0  0  0  0
 12 39  1  0  0  0  0
 13 40  1  0  0  0  0
 13 41  1  0  0  0  0
 14 42  1  0  0  0  0
 15 43  1  0  0  0  0
 18 44  1  0  0  0  0
 18 45  1  0  0  0  0
 18 46  1  0  0  0  0
 19 47  1  0  0  0  0
 19 48  1  0  0  0  0
 19 49  1  0  0  0  0
 20 50  1  0  0  0  0
 20 51  1  0  0  0  0
 20 52  1  0  0  0  0
 21 53  1  0  0  0  0
 21 54  1  0  0  0  0
 23 55  1  0  0  0  0
 25 56  1  0  0  0  0
M  END
> <idnumber>
Z1286229380

> <heavy_atoms>
25

> <LogS>
-5.092

> <LogP>
3.869

> <rotating_bonds>
4

> <PSA>
49.33

> <hb_acceptors>
2

> <hb_donors>
2

> <Collection>
Advanced

> <link>
https://www.enaminestore.com/catalog/Z1286229380

> <ROCS_ShapeQuery>
x0446_0A_x1080_0A_x0929_0A_x0812_0A_x0719_0A_x1140_0A_x0528_0A_x0310_0A

> <ROCS_TanimotoCombo>
0.455 

> <ROCS_ShapeTanimoto>
0.252 

> <ROCS_ColorTanimoto>
0.203 

> <ROCS_RefTversky>
0.230 

> <ROCS_RefColorTversky>
0.233 

> <ROCS_RefTverskyCombo>
0.463 

> <ROCS_FitTversky>
1.613 

> <ROCS_FitColorTversky>
0.611 

> <ROCS_FitTverskyCombo>
2.224 

> <ROCS_ColorScore>
-8.369

> <ROCS_Overlap>
2721.555

> <ROCS_Rank>
463                 

$$$$
untitled-dbase-1131040_39
  -OEChem-02092406493D

 56 61  0     1  0  0  0  0  0999 V2000
    7.0426   13.8578   21.1029 C   0  0  0  0  0  0  0  0  0  0  0  0
    5.0062   14.1317   22.4092 C   0  0  0  0  0  0  0  0  0  0  0  0
    4.5749   14.7178   18.6796 C   0  0  0  0  0  0  0  0  0  0  0  0
    4.9290   14.4632   20.0220 C   0  0  0  0  0  0  0  0  0  0  0  0
    6.3700   13.8435   22.3292 C   0  0  0  0  0  0  0  0  0  0  0  0
    6.2877   14.1723   19.9707 C   0  0  0  0  0  0  0  0  0  0  0  0
    4.2676   14.4449   21.2612 C   0  0  0  0  0  0  0  0  0  0  0  0
   12.1065   16.6951   23.0093 C   0  0  0  0  0  0  0  0  0  0  0  0
   10.8944   16.1696   22.7699 C   0  0  0  0  0  0  0  0  0  0  0  0
    7.1154   13.5191   23.5555 C   0  0  0  0  0  0  0  0  0  0  0  0
   11.3246   13.1983   23.2814 C   0  0  0  0  0  0  0  0  0  0  0  0
   12.8334   16.3318   20.6811 C   0  0  0  0  0  0  0  0  0  0  0  0
   11.4284   15.7418   20.4081 C   0  0  0  0  0  0  0  0  0  0  0  0
   13.2504   14.5898   22.4308 C   0  0  0  0  0  0  0  0  0  0  0  0
    8.3011   10.3073   24.8564 C   0  0  0  0  0  0  0  0  0  0  0  0
    7.7262   11.1943   22.6259 C   0  0  0  0  0  0  0  0  0  0  0  0
   13.2184   16.1138   22.1627 C   0  0  2  0  0  0  0  0  0  0  0  0
   10.8742   15.0946   21.6987 C   0  0  1  0  0  0  0  0  0  0  0  0
   11.8623   13.9728   22.1136 C   0  0  2  0  0  0  0  0  0  0  0  0
    8.7557   10.3091   23.3481 C   0  0  1  0  0  0  0  0  0  0  0  0
    8.6604   11.8288   24.6678 C   0  0  1  0  0  0  0  0  0  0  0  0
    9.9054   11.2402   23.9009 C   0  0  2  0  0  0  0  0  0  0  0  0
    7.9375   14.0602   18.0764 C   0  0  0  0  0  0  0  0  0  0  0  0
    5.6066   14.6021   17.8405 N   0  0  0  0  0  0  0  0  0  0  0  0
    6.6278   14.2718   18.6485 N   0  0  0  0  0  0  0  0  0  0  0  0
    7.7207   12.2830   23.6132 N   0  0  0  0  0  0  0  0  0  0  0  0
   10.5280   12.1264   22.9268 N   0  0  0  0  0  0  0  0  0  0  0  0
    7.1669   14.3718   24.4385 O   0  0  0  0  0  0  0  0  0  0  0  0
   11.6121   13.5460   24.4208 O   0  0  0  0  0  0  0  0  0  0  0  0
    2.9326   14.7239   21.3669 O   0  0  0  0  0  0  0  0  0  0  0  0
    8.1023   13.6351   21.0324 H   0  0  0  0  0  0  0  0  0  0  0  0
    4.5040   14.1149   23.3747 H   0  0  0  0  0  0  0  0  0  0  0  0
    3.6067   14.9828   18.2786 H   0  0  0  0  0  0  0  0  0  0  0  0
   12.2828   17.4701   23.7430 H   0  0  0  0  0  0  0  0  0  0  0  0
    9.9993   16.4813   23.2912 H   0  0  0  0  0  0  0  0  0  0  0  0
   13.5704   15.8585   20.0214 H   0  0  0  0  0  0  0  0  0  0  0  0
   12.8342   17.4022   20.4398 H   0  0  0  0  0  0  0  0  0  0  0  0
   10.7568   16.5362   20.0588 H   0  0  0  0  0  0  0  0  0  0  0  0
   11.4864   15.0009   19.6017 H   0  0  0  0  0  0  0  0  0  0  0  0
   14.0107   14.1201   21.7940 H   0  0  0  0  0  0  0  0  0  0  0  0
   13.5505   14.3947   23.4682 H   0  0  0  0  0  0  0  0  0  0  0  0
    7.2498   10.0721   25.0499 H   0  0  0  0  0  0  0  0  0  0  0  0
    8.9238    9.7386   25.5566 H   0  0  0  0  0  0  0  0  0  0  0  0
    8.0612   11.5660   21.6558 H   0  0  0  0  0  0  0  0  0  0  0  0
    6.7323   10.7473   22.5576 H   0  0  0  0  0  0  0  0  0  0  0  0
   14.1817   16.5775   22.3951 H   0  0  0  0  0  0  0  0  0  0  0  0
    9.8596   14.7115   21.5492 H   0  0  0  0  0  0  0  0  0  0  0  0
   11.9648   13.2538   21.2908 H   0  0  0  0  0  0  0  0  0  0  0  0
    9.0311    9.3546   22.8994 H   0  0  0  0  0  0  0  0  0  0  0  0
    8.8095   12.4525   25.5487 H   0  0  0  0  0  0  0  0  0  0  0  0
   10.6668   10.7519   24.5193 H   0  0  0  0  0  0  0  0  0  0  0  0
    8.0226   13.0034   17.8102 H   0  0  0  0  0  0  0  0  0  0  0  0
    8.0530   14.6885   17.1888 H   0  0  0  0  0  0  0  0  0  0  0  0
    8.7009   14.3334   18.8103 H   0  0  0  0  0  0  0  0  0  0  0  0
   10.3690   11.9478   21.9398 H   0  0  0  0  0  0  0  0  0  0  0  0
    2.6554   14.6629   22.2925 H   0  0  0  0  0  0  0  0  0  0  0  0
  1  5  2  0  0  0  0
  1  6  1  0  0  0  0
  2  5  1  0  0  0  0
  2  7  2  0  0  0  0
  3  4  1  0  0  0  0
  3 24  2  0  0  0  0
  4  6  2  0  0  0  0
  4  7  1  0  0  0  0
  5 10  1  0  0  0  0
  6 25  1  0  0  0  0
  7 30  1  0  0  0  0
  8  9  2  0  0  0  0
  8 17  1  0  0  0  0
  9 18  1  0  0  0  0
 10 26  1  0  0  0  0
 10 28  2  0  0  0  0
 11 19  1  6  0  0  0
 11 27  1  0  0  0  0
 11 29  2  0  0  0  0
 12 13  1  0  0  0  0
 12 17  1  0  0  0  0
 13 18  1  1  0  0  0
 14 17  1  1  0  0  0
 14 19  1  0  0  0  0
 15 20  1  6  0  0  0
 15 21  1  6  0  0  0
 16 20  1  0  0  0  0
 16 26  1  0  0  0  0
 18 19  1  0  0  0  0
 20 22  1  0  0  0  0
 21 22  1  0  0  0  0
 21 26  1  0  0  0  0
 22 27  1  1  0  0  0
 23 25  1  0  0  0  0
 24 25  1  0  0  0  0
  1 31  1  0  0  0  0
  2 32  1  0  0  0  0
  3 33  1  0  0  0  0
  8 34  1  0  0  0  0
  9 35  1  0  0  0  0
 12 36  1  0  0  0  0
 12 37  1  0  0  0  0
 13 38  1  0  0  0  0
 13 39  1  0  0  0  0
 14 40  1  0  0  0  0
 14 41  1  0  0  0  0
 15 42  1  0  0  0  0
 15 43  1  0  0  0  0
 16 44  1  0  0  0  0
 16 45  1  0  0  0  0
 17 46  1  0  0  0  0
 18 47  1  0  0  0  0
 19 48  1  0  0  0  0
 20 49  1  0  0  0  0
 21 50  1  0  0  0  0
 22 51  1  0  0  0  0
 23 52  1  0  0  0  0
 23 53  1  0  0  0  0
 23 54  1  0  0  0  0
 27 55  1  0  0  0  0
 30 56  1  0  0  0  0
M  END
> <idnumber>
Z5606586589

> <heavy_atoms>
30

> <LogS>
-4.761

> <LogP>
2.619

> <rotating_bonds>
3

> <PSA>
87.46

> <hb_acceptors>
4

> <hb_donors>
2

> <Collection>
Advanced

> <link>
https://www.enaminestore.com/catalog/Z5606586589

> <ROCS_ShapeQuery>
x0446_0A_x1080_0A_x0929_0A_x0812_0A_x0719_0A_x1140_0A_x0528_0A_x0310_0A

> <ROCS_TanimotoCombo>
0.455 

> <ROCS_ShapeTanimoto>
0.247 

> <ROCS_ColorTanimoto>
0.208 

> <ROCS_RefTversky>
0.231 

> <ROCS_RefColorTversky>
0.275 

> <ROCS_RefTverskyCombo>
0.506 

> <ROCS_FitTversky>
1.393 

> <ROCS_FitColorTversky>
0.462 

> <ROCS_FitTverskyCombo>
1.856 

> <ROCS_ColorScore>
-10.000

> <ROCS_Overlap>
2729.219

> <ROCS_Rank>
464                 

$$$$
untitled-dbase-584867_50
  -OEChem-02092406493D

 33 36  0     0  0  0  0  0  0999 V2000
    6.0483   10.8677   24.4857 C   0  0  0  0  0  0  0  0  0  0  0  0
    5.9005   12.9706   25.6656 C   0  0  0  0  0  0  0  0  0  0  0  0
    7.3768   11.1563   24.1600 C   0  0  0  0  0  0  0  0  0  0  0  0
    7.9815   12.3502   24.5808 C   0  0  0  0  0  0  0  0  0  0  0  0
    5.3126   11.7801   25.2404 C   0  0  0  0  0  0  0  0  0  0  0  0
    7.2278   13.2539   25.3374 C   0  0  0  0  0  0  0  0  0  0  0  0
   10.4983   13.9912   21.4625 C   0  0  0  0  0  0  0  0  0  0  0  0
    8.1762   10.2029   23.3601 C   0  0  0  0  0  0  0  0  0  0  0  0
    9.9877   11.8123   23.5668 C   0  0  0  0  0  0  0  0  0  0  0  0
   12.8201   17.0357   21.6420 C   0  0  0  0  0  0  0  0  0  0  0  0
   13.3082   15.8850   20.8189 C   0  0  0  0  0  0  0  0  0  0  0  0
   12.3354   15.6378   21.9480 C   0  0  0  0  0  0  0  0  0  0  0  0
   11.4160   12.0712   23.1901 C   0  0  0  0  0  0  0  0  0  0  0  0
    9.2018   14.0569   21.2646 N   0  0  0  0  0  0  0  0  0  0  0  0
    8.8773   15.3906   21.3701 N   0  0  0  0  0  0  0  0  0  0  0  0
    9.9530   16.1243   21.6280 N   0  0  0  0  0  0  0  0  0  0  0  0
    9.3165   12.6693   24.2691 N   0  0  0  0  0  0  0  0  0  0  0  0
   10.9650   15.2474   21.6851 N   0  0  0  0  0  0  0  0  0  0  0  0
    9.4753   10.6152   23.1114 N   0  0  0  0  0  0  0  0  0  0  0  0
    7.7026    9.1446   22.9635 O   0  0  0  0  0  0  0  0  0  0  0  0
   11.5093   12.5403   21.4509 S   0  0  0  0  0  0  0  0  0  0  0  0
    3.5150   11.4028   25.6879 Br  0  0  0  0  0  0  0  0  0  0  0  0
    7.9643   14.8952   25.9511 Br  0  0  0  0  0  0  0  0  0  0  0  0
    5.5888    9.9399   24.1545 H   0  0  0  0  0  0  0  0  0  0  0  0
    5.3214   13.6793   26.2538 H   0  0  0  0  0  0  0  0  0  0  0  0
   13.5156   17.4897   22.3375 H   0  0  0  0  0  0  0  0  0  0  0  0
   12.1320   17.7317   21.1782 H   0  0  0  0  0  0  0  0  0  0  0  0
   12.9479   15.8056   19.8005 H   0  0  0  0  0  0  0  0  0  0  0  0
   14.3328   15.5621   20.9582 H   0  0  0  0  0  0  0  0  0  0  0  0
   12.7321   15.1676   22.8409 H   0  0  0  0  0  0  0  0  0  0  0  0
   12.0019   11.1692   23.3601 H   0  0  0  0  0  0  0  0  0  0  0  0
   11.8155   12.8709   23.8120 H   0  0  0  0  0  0  0  0  0  0  0  0
   10.0800   10.0062   22.5672 H   0  0  0  0  0  0  0  0  0  0  0  0
  1  3  1  0  0  0  0
  1  5  2  0  0  0  0
  2  5  1  0  0  0  0
  2  6  2  0  0  0  0
  3  4  2  0  0  0  0
  3  8  1  0  0  0  0
  4  6  1  0  0  0  0
  4 17  1  0  0  0  0
  5 22  1  0  0  0  0
  6 23  1  0  0  0  0
  7 14  2  0  0  0  0
  7 18  1  0  0  0  0
  7 21  1  0  0  0  0
  8 19  1  0  0  0  0
  8 20  2  0  0  0  0
  9 13  1  0  0  0  0
  9 17  2  0  0  0  0
  9 19  1  0  0  0  0
 10 11  1  0  0  0  0
 10 12  1  0  0  0  0
 11 12  1  0  0  0  0
 12 18  1  0  0  0  0
 13 21  1  0  0  0  0
 14 15  1  0  0  0  0
 15 16  2  0  0  0  0
 16 18  1  0  0  0  0
  1 24  1  0  0  0  0
  2 25  1  0  0  0  0
 10 26  1  0  0  0  0
 10 27  1  0  0  0  0
 11 28  1  0  0  0  0
 11 29  1  0  0  0  0
 12 30  1  0  0  0  0
 13 31  1  0  0  0  0
 13 32  1  0  0  0  0
 19 33  1  0  0  0  0
M  END
> <idnumber>
Z126267392

> <heavy_atoms>
23

> <LogS>
-6.042

> <LogP>
2.631

> <rotating_bonds>
4

> <PSA>
85.06

> <hb_acceptors>
5

> <hb_donors>
1

> <Collection>
Legacy

> <link>
https://www.enaminestore.com/catalog/Z126267392

> <ROCS_ShapeQuery>
x0446_0A_x1080_0A_x0929_0A_x0812_0A_x0719_0A_x1140_0A_x0528_0A_x0310_0A

> <ROCS_TanimotoCombo>
0.455 

> <ROCS_ShapeTanimoto>
0.244 

> <ROCS_ColorTanimoto>
0.211 

> <ROCS_RefTversky>
0.223 

> <ROCS_RefColorTversky>
0.237 

> <ROCS_RefTverskyCombo>
0.460 

> <ROCS_FitTversky>
1.652 

> <ROCS_FitColorTversky>
0.657 

> <ROCS_FitTverskyCombo>
2.309 

> <ROCS_ColorScore>
-8.501

> <ROCS_Overlap>
2632.507

> <ROCS_Rank>
465                 

$$$$
untitled-dbase-678879_96
  -OEChem-02092406493D

 68 73  0     1  0  0  0  0  0999 V2000
   12.0191   14.1144   23.1456 C   0  0  0  0  0  0  0  0  0  0  0  0
   12.7290   15.2334   22.7102 C   0  0  0  0  0  0  0  0  0  0  0  0
   10.1536   14.7549   21.7503 C   0  0  0  0  0  0  0  0  0  0  0  0
   10.7314   13.8751   22.6656 C   0  0  0  0  0  0  0  0  0  0  0  0
   12.1511   16.1131   21.7949 C   0  0  0  0  0  0  0  0  0  0  0  0
   10.8634   15.8739   21.3149 C   0  0  0  0  0  0  0  0  0  0  0  0
    6.1407   12.0613   23.6539 C   0  0  0  0  0  0  0  0  0  0  0  0
    5.2283   13.2961   20.2751 C   0  0  0  0  0  0  0  0  0  0  0  0
    4.4587   10.9154   19.8107 C   0  0  0  0  0  0  0  0  0  0  0  0
    9.8097    9.8566   24.2279 C   0  0  0  0  0  0  0  0  0  0  0  0
   10.1717   11.3729   22.2667 C   0  0  0  0  0  0  0  0  0  0  0  0
   10.3717   12.2736   24.5989 C   0  0  0  0  0  0  0  0  0  0  0  0
    7.8730   10.5166   22.7783 C   0  0  0  0  0  0  0  0  0  0  0  0
    8.0667   11.4261   25.1097 C   0  0  0  0  0  0  0  0  0  0  0  0
    8.4208   12.9422   23.1375 C   0  0  0  0  0  0  0  0  0  0  0  0
    6.3158   12.9841   21.2964 C   0  0  0  0  0  0  0  0  0  0  0  0
    3.5259   10.9204   18.5968 C   0  0  0  0  0  0  0  0  0  0  0  0
    4.2191   12.0969   22.0767 C   0  0  0  0  0  0  0  0  0  0  0  0
    2.7732   12.6050   20.0220 C   0  0  0  0  0  0  0  0  0  0  0  0
    9.3686   10.1706   22.7916 C   0  0  2  0  0  0  0  0  0  0  0  0
    9.5633   11.0757   25.1272 C   0  0  1  0  0  0  0  0  0  0  0  0
    9.9493   12.6423   23.1460 C   0  0  0  0  0  0  0  0  0  0  0  0
    7.6139   11.7411   23.6714 C   0  0  0  0  0  0  0  0  0  0  0  0
    4.1504   12.2273   20.5562 C   0  0  1  0  0  0  0  0  0  0  0  0
   12.9300   17.3051   21.3441 C   0  0  0  0  0  0  0  0  0  0  0  0
   10.2243   16.8021   20.3348 C   0  0  0  0  0  0  0  0  0  0  0  0
    1.6185   12.2602   17.9138 C   0  0  0  0  0  0  0  0  0  0  0  0
    5.6107   12.3646   22.4124 N   0  0  0  0  0  0  0  0  0  0  0  0
    2.8961   12.2428   18.6095 N   0  0  2  0  0  0  0  0  0  0  0  0
    5.4872   12.0479   24.6984 O   0  0  0  0  0  0  0  0  0  0  0  0
   12.4770   13.4346   23.8593 H   0  0  0  0  0  0  0  0  0  0  0  0
   13.7314   15.4114   23.0907 H   0  0  0  0  0  0  0  0  0  0  0  0
    9.1499   14.5672   21.3761 H   0  0  0  0  0  0  0  0  0  0  0  0
    4.8216   14.2964   20.4610 H   0  0  0  0  0  0  0  0  0  0  0  0
    5.6041   13.2659   19.2497 H   0  0  0  0  0  0  0  0  0  0  0  0
    4.2923   10.0298   20.4344 H   0  0  0  0  0  0  0  0  0  0  0  0
    5.4994   10.8872   19.4661 H   0  0  0  0  0  0  0  0  0  0  0  0
    9.2559    8.9903   24.6097 H   0  0  0  0  0  0  0  0  0  0  0  0
   10.8729    9.5871   24.2438 H   0  0  0  0  0  0  0  0  0  0  0  0
   11.2400   11.1182   22.2407 H   0  0  0  0  0  0  0  0  0  0  0  0
    9.8834   11.5821   21.2275 H   0  0  0  0  0  0  0  0  0  0  0  0
   10.2246   13.1372   25.2614 H   0  0  0  0  0  0  0  0  0  0  0  0
   11.4444   12.0399   24.6327 H   0  0  0  0  0  0  0  0  0  0  0  0
    7.5427   10.7144   21.7494 H   0  0  0  0  0  0  0  0  0  0  0  0
    7.2858    9.6556   23.1264 H   0  0  0  0  0  0  0  0  0  0  0  0
    7.4848   10.5899   25.5212 H   0  0  0  0  0  0  0  0  0  0  0  0
    7.8740   12.2840   25.7682 H   0  0  0  0  0  0  0  0  0  0  0  0
    8.2112   13.8353   23.7447 H   0  0  0  0  0  0  0  0  0  0  0  0
    8.0938   13.1972   22.1186 H   0  0  0  0  0  0  0  0  0  0  0  0
    7.0348   12.2555   20.9059 H   0  0  0  0  0  0  0  0  0  0  0  0
    6.8554   13.8787   21.6202 H   0  0  0  0  0  0  0  0  0  0  0  0
    4.1174   10.7529   17.6880 H   0  0  0  0  0  0  0  0  0  0  0  0
    2.7749   10.1273   18.6670 H   0  0  0  0  0  0  0  0  0  0  0  0
    3.6173   12.8625   22.5866 H   0  0  0  0  0  0  0  0  0  0  0  0
    3.9168   11.1154   22.4663 H   0  0  0  0  0  0  0  0  0  0  0  0
    1.9665   12.0504   20.5137 H   0  0  0  0  0  0  0  0  0  0  0  0
    2.5871   13.6800   20.1501 H   0  0  0  0  0  0  0  0  0  0  0  0
    9.5503    9.2995   22.1520 H   0  0  0  0  0  0  0  0  0  0  0  0
    9.8754   10.8462   26.1523 H   0  0  0  0  0  0  0  0  0  0  0  0
   13.5201   17.0587   20.4538 H   0  0  0  0  0  0  0  0  0  0  0  0
   12.2661   18.1441   21.1023 H   0  0  0  0  0  0  0  0  0  0  0  0
   13.6116   17.6534   22.1300 H   0  0  0  0  0  0  0  0  0  0  0  0
    9.6707   17.5881   20.8614 H   0  0  0  0  0  0  0  0  0  0  0  0
   10.9748   17.2752   19.6896 H   0  0  0  0  0  0  0  0  0  0  0  0
    9.5295   16.2661   19.6764 H   0  0  0  0  0  0  0  0  0  0  0  0
    1.1921   13.2734   17.9544 H   0  0  0  0  0  0  0  0  0  0  0  0
    1.7687   11.9675   16.8642 H   0  0  0  0  0  0  0  0  0  0  0  0
    0.9285   11.5526   18.3967 H   0  0  0  0  0  0  0  0  0  0  0  0
  1  2  2  0  0  0  0
  1  4  1  0  0  0  0
  2  5  1  0  0  0  0
  3  4  2  0  0  0  0
  3  6  1  0  0  0  0
  4 22  1  0  0  0  0
  5  6  2  0  0  0  0
  5 25  1  0  0  0  0
  6 26  1  0  0  0  0
  7 23  1  0  0  0  0
  7 28  1  0  0  0  0
  7 30  2  0  0  0  0
  8 16  1  0  0  0  0
  8 24  1  0  0  0  0
  9 17  1  0  0  0  0
  9 24  1  0  0  0  0
 10 20  1  0  0  0  0
 10 21  1  0  0  0  0
 11 20  1  0  0  0  0
 11 22  1  0  0  0  0
 12 21  1  0  0  0  0
 12 22  1  0  0  0  0
 13 20  1  0  0  0  0
 13 23  1  0  0  0  0
 14 21  1  0  0  0  0
 14 23  1  0  0  0  0
 15 22  1  0  0  0  0
 15 23  1  0  0  0  0
 16 28  1  0  0  0  0
 17 29  1  0  0  0  0
 18 24  1  0  0  0  0
 18 28  1  0  0  0  0
 19 24  1  0  0  0  0
 19 29  1  0  0  0  0
 27 29  1  0  0  0  0
  1 31  1  0  0  0  0
  2 32  1  0  0  0  0
  3 33  1  0  0  0  0
  8 34  1  0  0  0  0
  8 35  1  0  0  0  0
  9 36  1  0  0  0  0
  9 37  1  0  0  0  0
 10 38  1  0  0  0  0
 10 39  1  0  0  0  0
 11 40  1  0  0  0  0
 11 41  1  0  0  0  0
 12 42  1  0  0  0  0
 12 43  1  0  0  0  0
 13 44  1  0  0  0  0
 13 45  1  0  0  0  0
 14 46  1  0  0  0  0
 14 47  1  0  0  0  0
 15 48  1  0  0  0  0
 15 49  1  0  0  0  0
 16 50  1  0  0  0  0
 16 51  1  0  0  0  0
 17 52  1  0  0  0  0
 17 53  1  0  0  0  0
 18 54  1  0  0  0  0
 18 55  1  0  0  0  0
 19 56  1  0  0  0  0
 19 57  1  0  0  0  0
 20 58  1  0  0  0  0
 21 59  1  0  0  0  0
 25 60  1  0  0  0  0
 25 61  1  0  0  0  0
 25 62  1  0  0  0  0
 26 63  1  0  0  0  0
 26 64  1  0  0  0  0
 26 65  1  0  0  0  0
 27 66  1  0  0  0  0
 27 67  1  0  0  0  0
 27 68  1  0  0  0  0
M  END
> <idnumber>
Z2210183734

> <heavy_atoms>
30

> <LogS>
-5.181

> <LogP>
4.476

> <rotating_bonds>
2

> <PSA>
23.55

> <hb_acceptors>
2

> <hb_donors>
0

> <Collection>
Advanced

> <link>
https://www.enaminestore.com/catalog/Z2210183734

> <ROCS_ShapeQuery>
x0446_0A_x1080_0A_x0929_0A_x0812_0A_x0719_0A_x1140_0A_x0528_0A_x0310_0A

> <ROCS_TanimotoCombo>
0.455 

> <ROCS_ShapeTanimoto>
0.279 

> <ROCS_ColorTanimoto>
0.176 

> <ROCS_RefTversky>
0.254 

> <ROCS_RefColorTversky>
0.203 

> <ROCS_RefTverskyCombo>
0.456 

> <ROCS_FitTversky>
1.556 

> <ROCS_FitColorTversky>
0.571 

> <ROCS_FitTverskyCombo>
2.127 

> <ROCS_ColorScore>
-7.280

> <ROCS_Overlap>
3001.908

> <ROCS_Rank>
466                 

$$$$
untitled-dbase-931917_110
  -OEChem-02092406493D

 35 37  0     0  0  0  0  0  0999 V2000
    6.1393   13.2220   25.3908 C   0  0  0  0  0  0  0  0  0  0  0  0
    5.4778   12.0037   25.2248 C   0  0  0  0  0  0  0  0  0  0  0  0
    7.4797   13.3490   25.0283 C   0  0  0  0  0  0  0  0  0  0  0  0
    6.1515   10.9009   24.6948 C   0  0  0  0  0  0  0  0  0  0  0  0
    8.1530   12.2479   24.4989 C   0  0  0  0  0  0  0  0  0  0  0  0
    7.4950   11.0064   24.3251 C   0  0  0  0  0  0  0  0  0  0  0  0
    9.5420   12.2935   24.0968 C   0  0  0  0  0  0  0  0  0  0  0  0
   11.5464   12.6065   23.5899 C   0  0  0  0  0  0  0  0  0  0  0  0
    9.4096    9.9590   23.4394 C   0  0  0  0  0  0  0  0  0  0  0  0
    9.7530   14.6213   21.1531 C   0  0  0  0  0  0  0  0  0  0  0  0
    8.4743   13.8511   21.1522 C   0  0  0  0  0  0  0  0  0  0  0  0
   12.8313   13.2925   23.4096 C   0  0  0  0  0  0  0  0  0  0  0  0
   12.7766   14.5848   22.5532 C   0  0  0  0  0  0  0  0  0  0  0  0
   12.2267   14.3705   21.1444 C   0  0  0  0  0  0  0  0  0  0  0  0
   10.4489   13.2437   24.1097 N   0  0  0  0  0  0  0  0  0  0  0  0
   11.3768   11.3221   23.2563 N   0  0  0  0  0  0  0  0  0  0  0  0
    8.1593    9.8667   23.7863 N   0  0  0  0  0  0  0  0  0  0  0  0
   10.0923   11.1510   23.5907 N   0  0  0  0  0  0  0  0  0  0  0  0
   10.8939   13.8336   21.1465 N   0  0  0  0  0  0  0  0  0  0  0  0
    9.7205   15.8463   21.1579 O   0  0  0  0  0  0  0  0  0  0  0  0
    5.6069   14.0737   25.8046 H   0  0  0  0  0  0  0  0  0  0  0  0
    4.4334   11.9130   25.5101 H   0  0  0  0  0  0  0  0  0  0  0  0
    7.9819   14.3032   25.1624 H   0  0  0  0  0  0  0  0  0  0  0  0
    5.6206    9.9600   24.5730 H   0  0  0  0  0  0  0  0  0  0  0  0
    9.9421    9.0902   23.0209 H   0  0  0  0  0  0  0  0  0  0  0  0
    8.1164   13.6290   22.1704 H   0  0  0  0  0  0  0  0  0  0  0  0
    7.6519   14.4021   20.6683 H   0  0  0  0  0  0  0  0  0  0  0  0
    8.5113   12.8768   20.6391 H   0  0  0  0  0  0  0  0  0  0  0  0
   13.6057   12.6229   22.9771 H   0  0  0  0  0  0  0  0  0  0  0  0
   13.2541   13.5750   24.3974 H   0  0  0  0  0  0  0  0  0  0  0  0
   13.7826   15.0175   22.4803 H   0  0  0  0  0  0  0  0  0  0  0  0
   12.1519   15.3276   23.0641 H   0  0  0  0  0  0  0  0  0  0  0  0
   12.8562   13.6551   20.6055 H   0  0  0  0  0  0  0  0  0  0  0  0
   12.2129   15.3017   20.5705 H   0  0  0  0  0  0  0  0  0  0  0  0
   10.7813   12.8203   21.1431 H   0  0  0  0  0  0  0  0  0  0  0  0
  1  2  1  0  0  0  0
  1  3  2  0  0  0  0
  2  4  2  0  0  0  0
  3  5  1  0  0  0  0
  4  6  1  0  0  0  0
  5  6  2  0  0  0  0
  5  7  1  0  0  0  0
  6 17  1  0  0  0  0
  7 15  2  0  0  0  0
  7 18  1  0  0  0  0
  8 12  1  0  0  0  0
  8 15  1  0  0  0  0
  8 16  2  0  0  0  0
  9 17  2  0  0  0  0
  9 18  1  0  0  0  0
 10 11  1  0  0  0  0
 10 19  1  0  0  0  0
 10 20  2  0  0  0  0
 12 13  1  0  0  0  0
 13 14  1  0  0  0  0
 14 19  1  0  0  0  0
 16 18  1  0  0  0  0
  1 21  1  0  0  0  0
  2 22  1  0  0  0  0
  3 23  1  0  0  0  0
  4 24  1  0  0  0  0
  9 25  1  0  0  0  0
 11 26  1  0  0  0  0
 11 27  1  0  0  0  0
 11 28  1  0  0  0  0
 12 29  1  0  0  0  0
 12 30  1  0  0  0  0
 13 31  1  0  0  0  0
 13 32  1  0  0  0  0
 14 33  1  0  0  0  0
 14 34  1  0  0  0  0
 19 35  1  0  0  0  0
M  END
> <idnumber>
Z2687416412

> <heavy_atoms>
20

> <LogS>
-2.885

> <LogP>
-0.236

> <rotating_bonds>
4

> <PSA>
72.18

> <hb_acceptors>
4

> <hb_donors>
1

> <Collection>
HTS

> <link>
https://www.enaminestore.com/catalog/Z2687416412

> <ROCS_ShapeQuery>
x0446_0A_x1080_0A_x0929_0A_x0812_0A_x0719_0A_x1140_0A_x0528_0A_x0310_0A

> <ROCS_TanimotoCombo>
0.455 

> <ROCS_ShapeTanimoto>
0.253 

> <ROCS_ColorTanimoto>
0.202 

> <ROCS_RefTversky>
0.227 

> <ROCS_RefColorTversky>
0.213 

> <ROCS_RefTverskyCombo>
0.440 

> <ROCS_FitTversky>
1.795 

> <ROCS_FitColorTversky>
0.801 

> <ROCS_FitTverskyCombo>
2.596 

> <ROCS_ColorScore>
-7.611

> <ROCS_Overlap>
2682.383

> <ROCS_Rank>
467                 

$$$$
untitled-dbase-1003733_51
  -OEChem-02092406493D

 50 54  0     1  0  0  0  0  0999 V2000
   12.5816   14.1332   22.2581 C   0  0  0  0  0  0  0  0  0  0  0  0
   13.2477   15.3350   22.3724 C   0  0  0  0  0  0  0  0  0  0  0  0
    8.9835   15.6852   21.2662 C   0  0  0  0  0  0  0  0  0  0  0  0
   11.2393   14.4216   21.9018 C   0  0  0  0  0  0  0  0  0  0  0  0
   10.0835   13.6871   21.6412 C   0  0  0  0  0  0  0  0  0  0  0  0
   11.1328   15.8040   21.8094 C   0  0  0  0  0  0  0  0  0  0  0  0
   10.0372   12.2316   21.6980 C   0  0  0  0  0  0  0  0  0  0  0  0
    3.6024   12.3439   25.2997 C   0  0  0  0  0  0  0  0  0  0  0  0
    3.2950   13.7144   24.6992 C   0  0  0  0  0  0  0  0  0  0  0  0
    9.5854    9.8400   24.3650 C   0  0  0  0  0  0  0  0  0  0  0  0
   10.0418   11.0805   25.1557 C   0  0  0  0  0  0  0  0  0  0  0  0
    7.5070   10.7196   23.1819 C   0  0  0  0  0  0  0  0  0  0  0  0
    8.2700   12.7900   24.4984 C   0  0  0  0  0  0  0  0  0  0  0  0
    5.0933   12.1311   25.5414 C   0  0  0  0  0  0  0  0  0  0  0  0
    3.9599   13.9016   23.3445 C   0  0  0  0  0  0  0  0  0  0  0  0
    9.0085   10.3961   23.0585 C   0  0  1  0  0  0  0  0  0  0  0  0
    9.7015   12.2719   24.2524 C   0  0  2  0  0  0  0  0  0  0  0  0
    7.2125   11.6710   24.3629 C   0  0  0  0  0  0  0  0  0  0  0  0
    8.9400   14.3348   21.3188 N   0  0  0  0  0  0  0  0  0  0  0  0
   10.0296   16.5050   21.4946 N   0  0  0  0  0  0  0  0  0  0  0  0
   12.3589   16.3424   22.0970 N   0  0  0  0  0  0  0  0  0  0  0  0
    9.7102   11.6632   22.9249 N   0  0  0  0  0  0  0  0  0  0  0  0
    5.8433   12.2394   24.2548 N   0  0  2  0  0  0  0  0  0  0  0  0
   10.2662   11.5502   20.6975 O   0  0  0  0  0  0  0  0  0  0  0  0
    6.2223   14.8083   24.3249 O   0  0  0  0  0  0  0  0  0  0  0  0
    6.2465   13.6256   22.0995 O   0  0  0  0  0  0  0  0  0  0  0  0
    5.7325   13.7612   23.4489 S   0  0  0  0  0  0  0  0  0  0  0  0
   13.0208   13.1578   22.4163 H   0  0  0  0  0  0  0  0  0  0  0  0
   14.2740   15.5622   22.6243 H   0  0  0  0  0  0  0  0  0  0  0  0
    8.0510   16.1739   21.0052 H   0  0  0  0  0  0  0  0  0  0  0  0
    3.0693   12.2434   26.2512 H   0  0  0  0  0  0  0  0  0  0  0  0
    3.2136   11.5638   24.6362 H   0  0  0  0  0  0  0  0  0  0  0  0
    2.2128   13.8227   24.5867 H   0  0  0  0  0  0  0  0  0  0  0  0
    3.6280   14.4943   25.3903 H   0  0  0  0  0  0  0  0  0  0  0  0
   10.4553    9.2062   24.1559 H   0  0  0  0  0  0  0  0  0  0  0  0
    8.8641    9.2391   24.9280 H   0  0  0  0  0  0  0  0  0  0  0  0
    9.5608   11.1388   26.1373 H   0  0  0  0  0  0  0  0  0  0  0  0
   11.1247   11.0254   25.3187 H   0  0  0  0  0  0  0  0  0  0  0  0
    7.1603   11.1674   22.2408 H   0  0  0  0  0  0  0  0  0  0  0  0
    6.9327    9.7937   23.3099 H   0  0  0  0  0  0  0  0  0  0  0  0
    8.1991   13.2351   25.4987 H   0  0  0  0  0  0  0  0  0  0  0  0
    8.0558   13.5993   23.7876 H   0  0  0  0  0  0  0  0  0  0  0  0
    5.4826   12.8729   26.2429 H   0  0  0  0  0  0  0  0  0  0  0  0
    5.2669   11.1495   25.9881 H   0  0  0  0  0  0  0  0  0  0  0  0
    3.6046   13.1621   22.6167 H   0  0  0  0  0  0  0  0  0  0  0  0
    3.7417   14.8993   22.9443 H   0  0  0  0  0  0  0  0  0  0  0  0
    9.1914    9.7404   22.2017 H   0  0  0  0  0  0  0  0  0  0  0  0
   10.4284   13.0835   24.3454 H   0  0  0  0  0  0  0  0  0  0  0  0
    7.2432   11.0612   25.3002 H   0  0  0  0  0  0  0  0  0  0  0  0
   12.5745   17.3296   22.1055 H   0  0  0  0  0  0  0  0  0  0  0  0
  1  2  2  0  0  0  0
  1  4  1  0  0  0  0
  2 21  1  0  0  0  0
  3 19  2  0  0  0  0
  3 20  1  0  0  0  0
  4  5  2  0  0  0  0
  4  6  1  0  0  0  0
  5  7  1  0  0  0  0
  5 19  1  0  0  0  0
  6 20  2  0  0  0  0
  6 21  1  0  0  0  0
  7 22  1  0  0  0  0
  7 24  2  0  0  0  0
  8  9  1  0  0  0  0
  8 14  1  0  0  0  0
  9 15  1  0  0  0  0
 10 11  1  0  0  0  0
 10 16  1  0  0  0  0
 11 17  1  0  0  0  0
 12 16  1  0  0  0  0
 12 18  1  0  0  0  0
 13 17  1  0  0  0  0
 13 18  1  0  0  0  0
 14 23  1  0  0  0  0
 15 27  1  0  0  0  0
 16 22  1  0  0  0  0
 17 22  1  0  0  0  0
 18 23  1  0  0  0  0
 23 27  1  0  0  0  0
 25 27  2  0  0  0  0
 26 27  2  0  0  0  0
  1 28  1  0  0  0  0
  2 29  1  0  0  0  0
  3 30  1  0  0  0  0
  8 31  1  0  0  0  0
  8 32  1  0  0  0  0
  9 33  1  0  0  0  0
  9 34  1  0  0  0  0
 10 35  1  0  0  0  0
 10 36  1  0  0  0  0
 11 37  1  0  0  0  0
 11 38  1  0  0  0  0
 12 39  1  0  0  0  0
 12 40  1  0  0  0  0
 13 41  1  0  0  0  0
 13 42  1  0  0  0  0
 14 43  1  0  0  0  0
 14 44  1  0  0  0  0
 15 45  1  0  0  0  0
 15 46  1  0  0  0  0
 16 47  1  0  0  0  0
 17 48  1  0  0  0  0
 18 49  1  0  0  0  0
 21 50  1  0  0  0  0
M  END
> <idnumber>
Z3060226505

> <heavy_atoms>
27

> <LogS>
-4.285

> <LogP>
-0.626

> <rotating_bonds>
2

> <PSA>
99.26

> <hb_acceptors>
5

> <hb_donors>
1

> <Collection>
Advanced

> <link>
https://www.enaminestore.com/catalog/Z3060226505

> <ROCS_ShapeQuery>
x0446_0A_x1080_0A_x0929_0A_x0812_0A_x0719_0A_x1140_0A_x0528_0A_x0310_0A

> <ROCS_TanimotoCombo>
0.455 

> <ROCS_ShapeTanimoto>
0.264 

> <ROCS_ColorTanimoto>
0.191 

> <ROCS_RefTversky>
0.241 

> <ROCS_RefColorTversky>
0.231 

> <ROCS_RefTverskyCombo>
0.472 

> <ROCS_FitTversky>
1.587 

> <ROCS_FitColorTversky>
0.521 

> <ROCS_FitTverskyCombo>
2.108 

> <ROCS_ColorScore>
-8.332

> <ROCS_Overlap>
2847.308

> <ROCS_Rank>
468                 

$$$$
untitled-dbase-1098109_8
  -OEChem-02092406493D

 41 43  0     1  0  0  0  0  0999 V2000
   12.9981   15.6583   22.8208 C   0  0  0  0  0  0  0  0  0  0  0  0
   10.8270   15.5361   22.2658 C   0  0  0  0  0  0  0  0  0  0  0  0
   11.7792   13.8794   23.4428 C   0  0  0  0  0  0  0  0  0  0  0  0
    7.0440   13.1443   22.5601 C   0  0  0  0  0  0  0  0  0  0  0  0
    7.8640   10.6362   24.9881 C   0  0  0  0  0  0  0  0  0  0  0  0
    8.2443    9.9233   23.6745 C   0  0  0  0  0  0  0  0  0  0  0  0
    9.3567   12.6994   24.9052 C   0  0  0  0  0  0  0  0  0  0  0  0
    9.9893   11.5078   22.7105 C   0  0  0  0  0  0  0  0  0  0  0  0
    7.9432   12.1321   24.6621 C   0  0  1  0  0  0  0  0  0  0  0  0
    8.5151   11.0544   22.6738 C   0  0  2  0  0  0  0  0  0  0  0  0
   10.4391   11.9122   24.1323 C   0  0  0  0  0  0  0  0  0  0  0  0
   12.8580   12.0529   24.7314 C   0  0  0  0  0  0  0  0  0  0  0  0
    6.5270   14.2682   23.4200 C   0  0  0  0  0  0  0  0  0  0  0  0
   11.9629   16.2490   22.2020 N   0  0  0  0  0  0  0  0  0  0  0  0
   12.9812   14.4777   23.4604 N   0  0  0  0  0  0  0  0  0  0  0  0
   10.6600   14.3471   22.8669 N   0  0  0  0  0  0  0  0  0  0  0  0
    7.7252   12.1462   23.2261 N   0  0  0  0  0  0  0  0  0  0  0  0
    9.6925   16.0920   21.6354 N   0  0  0  0  0  0  0  0  0  0  0  0
   11.6827   12.6416   24.0904 N   0  0  3  0  0  0  0  0  0  0  0  0
    6.8581   13.1578   21.3421 O   0  0  0  0  0  0  0  0  0  0  0  0
    5.8491   15.2071   22.6104 O   0  0  0  0  0  0  0  0  0  0  0  0
   13.9418   16.1888   22.8036 H   0  0  0  0  0  0  0  0  0  0  0  0
    6.8382   10.3622   25.2613 H   0  0  0  0  0  0  0  0  0  0  0  0
    8.5178   10.3440   25.8160 H   0  0  0  0  0  0  0  0  0  0  0  0
    9.1014    9.2552   23.8056 H   0  0  0  0  0  0  0  0  0  0  0  0
    7.3966    9.3151   23.3376 H   0  0  0  0  0  0  0  0  0  0  0  0
    9.3648   13.7530   24.5948 H   0  0  0  0  0  0  0  0  0  0  0  0
    9.5864   12.6828   25.9774 H   0  0  0  0  0  0  0  0  0  0  0  0
   10.6357   10.7044   22.3365 H   0  0  0  0  0  0  0  0  0  0  0  0
   10.1104   12.3567   22.0243 H   0  0  0  0  0  0  0  0  0  0  0  0
    7.1924   12.7217   25.1965 H   0  0  0  0  0  0  0  0  0  0  0  0
    8.2182   10.7874   21.6567 H   0  0  0  0  0  0  0  0  0  0  0  0
   10.6334   10.9761   24.6986 H   0  0  0  0  0  0  0  0  0  0  0  0
   12.5852   11.0875   25.1827 H   0  0  0  0  0  0  0  0  0  0  0  0
   13.6458   11.8967   23.9798 H   0  0  0  0  0  0  0  0  0  0  0  0
   13.2274   12.7320   25.5140 H   0  0  0  0  0  0  0  0  0  0  0  0
    7.3566   14.7547   23.9258 H   0  0  0  0  0  0  0  0  0  0  0  0
    5.8357   13.8645   24.1545 H   0  0  0  0  0  0  0  0  0  0  0  0
    9.7631   16.9965   21.2166 H   0  0  0  0  0  0  0  0  0  0  0  0
    8.8171   15.6147   21.7012 H   0  0  0  0  0  0  0  0  0  0  0  0
    5.5301   15.9159   23.1962 H   0  0  0  0  0  0  0  0  0  0  0  0
  1 14  1  0  0  0  0
  1 15  2  0  0  0  0
  2 14  2  0  0  0  0
  2 16  1  0  0  0  0
  2 18  1  0  0  0  0
  3 15  1  0  0  0  0
  3 16  2  0  0  0  0
  3 19  1  0  0  0  0
  4 13  1  0  0  0  0
  4 17  1  0  0  0  0
  4 20  2  0  0  0  0
  5  6  1  0  0  0  0
  5  9  1  0  0  0  0
  6 10  1  0  0  0  0
  7  9  1  0  0  0  0
  7 11  1  0  0  0  0
  8 10  1  0  0  0  0
  8 11  1  0  0  0  0
  9 17  1  0  0  0  0
 10 17  1  0  0  0  0
 11 19  1  0  0  0  0
 12 19  1  0  0  0  0
 13 21  1  0  0  0  0
  1 22  1  0  0  0  0
  5 23  1  0  0  0  0
  5 24  1  0  0  0  0
  6 25  1  0  0  0  0
  6 26  1  0  0  0  0
  7 27  1  0  0  0  0
  7 28  1  0  0  0  0
  8 29  1  0  0  0  0
  8 30  1  0  0  0  0
  9 31  1  0  0  0  0
 10 32  1  0  0  0  0
 11 33  1  0  0  0  0
 12 34  1  0  0  0  0
 12 35  1  0  0  0  0
 12 36  1  0  0  0  0
 13 37  1  0  0  0  0
 13 38  1  0  0  0  0
 18 39  1  0  0  0  0
 18 40  1  0  0  0  0
 21 41  1  0  0  0  0
M  END
> <idnumber>
Z4666196800

> <heavy_atoms>
21

> <LogS>
-2.804

> <LogP>
-0.998

> <rotating_bonds>
3

> <PSA>
108.47

> <hb_acceptors>
7

> <hb_donors>
2

> <Collection>
Advanced

> <link>
https://www.enaminestore.com/catalog/Z4666196800

> <ROCS_ShapeQuery>
x0446_0A_x1080_0A_x0929_0A_x0812_0A_x0719_0A_x1140_0A_x0528_0A_x0310_0A

> <ROCS_TanimotoCombo>
0.455 

> <ROCS_ShapeTanimoto>
0.243 

> <ROCS_ColorTanimoto>
0.212 

> <ROCS_RefTversky>
0.221 

> <ROCS_RefColorTversky>
0.252 

> <ROCS_RefTverskyCombo>
0.473 

> <ROCS_FitTversky>
1.707 

> <ROCS_FitColorTversky>
0.569 

> <ROCS_FitTverskyCombo>
2.275 

> <ROCS_ColorScore>
-9.096

> <ROCS_Overlap>
2609.115

> <ROCS_Rank>
469                 

$$$$
untitled-dbase-393497_87
  -OEChem-02092406493D

 34 36  0     0  0  0  0  0  0999 V2000
   13.1679   14.6155   22.4403 C   0  0  0  0  0  0  0  0  0  0  0  0
   12.8267   15.1362   21.1921 C   0  0  0  0  0  0  0  0  0  0  0  0
   12.1683   14.2891   23.3568 C   0  0  0  0  0  0  0  0  0  0  0  0
   11.4859   15.3307   20.8604 C   0  0  0  0  0  0  0  0  0  0  0  0
    6.0615   12.7019   24.9185 C   0  0  0  0  0  0  0  0  0  0  0  0
   10.8275   14.4835   23.0251 C   0  0  0  0  0  0  0  0  0  0  0  0
   10.4862   15.0043   21.7769 C   0  0  0  0  0  0  0  0  0  0  0  0
    7.5046   11.3381   24.2360 C   0  0  0  0  0  0  0  0  0  0  0  0
   10.1330   11.8562   23.4745 C   0  0  0  0  0  0  0  0  0  0  0  0
    9.3633   12.8745   23.8845 C   0  0  0  0  0  0  0  0  0  0  0  0
    9.4769   10.5133   23.4702 C   0  0  0  0  0  0  0  0  0  0  0  0
   10.3176    9.3455   23.0175 C   0  0  0  0  0  0  0  0  0  0  0  0
    8.6917   14.4966   20.3012 C   0  0  0  0  0  0  0  0  0  0  0  0
    7.6117   15.3154   19.6432 C   0  0  0  0  0  0  0  0  0  0  0  0
    6.2532   11.3852   24.6468 N   0  0  0  0  0  0  0  0  0  0  0  0
    7.1071   13.4965   24.7084 N   0  0  0  0  0  0  0  0  0  0  0  0
    8.2489   10.2717   23.8267 N   0  0  0  0  0  0  0  0  0  0  0  0
    8.0475   12.6246   24.2670 N   0  0  0  0  0  0  0  0  0  0  0  0
    9.8581   14.1611   23.9317 O   0  0  0  0  0  0  0  0  0  0  0  0
    9.1805   15.1999   21.4416 O   0  0  0  0  0  0  0  0  0  0  0  0
    6.5944   15.5399   20.5035 F   0  0  0  0  0  0  0  0  0  0  0  0
    7.1055   14.6817   18.5643 F   0  0  0  0  0  0  0  0  0  0  0  0
    8.0825   16.5151   19.2421 F   0  0  0  0  0  0  0  0  0  0  0  0
   14.2122   14.4639   22.6986 H   0  0  0  0  0  0  0  0  0  0  0  0
   13.6048   15.3904   20.4787 H   0  0  0  0  0  0  0  0  0  0  0  0
   12.4408   13.8836   24.3275 H   0  0  0  0  0  0  0  0  0  0  0  0
   11.2271   15.7383   19.8870 H   0  0  0  0  0  0  0  0  0  0  0  0
    5.1262   13.0995   25.2830 H   0  0  0  0  0  0  0  0  0  0  0  0
   11.1623   11.9705   23.1629 H   0  0  0  0  0  0  0  0  0  0  0  0
   10.8224    8.9179   23.8772 H   0  0  0  0  0  0  0  0  0  0  0  0
   11.0472    9.6931   22.2933 H   0  0  0  0  0  0  0  0  0  0  0  0
    9.6741    8.6028   22.5573 H   0  0  0  0  0  0  0  0  0  0  0  0
    8.2965   13.5298   20.6265 H   0  0  0  0  0  0  0  0  0  0  0  0
    9.5219   14.3281   19.6088 H   0  0  0  0  0  0  0  0  0  0  0  0
  1  2  1  0  0  0  0
  1  3  2  0  0  0  0
  2  4  2  0  0  0  0
  3  6  1  0  0  0  0
  4  7  1  0  0  0  0
  5 15  1  0  0  0  0
  5 16  2  0  0  0  0
  6  7  2  0  0  0  0
  6 19  1  0  0  0  0
  7 20  1  0  0  0  0
  8 15  2  0  0  0  0
  8 17  1  0  0  0  0
  8 18  1  0  0  0  0
  9 10  2  0  0  0  0
  9 11  1  0  0  0  0
 10 18  1  0  0  0  0
 10 19  1  0  0  0  0
 11 12  1  0  0  0  0
 11 17  2  0  0  0  0
 13 14  1  0  0  0  0
 13 20  1  0  0  0  0
 14 21  1  0  0  0  0
 14 22  1  0  0  0  0
 14 23  1  0  0  0  0
 16 18  1  0  0  0  0
  1 24  1  0  0  0  0
  2 25  1  0  0  0  0
  3 26  1  0  0  0  0
  4 27  1  0  0  0  0
  5 28  1  0  0  0  0
  9 29  1  0  0  0  0
 12 30  1  0  0  0  0
 12 31  1  0  0  0  0
 12 32  1  0  0  0  0
 13 33  1  0  0  0  0
 13 34  1  0  0  0  0
M  END
> <idnumber>
Z1082767944

> <heavy_atoms>
23

> <LogS>
-5.396

> <LogP>
2.313

> <rotating_bonds>
5

> <PSA>
61.54

> <hb_acceptors>
4

> <hb_donors>
0

> <Collection>
HTS

> <link>
https://www.enaminestore.com/catalog/Z1082767944

> <ROCS_ShapeQuery>
x0446_0A_x1080_0A_x0929_0A_x0812_0A_x0719_0A_x1140_0A_x0528_0A_x0310_0A

> <ROCS_TanimotoCombo>
0.455 

> <ROCS_ShapeTanimoto>
0.253 

> <ROCS_ColorTanimoto>
0.202 

> <ROCS_RefTversky>
0.230 

> <ROCS_RefColorTversky>
0.213 

> <ROCS_RefTverskyCombo>
0.443 

> <ROCS_FitTversky>
1.650 

> <ROCS_FitColorTversky>
0.799 

> <ROCS_FitTverskyCombo>
2.450 

> <ROCS_ColorScore>
-7.598

> <ROCS_Overlap>
2718.010

> <ROCS_Rank>
470                 

$$$$
untitled-dbase-326020_6
  -OEChem-02092406493D

 41 44  0     0  0  0  0  0  0999 V2000
   13.1588   14.6111   22.3506 C   0  0  0  0  0  0  0  0  0  0  0  0
   12.7624   15.1570   21.1298 C   0  0  0  0  0  0  0  0  0  0  0  0
    6.1208   15.6023   23.4746 C   0  0  0  0  0  0  0  0  0  0  0  0
    7.5545   15.4856   25.4157 C   0  0  0  0  0  0  0  0  0  0  0  0
    6.0831   16.9922   23.5860 C   0  0  0  0  0  0  0  0  0  0  0  0
    7.5169   16.8755   25.5271 C   0  0  0  0  0  0  0  0  0  0  0  0
   12.2013   14.2687   23.3054 C   0  0  0  0  0  0  0  0  0  0  0  0
   11.4083   15.3607   20.8638 C   0  0  0  0  0  0  0  0  0  0  0  0
    5.7248   12.6907   24.3491 C   0  0  0  0  0  0  0  0  0  0  0  0
    9.7915   10.5939   23.7329 C   0  0  0  0  0  0  0  0  0  0  0  0
    8.0422   12.5801   24.0810 C   0  0  0  0  0  0  0  0  0  0  0  0
    6.8564   14.8490   24.3896 C   0  0  0  0  0  0  0  0  0  0  0  0
    6.8956   13.4134   24.2736 C   0  0  0  0  0  0  0  0  0  0  0  0
    6.7812   17.6288   24.6122 C   0  0  0  0  0  0  0  0  0  0  0  0
   10.8473   14.4724   23.0394 C   0  0  0  0  0  0  0  0  0  0  0  0
   10.4507   15.0184   21.8186 C   0  0  0  0  0  0  0  0  0  0  0  0
    9.4074   12.8534   23.9494 C   0  0  0  0  0  0  0  0  0  0  0  0
    7.6759   11.2418   24.0189 C   0  0  0  0  0  0  0  0  0  0  0  0
    6.7413   19.1149   24.7295 C   0  0  0  0  0  0  0  0  0  0  0  0
    8.8108   15.7854   20.2765 C   0  0  0  0  0  0  0  0  0  0  0  0
   10.2886   11.8456   23.7736 N   0  0  0  0  0  0  0  0  0  0  0  0
    8.5108   10.1985   23.8454 N   0  0  0  0  0  0  0  0  0  0  0  0
    9.9105   14.1310   23.9921 O   0  0  0  0  0  0  0  0  0  0  0  0
    9.1316   15.2233   21.5474 O   0  0  0  0  0  0  0  0  0  0  0  0
    5.9962   11.0095   24.1883 S   0  0  0  0  0  0  0  0  0  0  0  0
   14.2134   14.4522   22.5577 H   0  0  0  0  0  0  0  0  0  0  0  0
   13.5078   15.4235   20.3866 H   0  0  0  0  0  0  0  0  0  0  0  0
    5.5706   15.1213   22.6693 H   0  0  0  0  0  0  0  0  0  0  0  0
    8.1326   14.9123   26.1368 H   0  0  0  0  0  0  0  0  0  0  0  0
    5.5083   17.5717   22.8685 H   0  0  0  0  0  0  0  0  0  0  0  0
    8.0636   17.3639   26.3294 H   0  0  0  0  0  0  0  0  0  0  0  0
   12.5167   13.8437   24.2545 H   0  0  0  0  0  0  0  0  0  0  0  0
   11.1064   15.7879   19.9115 H   0  0  0  0  0  0  0  0  0  0  0  0
    4.7178   13.0604   24.4909 H   0  0  0  0  0  0  0  0  0  0  0  0
   10.5193    9.8026   23.5910 H   0  0  0  0  0  0  0  0  0  0  0  0
    5.9037   19.4256   25.3659 H   0  0  0  0  0  0  0  0  0  0  0  0
    7.6711   19.5056   25.1631 H   0  0  0  0  0  0  0  0  0  0  0  0
    6.6258   19.5894   23.7462 H   0  0  0  0  0  0  0  0  0  0  0  0
    7.7272   15.8961   20.1892 H   0  0  0  0  0  0  0  0  0  0  0  0
    9.1863   15.1336   19.4836 H   0  0  0  0  0  0  0  0  0  0  0  0
    9.2830   16.7671   20.1926 H   0  0  0  0  0  0  0  0  0  0  0  0
  1  2  1  0  0  0  0
  1  7  2  0  0  0  0
  2  8  2  0  0  0  0
  3  5  2  0  0  0  0
  3 12  1  0  0  0  0
  4  6  1  0  0  0  0
  4 12  2  0  0  0  0
  5 14  1  0  0  0  0
  6 14  2  0  0  0  0
  7 15  1  0  0  0  0
  8 16  1  0  0  0  0
  9 13  2  0  0  0  0
  9 25  1  0  0  0  0
 10 21  2  0  0  0  0
 10 22  1  0  0  0  0
 11 13  1  0  0  0  0
 11 17  2  0  0  0  0
 11 18  1  0  0  0  0
 12 13  1  0  0  0  0
 14 19  1  0  0  0  0
 15 16  2  0  0  0  0
 15 23  1  0  0  0  0
 16 24  1  0  0  0  0
 17 21  1  0  0  0  0
 17 23  1  0  0  0  0
 18 22  2  0  0  0  0
 18 25  1  0  0  0  0
 20 24  1  0  0  0  0
  1 26  1  0  0  0  0
  2 27  1  0  0  0  0
  3 28  1  0  0  0  0
  4 29  1  0  0  0  0
  5 30  1  0  0  0  0
  6 31  1  0  0  0  0
  7 32  1  0  0  0  0
  8 33  1  0  0  0  0
  9 34  1  0  0  0  0
 10 35  1  0  0  0  0
 19 36  1  0  0  0  0
 19 37  1  0  0  0  0
 19 38  1  0  0  0  0
 20 39  1  0  0  0  0
 20 40  1  0  0  0  0
 20 41  1  0  0  0  0
M  END
> <idnumber>
Z31211703

> <heavy_atoms>
25

> <LogS>
-7.47

> <LogP>
4.94

> <rotating_bonds>
4

> <PSA>
44.24

> <hb_acceptors>
3

> <hb_donors>
0

> <Collection>
Legacy

> <link>
https://www.enaminestore.com/catalog/Z31211703

> <ROCS_ShapeQuery>
x0446_0A_x1080_0A_x0929_0A_x0812_0A_x0719_0A_x1140_0A_x0528_0A_x0310_0A

> <ROCS_TanimotoCombo>
0.455 

> <ROCS_ShapeTanimoto>
0.246 

> <ROCS_ColorTanimoto>
0.209 

> <ROCS_RefTversky>
0.226 

> <ROCS_RefColorTversky>
0.219 

> <ROCS_RefTverskyCombo>
0.445 

> <ROCS_FitTversky>
1.556 

> <ROCS_FitColorTversky>
0.824 

> <ROCS_FitTverskyCombo>
2.380 

> <ROCS_ColorScore>
-7.819

> <ROCS_Overlap>
2670.245

> <ROCS_Rank>
471                 

$$$$
untitled-dbase-290512_83
  -OEChem-02092406493D

 38 42  0     0  0  0  0  0  0999 V2000
    5.7583   12.7225   25.5335 C   0  0  0  0  0  0  0  0  0  0  0  0
    5.9464   11.5393   26.2370 C   0  0  0  0  0  0  0  0  0  0  0  0
   13.1692   15.2088   23.0091 C   0  0  0  0  0  0  0  0  0  0  0  0
   12.6293   14.0144   23.4875 C   0  0  0  0  0  0  0  0  0  0  0  0
    6.5570   12.9986   24.4275 C   0  0  0  0  0  0  0  0  0  0  0  0
    6.9321   10.6353   25.8332 C   0  0  0  0  0  0  0  0  0  0  0  0
   12.4071   16.0749   22.2179 C   0  0  0  0  0  0  0  0  0  0  0  0
   11.3121   13.6432   23.1939 C   0  0  0  0  0  0  0  0  0  0  0  0
   10.6853    8.0735   23.6148 C   0  0  0  0  0  0  0  0  0  0  0  0
   11.7435    7.3486   22.9944 C   0  0  0  0  0  0  0  0  0  0  0  0
    9.3362   11.4238   22.5363 C   0  0  0  0  0  0  0  0  0  0  0  0
    7.5483   12.0892   24.0215 C   0  0  0  0  0  0  0  0  0  0  0  0
    8.3662   12.3420   22.9119 C   0  0  0  0  0  0  0  0  0  0  0  0
    7.7448   10.8858   24.7309 C   0  0  0  0  0  0  0  0  0  0  0  0
   11.0846   15.7148   21.9167 C   0  0  0  0  0  0  0  0  0  0  0  0
   10.5622   14.5207   22.4030 C   0  0  0  0  0  0  0  0  0  0  0  0
    9.4539   10.2748   23.2918 C   0  0  0  0  0  0  0  0  0  0  0  0
   10.4320    9.2675   22.9762 C   0  0  0  0  0  0  0  0  0  0  0  0
   12.2585    8.0162   21.9049 C   0  0  0  0  0  0  0  0  0  0  0  0
    8.2471   13.5702   22.0966 C   0  0  0  0  0  0  0  0  0  0  0  0
    8.6853    9.9930   24.3688 N   0  0  0  0  0  0  0  0  0  0  0  0
   10.1365   16.3639   21.1806 N   0  0  0  0  0  0  0  0  0  0  0  0
    9.0351   15.6270   21.1871 N   0  0  0  0  0  0  0  0  0  0  0  0
    9.2705   14.5066   21.9089 N   0  0  0  0  0  0  0  0  0  0  0  0
    7.1810   13.7850   21.5293 O   0  0  0  0  0  0  0  0  0  0  0  0
   11.4675    9.5106   21.6341 S   0  0  0  0  0  0  0  0  0  0  0  0
   13.5306    7.5162   20.8711 Cl  0  0  0  0  0  0  0  0  0  0  0  0
    4.9927   13.4267   25.8447 H   0  0  0  0  0  0  0  0  0  0  0  0
    5.3276   11.3165   27.1015 H   0  0  0  0  0  0  0  0  0  0  0  0
   14.1955   15.4703   23.2532 H   0  0  0  0  0  0  0  0  0  0  0  0
   13.2430   13.3580   24.0998 H   0  0  0  0  0  0  0  0  0  0  0  0
    6.3873   13.9314   23.8950 H   0  0  0  0  0  0  0  0  0  0  0  0
    7.0600    9.7158   26.4018 H   0  0  0  0  0  0  0  0  0  0  0  0
   12.8336   17.0020   21.8487 H   0  0  0  0  0  0  0  0  0  0  0  0
   10.9042   12.7123   23.5704 H   0  0  0  0  0  0  0  0  0  0  0  0
   10.1412    7.7287   24.4853 H   0  0  0  0  0  0  0  0  0  0  0  0
   12.1038    6.3856   23.3339 H   0  0  0  0  0  0  0  0  0  0  0  0
    9.9782   11.6040   21.6790 H   0  0  0  0  0  0  0  0  0  0  0  0
  1  2  1  0  0  0  0
  1  5  2  0  0  0  0
  2  6  2  0  0  0  0
  3  4  1  0  0  0  0
  3  7  2  0  0  0  0
  4  8  2  0  0  0  0
  5 12  1  0  0  0  0
  6 14  1  0  0  0  0
  7 15  1  0  0  0  0
  8 16  1  0  0  0  0
  9 10  1  0  0  0  0
  9 18  2  0  0  0  0
 10 19  2  0  0  0  0
 11 13  2  0  0  0  0
 11 17  1  0  0  0  0
 12 13  1  0  0  0  0
 12 14  2  0  0  0  0
 13 20  1  0  0  0  0
 14 21  1  0  0  0  0
 15 16  2  0  0  0  0
 15 22  1  0  0  0  0
 16 24  1  0  0  0  0
 17 18  1  0  0  0  0
 17 21  2  0  0  0  0
 18 26  1  0  0  0  0
 19 26  1  0  0  0  0
 19 27  1  0  0  0  0
 20 24  1  0  0  0  0
 20 25  2  0  0  0  0
 22 23  2  0  0  0  0
 23 24  1  0  0  0  0
  1 28  1  0  0  0  0
  2 29  1  0  0  0  0
  3 30  1  0  0  0  0
  4 31  1  0  0  0  0
  5 32  1  0  0  0  0
  6 33  1  0  0  0  0
  7 34  1  0  0  0  0
  8 35  1  0  0  0  0
  9 36  1  0  0  0  0
 10 37  1  0  0  0  0
 11 38  1  0  0  0  0
M  END
> <idnumber>
Z28178352

> <heavy_atoms>
27

> <LogS>
-7.07

> <LogP>
6.462

> <rotating_bonds>
2

> <PSA>
60.67

> <hb_acceptors>
4

> <hb_donors>
0

> <Collection>
HTS

> <link>
https://www.enaminestore.com/catalog/Z28178352

> <ROCS_ShapeQuery>
x0446_0A_x1080_0A_x0929_0A_x0812_0A_x0719_0A_x1140_0A_x0528_0A_x0310_0A

> <ROCS_TanimotoCombo>
0.455 

> <ROCS_ShapeTanimoto>
0.263 

> <ROCS_ColorTanimoto>
0.191 

> <ROCS_RefTversky>
0.241 

> <ROCS_RefColorTversky>
0.209 

> <ROCS_RefTverskyCombo>
0.450 

> <ROCS_FitTversky>
1.560 

> <ROCS_FitColorTversky>
0.695 

> <ROCS_FitTverskyCombo>
2.254 

> <ROCS_ColorScore>
-7.476

> <ROCS_Overlap>
2846.559

> <ROCS_Rank>
472                 

$$$$
untitled-dbase-1070557_176
  -OEChem-02092406493D

 51 54  0     1  0  0  0  0  0999 V2000
    7.9812   12.1076   24.2869 C   0  0  0  0  0  0  0  0  0  0  0  0
    9.2278   11.9259   23.7461 C   0  0  0  0  0  0  0  0  0  0  0  0
    7.4642   10.8044   24.4502 C   0  0  0  0  0  0  0  0  0  0  0  0
   10.7526   17.1313   20.1506 C   0  0  0  0  0  0  0  0  0  0  0  0
   11.0019   15.1731   21.0869 C   0  0  0  0  0  0  0  0  0  0  0  0
   11.1741   18.2417   19.3702 C   0  0  0  0  0  0  0  0  0  0  0  0
   12.4068   18.2383   18.8254 C   0  0  0  0  0  0  0  0  0  0  0  0
   12.9243   16.0701   19.7548 C   0  0  0  0  0  0  0  0  0  0  0  0
   13.3316   17.1189   19.0136 C   0  0  0  0  0  0  0  0  0  0  0  0
   10.2041   12.9033   23.3815 C   0  0  0  0  0  0  0  0  0  0  0  0
    7.2102   13.3100   24.6770 C   0  0  0  0  0  0  0  0  0  0  0  0
    6.0959   10.5579   24.9878 C   0  0  1  0  0  0  0  0  0  0  0  0
    5.7128   12.9370   24.7809 C   0  0  2  0  0  0  0  0  0  0  0  0
   14.6775   17.2084   18.3698 C   0  0  0  0  0  0  0  0  0  0  0  0
    6.0590    9.4706   26.0541 C   0  0  0  0  0  0  0  0  0  0  0  0
    4.9165   14.0620   25.4267 C   0  0  0  0  0  0  0  0  0  0  0  0
   11.3753    9.2582   24.1738 C   0  0  0  0  0  0  0  0  0  0  0  0
   11.6092   13.8684   21.5145 C   0  0  0  0  0  0  0  0  0  0  0  0
   10.5210    9.8757   23.0801 C   0  0  0  0  0  0  0  0  0  0  0  0
    8.3050    9.8598   24.0233 N   0  0  0  0  0  0  0  0  0  0  0  0
    9.6405   16.8488   20.7949 N   0  0  0  0  0  0  0  0  0  0  0  0
    9.7992   15.6111   21.3860 N   0  0  0  0  0  0  0  0  0  0  0  0
    9.3723   10.5728   23.6113 N   0  0  0  0  0  0  0  0  0  0  0  0
   11.6509   16.0892   20.3093 N   0  0  0  0  0  0  0  0  0  0  0  0
   10.6171   12.9541   22.0327 N   0  0  0  0  0  0  0  0  0  0  0  0
   10.7010   13.6843   24.2319 O   0  0  0  0  0  0  0  0  0  0  0  0
    5.5469   11.7564   25.5948 O   0  0  0  0  0  0  0  0  0  0  0  0
   10.5011   19.0787   19.2226 H   0  0  0  0  0  0  0  0  0  0  0  0
   12.7394   19.0818   18.2286 H   0  0  0  0  0  0  0  0  0  0  0  0
   13.5470   15.2034   19.9420 H   0  0  0  0  0  0  0  0  0  0  0  0
    7.5803   13.6521   25.6513 H   0  0  0  0  0  0  0  0  0  0  0  0
    7.3486   14.1223   23.9554 H   0  0  0  0  0  0  0  0  0  0  0  0
    5.4297   10.2748   24.1636 H   0  0  0  0  0  0  0  0  0  0  0  0
    5.2959   12.7336   23.7854 H   0  0  0  0  0  0  0  0  0  0  0  0
   15.3821   17.6802   19.0537 H   0  0  0  0  0  0  0  0  0  0  0  0
   14.6108   17.7991   17.4565 H   0  0  0  0  0  0  0  0  0  0  0  0
   15.0328   16.2094   18.1185 H   0  0  0  0  0  0  0  0  0  0  0  0
    6.7168    9.7371   26.8815 H   0  0  0  0  0  0  0  0  0  0  0  0
    6.3896    8.5220   25.6310 H   0  0  0  0  0  0  0  0  0  0  0  0
    5.0435    9.3541   26.4331 H   0  0  0  0  0  0  0  0  0  0  0  0
    5.3142   14.2808   26.4183 H   0  0  0  0  0  0  0  0  0  0  0  0
    3.8696   13.7722   25.5230 H   0  0  0  0  0  0  0  0  0  0  0  0
    4.9782   14.9630   24.8153 H   0  0  0  0  0  0  0  0  0  0  0  0
   11.7422   10.0217   24.8679 H   0  0  0  0  0  0  0  0  0  0  0  0
   12.2405    8.7494   23.7377 H   0  0  0  0  0  0  0  0  0  0  0  0
   10.8052    8.5255   24.7547 H   0  0  0  0  0  0  0  0  0  0  0  0
   12.1095   13.3805   20.6709 H   0  0  0  0  0  0  0  0  0  0  0  0
   12.3623   14.0224   22.2945 H   0  0  0  0  0  0  0  0  0  0  0  0
   10.1587    9.1044   22.3910 H   0  0  0  0  0  0  0  0  0  0  0  0
   11.1060   10.5902   22.4900 H   0  0  0  0  0  0  0  0  0  0  0  0
   10.2413   12.2667   21.3877 H   0  0  0  0  0  0  0  0  0  0  0  0
  1  2  2  0  0  0  0
  1  3  1  0  0  0  0
  1 11  1  0  0  0  0
  2 10  1  0  0  0  0
  2 23  1  0  0  0  0
  3 12  1  0  0  0  0
  3 20  2  0  0  0  0
  4  6  1  0  0  0  0
  4 21  2  0  0  0  0
  4 24  1  0  0  0  0
  5 18  1  0  0  0  0
  5 22  2  0  0  0  0
  5 24  1  0  0  0  0
  6  7  2  0  0  0  0
  7  9  1  0  0  0  0
  8  9  2  0  0  0  0
  8 24  1  0  0  0  0
  9 14  1  0  0  0  0
 10 25  1  0  0  0  0
 10 26  2  0  0  0  0
 11 13  1  0  0  0  0
 12 15  1  1  0  0  0
 12 27  1  0  0  0  0
 13 16  1  1  0  0  0
 13 27  1  0  0  0  0
 17 19  1  0  0  0  0
 18 25  1  0  0  0  0
 19 23  1  0  0  0  0
 20 23  1  0  0  0  0
 21 22  1  0  0  0  0
  6 28  1  0  0  0  0
  7 29  1  0  0  0  0
  8 30  1  0  0  0  0
 11 31  1  0  0  0  0
 11 32  1  0  0  0  0
 12 33  1  0  0  0  0
 13 34  1  0  0  0  0
 14 35  1  0  0  0  0
 14 36  1  0  0  0  0
 14 37  1  0  0  0  0
 15 38  1  0  0  0  0
 15 39  1  0  0  0  0
 15 40  1  0  0  0  0
 16 41  1  0  0  0  0
 16 42  1  0  0  0  0
 16 43  1  0  0  0  0
 17 44  1  0  0  0  0
 17 45  1  0  0  0  0
 17 46  1  0  0  0  0
 18 47  1  0  0  0  0
 18 48  1  0  0  0  0
 19 49  1  0  0  0  0
 19 50  1  0  0  0  0
 25 51  1  0  0  0  0
M  END
> <idnumber>
Z4105195379

> <heavy_atoms>
27

> <LogS>
-2.674

> <LogP>
0.846

> <rotating_bonds>
4

> <PSA>
86.34

> <hb_acceptors>
5

> <hb_donors>
1

> <Collection>
HTS

> <link>
https://www.enaminestore.com/catalog/Z4105195379

> <ROCS_ShapeQuery>
x0446_0A_x1080_0A_x0929_0A_x0812_0A_x0719_0A_x1140_0A_x0528_0A_x0310_0A

> <ROCS_TanimotoCombo>
0.455 

> <ROCS_ShapeTanimoto>
0.242 

> <ROCS_ColorTanimoto>
0.213 

> <ROCS_RefTversky>
0.225 

> <ROCS_RefColorTversky>
0.233 

> <ROCS_RefTverskyCombo>
0.457 

> <ROCS_FitTversky>
1.471 

> <ROCS_FitColorTversky>
0.714 

> <ROCS_FitTverskyCombo>
2.185 

> <ROCS_ColorScore>
-8.337

> <ROCS_Overlap>
2655.702

> <ROCS_Rank>
473                 

$$$$
untitled-dbase-430341_8
  -OEChem-02092406493D

 45 48  0     0  0  0  0  0  0999 V2000
    6.1764   13.5245   24.9501 C   0  0  0  0  0  0  0  0  0  0  0  0
    5.8631   12.2429   25.3970 C   0  0  0  0  0  0  0  0  0  0  0  0
    7.2562   13.7223   24.0879 C   0  0  0  0  0  0  0  0  0  0  0  0
    6.6246   11.1531   24.9773 C   0  0  0  0  0  0  0  0  0  0  0  0
    8.0311   12.6318   23.6769 C   0  0  0  0  0  0  0  0  0  0  0  0
    7.7072   11.3510   24.1120 C   0  0  0  0  0  0  0  0  0  0  0  0
    9.6290   14.0855   22.3030 C   0  0  0  0  0  0  0  0  0  0  0  0
   10.7633   15.8996   21.8774 C   0  0  0  0  0  0  0  0  0  0  0  0
    9.1868   12.7558   22.7686 C   0  0  0  0  0  0  0  0  0  0  0  0
    8.5014   10.2031   23.6391 C   0  0  0  0  0  0  0  0  0  0  0  0
   11.8795   16.8772   21.8379 C   0  0  0  0  0  0  0  0  0  0  0  0
   13.1306   16.3136   21.1659 C   0  0  0  0  0  0  0  0  0  0  0  0
   13.9196   15.3332   22.0385 C   0  0  0  0  0  0  0  0  0  0  0  0
   13.2166   14.0018   22.3143 C   0  0  0  0  0  0  0  0  0  0  0  0
   11.9738   14.1284   23.1913 C   0  0  0  0  0  0  0  0  0  0  0  0
   11.6821    9.1183   24.3545 C   0  0  0  0  0  0  0  0  0  0  0  0
   11.7485    9.3841   22.8573 C   0  0  0  0  0  0  0  0  0  0  0  0
   10.3718    9.4275   22.2052 C   0  0  0  0  0  0  0  0  0  0  0  0
    8.8469   14.8879   21.6175 N   0  0  0  0  0  0  0  0  0  0  0  0
    9.5631   16.0357   21.3482 N   0  0  0  0  0  0  0  0  0  0  0  0
    9.8654   11.7385   22.3388 N   0  0  0  0  0  0  0  0  0  0  0  0
   10.8377   14.6796   22.4900 N   0  0  0  0  0  0  0  0  0  0  0  0
    9.5338   10.4825   22.7507 N   0  0  0  0  0  0  0  0  0  0  0  0
    8.2136    9.0771   24.0394 O   0  0  0  0  0  0  0  0  0  0  0  0
    5.5789   14.3720   25.2736 H   0  0  0  0  0  0  0  0  0  0  0  0
    5.0224   12.0919   26.0679 H   0  0  0  0  0  0  0  0  0  0  0  0
    7.4746   14.7336   23.7572 H   0  0  0  0  0  0  0  0  0  0  0  0
    6.3561   10.1611   25.3302 H   0  0  0  0  0  0  0  0  0  0  0  0
   11.5549   17.7986   21.3405 H   0  0  0  0  0  0  0  0  0  0  0  0
   12.1328   17.1511   22.8695 H   0  0  0  0  0  0  0  0  0  0  0  0
   12.8149   15.7726   20.2648 H   0  0  0  0  0  0  0  0  0  0  0  0
   13.7882   17.1251   20.8300 H   0  0  0  0  0  0  0  0  0  0  0  0
   14.9029   15.1469   21.5895 H   0  0  0  0  0  0  0  0  0  0  0  0
   14.1088   15.8196   23.0037 H   0  0  0  0  0  0  0  0  0  0  0  0
   12.9076   13.5843   21.3479 H   0  0  0  0  0  0  0  0  0  0  0  0
   13.9261   13.2895   22.7531 H   0  0  0  0  0  0  0  0  0  0  0  0
   11.6686   13.1576   23.5980 H   0  0  0  0  0  0  0  0  0  0  0  0
   12.2013   14.7808   24.0410 H   0  0  0  0  0  0  0  0  0  0  0  0
   11.0996    9.8920   24.8647 H   0  0  0  0  0  0  0  0  0  0  0  0
   11.2021    8.1529   24.5447 H   0  0  0  0  0  0  0  0  0  0  0  0
   12.6816    9.0893   24.7994 H   0  0  0  0  0  0  0  0  0  0  0  0
   12.3385    8.5893   22.3862 H   0  0  0  0  0  0  0  0  0  0  0  0
   12.2779   10.3282   22.6823 H   0  0  0  0  0  0  0  0  0  0  0  0
   10.4715    9.6207   21.1325 H   0  0  0  0  0  0  0  0  0  0  0  0
    9.8416    8.4785   22.3327 H   0  0  0  0  0  0  0  0  0  0  0  0
  1  2  1  0  0  0  0
  1  3  2  0  0  0  0
  2  4  2  0  0  0  0
  3  5  1  0  0  0  0
  4  6  1  0  0  0  0
  5  6  2  0  0  0  0
  5  9  1  0  0  0  0
  6 10  1  0  0  0  0
  7  9  1  0  0  0  0
  7 19  2  0  0  0  0
  7 22  1  0  0  0  0
  8 11  1  0  0  0  0
  8 20  2  0  0  0  0
  8 22  1  0  0  0  0
  9 21  2  0  0  0  0
 10 23  1  0  0  0  0
 10 24  2  0  0  0  0
 11 12  1  0  0  0  0
 12 13  1  0  0  0  0
 13 14  1  0  0  0  0
 14 15  1  0  0  0  0
 15 22  1  0  0  0  0
 16 17  1  0  0  0  0
 17 18  1  0  0  0  0
 18 23  1  0  0  0  0
 19 20  1  0  0  0  0
 21 23  1  0  0  0  0
  1 25  1  0  0  0  0
  2 26  1  0  0  0  0
  3 27  1  0  0  0  0
  4 28  1  0  0  0  0
 11 29  1  0  0  0  0
 11 30  1  0  0  0  0
 12 31  1  0  0  0  0
 12 32  1  0  0  0  0
 13 33  1  0  0  0  0
 13 34  1  0  0  0  0
 14 35  1  0  0  0  0
 14 36  1  0  0  0  0
 15 37  1  0  0  0  0
 15 38  1  0  0  0  0
 16 39  1  0  0  0  0
 16 40  1  0  0  0  0
 16 41  1  0  0  0  0
 17 42  1  0  0  0  0
 17 43  1  0  0  0  0
 18 44  1  0  0  0  0
 18 45  1  0  0  0  0
M  END
> <idnumber>
Z55729778

> <heavy_atoms>
24

> <LogS>
-3.64

> <LogP>
2.168

> <rotating_bonds>
3

> <PSA>
63.38

> <hb_acceptors>
4

> <hb_donors>
0

> <Collection>
Legacy

> <link>
https://www.enaminestore.com/catalog/Z55729778

> <ROCS_ShapeQuery>
x0446_0A_x1080_0A_x0929_0A_x0812_0A_x0719_0A_x1140_0A_x0528_0A_x0310_0A

> <ROCS_TanimotoCombo>
0.455 

> <ROCS_ShapeTanimoto>
0.271 

> <ROCS_ColorTanimoto>
0.184 

> <ROCS_RefTversky>
0.243 

> <ROCS_RefColorTversky>
0.202 

> <ROCS_RefTverskyCombo>
0.445 

> <ROCS_FitTversky>
1.716 

> <ROCS_FitColorTversky>
0.675 

> <ROCS_FitTverskyCombo>
2.391 

> <ROCS_ColorScore>
-7.230

> <ROCS_Overlap>
2873.330

> <ROCS_Rank>
474                 

$$$$
untitled-dbase-323038_22
  -OEChem-02092406493D

 37 40  0     0  0  0  0  0  0999 V2000
    5.6524   12.8269   24.7096 C   0  0  0  0  0  0  0  0  0  0  0  0
    5.4863   11.4638   24.9274 C   0  0  0  0  0  0  0  0  0  0  0  0
   11.9737    7.6251   23.1269 C   0  0  0  0  0  0  0  0  0  0  0  0
   13.1351   14.5920   23.6402 C   0  0  0  0  0  0  0  0  0  0  0  0
    6.8976   13.3138   24.3247 C   0  0  0  0  0  0  0  0  0  0  0  0
   10.8978    8.4923   23.2809 C   0  0  0  0  0  0  0  0  0  0  0  0
    6.5650   10.5905   24.7597 C   0  0  0  0  0  0  0  0  0  0  0  0
   11.8417   14.2452   24.0144 C   0  0  0  0  0  0  0  0  0  0  0  0
   13.2443    8.1170   23.3789 C   0  0  0  0  0  0  0  0  0  0  0  0
   13.3112   15.2119   22.4136 C   0  0  0  0  0  0  0  0  0  0  0  0
   12.4308   10.2003   23.9043 C   0  0  0  0  0  0  0  0  0  0  0  0
    7.9774   12.4293   24.1582 C   0  0  0  0  0  0  0  0  0  0  0  0
   11.1221    9.8062   23.6767 C   0  0  0  0  0  0  0  0  0  0  0  0
    7.8221   11.0504   24.3751 C   0  0  0  0  0  0  0  0  0  0  0  0
   10.7789   14.5249   23.1626 C   0  0  0  0  0  0  0  0  0  0  0  0
   11.0604   15.1479   21.9575 C   0  0  0  0  0  0  0  0  0  0  0  0
    9.2475   12.8509   23.7750 C   0  0  0  0  0  0  0  0  0  0  0  0
   10.0290   10.7279   23.8443 C   0  0  0  0  0  0  0  0  0  0  0  0
   13.5015    9.3868   23.7650 N   0  0  0  0  0  0  0  0  0  0  0  0
   12.3036   15.4998   21.5595 N   0  0  0  0  0  0  0  0  0  0  0  0
    8.8479   10.1955   24.2185 N   0  0  0  0  0  0  0  0  0  0  0  0
   10.2960   12.0227   23.6094 N   0  0  0  0  0  0  0  0  0  0  0  0
    9.9440   15.4209   21.1028 N   0  3  0  0  0  0  0  0  0  0  0  0
    9.6057   14.5543   20.2695 O   0  5  0  0  0  0  0  0  0  0  0  0
    9.3538   16.5148   21.2247 O   0  0  0  0  0  0  0  0  0  0  0  0
    9.4972   14.1782   23.5397 O   0  0  0  0  0  0  0  0  0  0  0  0
    4.8156   13.5065   24.8393 H   0  0  0  0  0  0  0  0  0  0  0  0
    4.5173   11.0757   25.2284 H   0  0  0  0  0  0  0  0  0  0  0  0
   11.8233    6.5965   22.8201 H   0  0  0  0  0  0  0  0  0  0  0  0
   13.9786   14.3830   24.2879 H   0  0  0  0  0  0  0  0  0  0  0  0
    7.0117   14.3818   24.1576 H   0  0  0  0  0  0  0  0  0  0  0  0
    9.8907    8.1306   23.0891 H   0  0  0  0  0  0  0  0  0  0  0  0
    6.4079    9.5281   24.9375 H   0  0  0  0  0  0  0  0  0  0  0  0
   11.6691   13.7578   24.9699 H   0  0  0  0  0  0  0  0  0  0  0  0
   14.1171    7.4807   23.2727 H   0  0  0  0  0  0  0  0  0  0  0  0
   14.3002   15.5021   22.0746 H   0  0  0  0  0  0  0  0  0  0  0  0
   12.6731   11.2123   24.2163 H   0  0  0  0  0  0  0  0  0  0  0  0
  1  2  1  0  0  0  0
  1  5  2  0  0  0  0
  2  7  2  0  0  0  0
  3  6  2  0  0  0  0
  3  9  1  0  0  0  0
  4  8  2  0  0  0  0
  4 10  1  0  0  0  0
  5 12  1  0  0  0  0
  6 13  1  0  0  0  0
  7 14  1  0  0  0  0
  8 15  1  0  0  0  0
  9 19  2  0  0  0  0
 10 20  2  0  0  0  0
 11 13  2  0  0  0  0
 11 19  1  0  0  0  0
 12 14  1  0  0  0  0
 12 17  2  0  0  0  0
 13 18  1  0  0  0  0
 14 21  2  0  0  0  0
 15 16  2  0  0  0  0
 15 26  1  0  0  0  0
 16 20  1  0  0  0  0
 16 23  1  0  0  0  0
 17 22  1  0  0  0  0
 17 26  1  0  0  0  0
 18 21  1  0  0  0  0
 18 22  2  0  0  0  0
 23 24  1  0  0  0  0
 23 25  2  0  0  0  0
  1 27  1  0  0  0  0
  2 28  1  0  0  0  0
  3 29  1  0  0  0  0
  4 30  1  0  0  0  0
  5 31  1  0  0  0  0
  6 32  1  0  0  0  0
  7 33  1  0  0  0  0
  8 34  1  0  0  0  0
  9 35  1  0  0  0  0
 10 36  1  0  0  0  0
 11 37  1  0  0  0  0
M  CHG  2  23   1  24  -1
M  END
> <idnumber>
Z31112523

> <heavy_atoms>
26

> <LogS>
-5.6

> <LogP>
2.028

> <rotating_bonds>
4

> <PSA>
103.93

> <hb_acceptors>
6

> <hb_donors>
0

> <Collection>
Legacy

> <link>
https://www.enaminestore.com/catalog/Z31112523

> <ROCS_ShapeQuery>
x0446_0A_x1080_0A_x0929_0A_x0812_0A_x0719_0A_x1140_0A_x0528_0A_x0310_0A

> <ROCS_TanimotoCombo>
0.455 

> <ROCS_ShapeTanimoto>
0.263 

> <ROCS_ColorTanimoto>
0.192 

> <ROCS_RefTversky>
0.240 

> <ROCS_RefColorTversky>
0.217 

> <ROCS_RefTverskyCombo>
0.456 

> <ROCS_FitTversky>
1.574 

> <ROCS_FitColorTversky>
0.630 

> <ROCS_FitTverskyCombo>
2.203 

> <ROCS_ColorScore>
-7.773

> <ROCS_Overlap>
2833.125

> <ROCS_Rank>
475                 

$$$$
untitled-dbase-684044_21
  -OEChem-02092406493D

 45 48  0     0  0  0  0  0  0999 V2000
    6.4363   13.5657   25.0506 C   0  0  0  0  0  0  0  0  0  0  0  0
    6.0954   12.2850   25.4794 C   0  0  0  0  0  0  0  0  0  0  0  0
    7.4535   13.7435   24.1112 C   0  0  0  0  0  0  0  0  0  0  0  0
    6.7660   11.1764   24.9645 C   0  0  0  0  0  0  0  0  0  0  0  0
    8.1380   12.6332   23.6040 C   0  0  0  0  0  0  0  0  0  0  0  0
    7.7856   11.3542   24.0218 C   0  0  0  0  0  0  0  0  0  0  0  0
    9.6935   14.0587   22.1539 C   0  0  0  0  0  0  0  0  0  0  0  0
   10.8937   15.8267   21.7097 C   0  0  0  0  0  0  0  0  0  0  0  0
    9.2233   12.7354   22.6101 C   0  0  0  0  0  0  0  0  0  0  0  0
    8.4816   10.1880   23.4495 C   0  0  0  0  0  0  0  0  0  0  0  0
   12.0768   16.7242   21.6797 C   0  0  0  0  0  0  0  0  0  0  0  0
   13.3783   15.9497   21.9141 C   0  0  0  0  0  0  0  0  0  0  0  0
   13.2354   14.9719   23.0848 C   0  0  0  0  0  0  0  0  0  0  0  0
   12.1228   13.9563   22.8165 C   0  0  0  0  0  0  0  0  0  0  0  0
   13.0396   10.4560   21.9363 C   0  0  0  0  0  0  0  0  0  0  0  0
   12.3176    9.8813   23.1451 C   0  0  0  0  0  0  0  0  0  0  0  0
   11.2982    8.8168   22.7330 C   0  0  0  0  0  0  0  0  0  0  0  0
   10.1920    9.3774   21.8453 C   0  0  0  0  0  0  0  0  0  0  0  0
    8.9115   14.9324   21.5581 N   0  0  0  0  0  0  0  0  0  0  0  0
    9.6711   16.0543   21.2771 N   0  0  0  0  0  0  0  0  0  0  0  0
    9.8141   11.7034   22.0943 N   0  0  0  0  0  0  0  0  0  0  0  0
   10.9389   14.5812   22.2712 N   0  0  0  0  0  0  0  0  0  0  0  0
    9.4535   10.4503   22.4905 N   0  0  0  0  0  0  0  0  0  0  0  0
    8.1701    9.0630   23.8348 O   0  0  0  0  0  0  0  0  0  0  0  0
    5.9095   14.4283   25.4485 H   0  0  0  0  0  0  0  0  0  0  0  0
    5.3037   12.1497   26.2104 H   0  0  0  0  0  0  0  0  0  0  0  0
    7.6955   14.7547   23.7971 H   0  0  0  0  0  0  0  0  0  0  0  0
    6.4767   10.1860   25.3054 H   0  0  0  0  0  0  0  0  0  0  0  0
   12.1159   17.2175   20.7013 H   0  0  0  0  0  0  0  0  0  0  0  0
   11.9733   17.5100   22.4358 H   0  0  0  0  0  0  0  0  0  0  0  0
   13.6544   15.4086   21.0023 H   0  0  0  0  0  0  0  0  0  0  0  0
   14.1929   16.6531   22.1299 H   0  0  0  0  0  0  0  0  0  0  0  0
   14.1867   14.4450   23.2316 H   0  0  0  0  0  0  0  0  0  0  0  0
   13.0230   15.5163   24.0112 H   0  0  0  0  0  0  0  0  0  0  0  0
   12.4664   13.1912   22.1128 H   0  0  0  0  0  0  0  0  0  0  0  0
   11.8175   13.4683   23.7493 H   0  0  0  0  0  0  0  0  0  0  0  0
   12.3304   10.9005   21.2307 H   0  0  0  0  0  0  0  0  0  0  0  0
   13.7413   11.2355   22.2493 H   0  0  0  0  0  0  0  0  0  0  0  0
   13.6061    9.6800   21.4117 H   0  0  0  0  0  0  0  0  0  0  0  0
   13.0545    9.4454   23.8296 H   0  0  0  0  0  0  0  0  0  0  0  0
   11.8188   10.6967   23.6809 H   0  0  0  0  0  0  0  0  0  0  0  0
   11.8115    7.9980   22.2137 H   0  0  0  0  0  0  0  0  0  0  0  0
   10.8400    8.3910   23.6338 H   0  0  0  0  0  0  0  0  0  0  0  0
    9.4758    8.5992   21.5635 H   0  0  0  0  0  0  0  0  0  0  0  0
   10.6225    9.7923   20.9284 H   0  0  0  0  0  0  0  0  0  0  0  0
  1  2  1  0  0  0  0
  1  3  2  0  0  0  0
  2  4  2  0  0  0  0
  3  5  1  0  0  0  0
  4  6  1  0  0  0  0
  5  6  2  0  0  0  0
  5  9  1  0  0  0  0
  6 10  1  0  0  0  0
  7  9  1  0  0  0  0
  7 19  2  0  0  0  0
  7 22  1  0  0  0  0
  8 11  1  0  0  0  0
  8 20  2  0  0  0  0
  8 22  1  0  0  0  0
  9 21  2  0  0  0  0
 10 23  1  0  0  0  0
 10 24  2  0  0  0  0
 11 12  1  0  0  0  0
 12 13  1  0  0  0  0
 13 14  1  0  0  0  0
 14 22  1  0  0  0  0
 15 16  1  0  0  0  0
 16 17  1  0  0  0  0
 17 18  1  0  0  0  0
 18 23  1  0  0  0  0
 19 20  1  0  0  0  0
 21 23  1  0  0  0  0
  1 25  1  0  0  0  0
  2 26  1  0  0  0  0
  3 27  1  0  0  0  0
  4 28  1  0  0  0  0
 11 29  1  0  0  0  0
 11 30  1  0  0  0  0
 12 31  1  0  0  0  0
 12 32  1  0  0  0  0
 13 33  1  0  0  0  0
 13 34  1  0  0  0  0
 14 35  1  0  0  0  0
 14 36  1  0  0  0  0
 15 37  1  0  0  0  0
 15 38  1  0  0  0  0
 15 39  1  0  0  0  0
 16 40  1  0  0  0  0
 16 41  1  0  0  0  0
 17 42  1  0  0  0  0
 17 43  1  0  0  0  0
 18 44  1  0  0  0  0
 18 45  1  0  0  0  0
M  END
> <idnumber>
Z273993524

> <heavy_atoms>
24

> <LogS>
-3.87

> <LogP>
2.138

> <rotating_bonds>
4

> <PSA>
63.38

> <hb_acceptors>
4

> <hb_donors>
0

> <Collection>
Legacy

> <link>
https://www.enaminestore.com/catalog/Z273993524

> <ROCS_ShapeQuery>
x0446_0A_x1080_0A_x0929_0A_x0812_0A_x0719_0A_x1140_0A_x0528_0A_x0310_0A

> <ROCS_TanimotoCombo>
0.455 

> <ROCS_ShapeTanimoto>
0.268 

> <ROCS_ColorTanimoto>
0.187 

> <ROCS_RefTversky>
0.241 

> <ROCS_RefColorTversky>
0.204 

> <ROCS_RefTverskyCombo>
0.446 

> <ROCS_FitTversky>
1.703 

> <ROCS_FitColorTversky>
0.683 

> <ROCS_FitTverskyCombo>
2.386 

> <ROCS_ColorScore>
-7.319

> <ROCS_Overlap>
2850.719

> <ROCS_Rank>
476                 

$$$$
untitled-dbase-483758_55
  -OEChem-02092406493D

 51 55  0     0  0  0  0  0  0999 V2000
   12.2913    7.8430   21.6821 C   0  0  0  0  0  0  0  0  0  0  0  0
   12.6616    8.9888   22.3860 C   0  0  0  0  0  0  0  0  0  0  0  0
   10.9425    7.5161   21.5417 C   0  0  0  0  0  0  0  0  0  0  0  0
   14.9161   13.2800   22.1741 C   0  0  0  0  0  0  0  0  0  0  0  0
   15.3310   14.3383   22.9775 C   0  0  0  0  0  0  0  0  0  0  0  0
   11.6832    9.8077   22.9497 C   0  0  0  0  0  0  0  0  0  0  0  0
    9.9641    8.3351   22.1054 C   0  0  0  0  0  0  0  0  0  0  0  0
   13.6253   13.2674   21.6379 C   0  0  0  0  0  0  0  0  0  0  0  0
   14.4539   15.3842   23.2502 C   0  0  0  0  0  0  0  0  0  0  0  0
   10.3344    9.4809   22.8094 C   0  0  0  0  0  0  0  0  0  0  0  0
   12.7279   14.3105   21.9109 C   0  0  0  0  0  0  0  0  0  0  0  0
   13.1568   15.3613   22.7301 C   0  0  0  0  0  0  0  0  0  0  0  0
    9.3300   10.3211   23.3879 C   0  0  0  0  0  0  0  0  0  0  0  0
    9.1300   11.6474   23.0852 C   0  0  0  0  0  0  0  0  0  0  0  0
    7.6866   10.9312   24.6103 C   0  0  0  0  0  0  0  0  0  0  0  0
    6.5938   11.1040   25.5074 C   0  0  0  0  0  0  0  0  0  0  0  0
    5.9918   12.3050   25.6043 C   0  0  0  0  0  0  0  0  0  0  0  0
    7.4600   13.2873   23.9614 C   0  0  0  0  0  0  0  0  0  0  0  0
    6.4272   13.4523   24.8097 C   0  0  0  0  0  0  0  0  0  0  0  0
   10.5251   15.3491   21.7515 C   0  0  0  0  0  0  0  0  0  0  0  0
   10.4326   12.1634   20.9921 C   0  0  0  0  0  0  0  0  0  0  0  0
   10.9928   16.1508   22.9494 C   0  0  0  0  0  0  0  0  0  0  0  0
    5.6968   14.7439   24.9873 C   0  0  0  0  0  0  0  0  0  0  0  0
   11.0282   13.3924   20.3327 C   0  0  0  0  0  0  0  0  0  0  0  0
    8.4350    9.8837   24.3311 N   0  0  0  0  0  0  0  0  0  0  0  0
    8.0757   12.0421   23.8686 N   0  0  0  0  0  0  0  0  0  0  0  0
   11.4200   14.3604   21.3493 N   0  0  0  0  0  0  0  0  0  0  0  0
    9.8015   12.5079   22.1844 N   0  0  0  0  0  0  0  0  0  0  0  0
    9.4086   15.5393   21.2701 O   0  0  0  0  0  0  0  0  0  0  0  0
   10.5175   11.0467   20.4912 O   0  0  0  0  0  0  0  0  0  0  0  0
   12.3711   16.4450   23.0113 O   0  0  0  0  0  0  0  0  0  0  0  0
   13.0529    7.2058   21.2422 H   0  0  0  0  0  0  0  0  0  0  0  0
   13.7116    9.2441   22.4944 H   0  0  0  0  0  0  0  0  0  0  0  0
   10.6544    6.6246   20.9925 H   0  0  0  0  0  0  0  0  0  0  0  0
   15.5999   12.4643   21.9569 H   0  0  0  0  0  0  0  0  0  0  0  0
   16.3369   14.3496   23.3866 H   0  0  0  0  0  0  0  0  0  0  0  0
   11.9879   10.6976   23.4956 H   0  0  0  0  0  0  0  0  0  0  0  0
    8.9169    8.0664   21.9870 H   0  0  0  0  0  0  0  0  0  0  0  0
   13.3489   12.4262   21.0086 H   0  0  0  0  0  0  0  0  0  0  0  0
   14.7840   16.2133   23.8705 H   0  0  0  0  0  0  0  0  0  0  0  0
    6.2570   10.2639   26.1041 H   0  0  0  0  0  0  0  0  0  0  0  0
    5.1580   12.4416   26.2859 H   0  0  0  0  0  0  0  0  0  0  0  0
    7.8408   14.0890   23.3390 H   0  0  0  0  0  0  0  0  0  0  0  0
   10.4594   17.1078   22.9397 H   0  0  0  0  0  0  0  0  0  0  0  0
   10.6932   15.6185   23.8610 H   0  0  0  0  0  0  0  0  0  0  0  0
    6.1700   15.3295   25.7747 H   0  0  0  0  0  0  0  0  0  0  0  0
    4.6597   14.5470   25.2582 H   0  0  0  0  0  0  0  0  0  0  0  0
    5.7165   15.3095   24.0560 H   0  0  0  0  0  0  0  0  0  0  0  0
   10.2919   13.8451   19.6611 H   0  0  0  0  0  0  0  0  0  0  0  0
   11.9033   13.0934   19.7474 H   0  0  0  0  0  0  0  0  0  0  0  0
    9.8167   13.4900   22.4516 H   0  0  0  0  0  0  0  0  0  0  0  0
  1  2  1  0  0  0  0
  1  3  2  0  0  0  0
  2  6  2  0  0  0  0
  3  7  1  0  0  0  0
  4  5  1  0  0  0  0
  4  8  2  0  0  0  0
  5  9  2  0  0  0  0
  6 10  1  0  0  0  0
  7 10  2  0  0  0  0
  8 11  1  0  0  0  0
  9 12  1  0  0  0  0
 10 13  1  0  0  0  0
 11 12  2  0  0  0  0
 11 27  1  0  0  0  0
 12 31  1  0  0  0  0
 13 14  2  0  0  0  0
 13 25  1  0  0  0  0
 14 26  1  0  0  0  0
 14 28  1  0  0  0  0
 15 16  1  0  0  0  0
 15 25  2  0  0  0  0
 15 26  1  0  0  0  0
 16 17  2  0  0  0  0
 17 19  1  0  0  0  0
 18 19  2  0  0  0  0
 18 26  1  0  0  0  0
 19 23  1  0  0  0  0
 20 22  1  0  0  0  0
 20 27  1  0  0  0  0
 20 29  2  0  0  0  0
 21 24  1  0  0  0  0
 21 28  1  0  0  0  0
 21 30  2  0  0  0  0
 22 31  1  0  0  0  0
 24 27  1  0  0  0  0
  1 32  1  0  0  0  0
  2 33  1  0  0  0  0
  3 34  1  0  0  0  0
  4 35  1  0  0  0  0
  5 36  1  0  0  0  0
  6 37  1  0  0  0  0
  7 38  1  0  0  0  0
  8 39  1  0  0  0  0
  9 40  1  0  0  0  0
 16 41  1  0  0  0  0
 17 42  1  0  0  0  0
 18 43  1  0  0  0  0
 22 44  1  0  0  0  0
 22 45  1  0  0  0  0
 23 46  1  0  0  0  0
 23 47  1  0  0  0  0
 23 48  1  0  0  0  0
 24 49  1  0  0  0  0
 24 50  1  0  0  0  0
 28 51  1  0  0  0  0
M  END
> <idnumber>
Z70997800

> <heavy_atoms>
31

> <LogS>
-6.49

> <LogP>
3.879

> <rotating_bonds>
4

> <PSA>
75.94

> <hb_acceptors>
4

> <hb_donors>
1

> <Collection>
HTS

> <link>
https://www.enaminestore.com/catalog/Z70997800

> <ROCS_ShapeQuery>
x0446_0A_x1080_0A_x0929_0A_x0812_0A_x0719_0A_x1140_0A_x0528_0A_x0310_0A

> <ROCS_TanimotoCombo>
0.455 

> <ROCS_ShapeTanimoto>
0.262 

> <ROCS_ColorTanimoto>
0.193 

> <ROCS_RefTversky>
0.243 

> <ROCS_RefColorTversky>
0.217 

> <ROCS_RefTverskyCombo>
0.460 

> <ROCS_FitTversky>
1.428 

> <ROCS_FitColorTversky>
0.632 

> <ROCS_FitTverskyCombo>
2.060 

> <ROCS_ColorScore>
-7.798

> <ROCS_Overlap>
2872.392

> <ROCS_Rank>
477                 

$$$$
untitled-dbase-344531_135
  -OEChem-02092406493D

 48 51  0     0  0  0  0  0  0999 V2000
    5.3715   12.0926   24.8957 C   0  0  0  0  0  0  0  0  0  0  0  0
    5.9774   13.3459   24.8177 C   0  0  0  0  0  0  0  0  0  0  0  0
    6.1078   10.9418   24.6188 C   0  0  0  0  0  0  0  0  0  0  0  0
    7.3235   13.4534   24.4623 C   0  0  0  0  0  0  0  0  0  0  0  0
    9.4821   13.4857   20.6817 C   0  0  0  0  0  0  0  0  0  0  0  0
   11.4125   14.5294   21.6195 C   0  0  0  0  0  0  0  0  0  0  0  0
    7.4550   11.0551   24.2636 C   0  0  0  0  0  0  0  0  0  0  0  0
   10.8324   13.4033   21.0222 C   0  0  0  0  0  0  0  0  0  0  0  0
    8.0781   12.3094   24.1812 C   0  0  0  0  0  0  0  0  0  0  0  0
    8.7916   14.6633   20.9483 C   0  0  0  0  0  0  0  0  0  0  0  0
   12.6720   14.9177   22.1178 C   0  0  0  0  0  0  0  0  0  0  0  0
   10.6096   15.6396   21.8291 C   0  0  0  0  0  0  0  0  0  0  0  0
    8.2555    9.8476   23.9656 C   0  0  0  0  0  0  0  0  0  0  0  0
   10.1038   11.3782   23.5715 C   0  0  0  0  0  0  0  0  0  0  0  0
   11.6023   12.1773   20.7589 C   0  0  0  0  0  0  0  0  0  0  0  0
    7.3443   14.7360   20.5786 C   0  0  0  0  0  0  0  0  0  0  0  0
   13.9167   14.1291   22.1531 C   0  0  0  0  0  0  0  0  0  0  0  0
   11.0262   17.9068   22.8247 C   0  0  0  0  0  0  0  0  0  0  0  0
   11.7525    9.7918   21.3597 C   0  0  0  0  0  0  0  0  0  0  0  0
   11.5515   11.4418   23.1861 C   0  0  0  0  0  0  0  0  0  0  0  0
    9.3076   15.7767   21.5231 N   0  0  0  0  0  0  0  0  0  0  0  0
   12.6757   16.1637   22.6027 N   0  0  0  0  0  0  0  0  0  0  0  0
    9.4322   12.4562   23.8263 N   0  0  0  0  0  0  0  0  0  0  0  0
   11.4093   16.5768   22.4137 N   0  0  0  0  0  0  0  0  0  0  0  0
    9.5742   10.1056   23.6280 N   0  0  0  0  0  0  0  0  0  0  0  0
   11.6304   11.1945   21.7760 N   0  0  0  0  0  0  0  0  0  0  0  0
    7.7661    8.7255   24.0210 O   0  0  0  0  0  0  0  0  0  0  0  0
   12.1533   12.1057   19.6611 O   0  0  0  0  0  0  0  0  0  0  0  0
    4.3242   12.0134   25.1727 H   0  0  0  0  0  0  0  0  0  0  0  0
    5.4007   14.2406   25.0339 H   0  0  0  0  0  0  0  0  0  0  0  0
    5.6197    9.9737   24.6845 H   0  0  0  0  0  0  0  0  0  0  0  0
    7.7803   14.4386   24.4062 H   0  0  0  0  0  0  0  0  0  0  0  0
    8.9789   12.6427   20.2162 H   0  0  0  0  0  0  0  0  0  0  0  0
    6.7234   14.3944   21.4139 H   0  0  0  0  0  0  0  0  0  0  0  0
    7.0541   15.7614   20.3215 H   0  0  0  0  0  0  0  0  0  0  0  0
    7.1293   14.1125   19.7028 H   0  0  0  0  0  0  0  0  0  0  0  0
   14.5096   14.2773   21.2348 H   0  0  0  0  0  0  0  0  0  0  0  0
   14.5571   14.4007   23.0107 H   0  0  0  0  0  0  0  0  0  0  0  0
   13.7208   13.0468   22.2524 H   0  0  0  0  0  0  0  0  0  0  0  0
   10.6778   17.8528   23.8595 H   0  0  0  0  0  0  0  0  0  0  0  0
   11.8884   18.5748   22.7459 H   0  0  0  0  0  0  0  0  0  0  0  0
   10.2295   18.2718   22.1705 H   0  0  0  0  0  0  0  0  0  0  0  0
   12.8161    9.5175   21.3009 H   0  0  0  0  0  0  0  0  0  0  0  0
   11.2476    9.1464   22.0935 H   0  0  0  0  0  0  0  0  0  0  0  0
   11.2850    9.6603   20.3727 H   0  0  0  0  0  0  0  0  0  0  0  0
   12.0934   10.6810   23.7452 H   0  0  0  0  0  0  0  0  0  0  0  0
   11.9325   12.4322   23.4292 H   0  0  0  0  0  0  0  0  0  0  0  0
   10.1806    9.3195   23.4116 H   0  0  0  0  0  0  0  0  0  0  0  0
  1  2  1  0  0  0  0
  1  3  2  0  0  0  0
  2  4  2  0  0  0  0
  3  7  1  0  0  0  0
  4  9  1  0  0  0  0
  5  8  1  0  0  0  0
  5 10  2  0  0  0  0
  6  8  2  0  0  0  0
  6 11  1  0  0  0  0
  6 12  1  0  0  0  0
  7  9  2  0  0  0  0
  7 13  1  0  0  0  0
  8 15  1  0  0  0  0
  9 23  1  0  0  0  0
 10 16  1  0  0  0  0
 10 21  1  0  0  0  0
 11 17  1  0  0  0  0
 11 22  2  0  0  0  0
 12 21  2  0  0  0  0
 12 24  1  0  0  0  0
 13 25  1  0  0  0  0
 13 27  2  0  0  0  0
 14 20  1  0  0  0  0
 14 23  2  0  0  0  0
 14 25  1  0  0  0  0
 15 26  1  0  0  0  0
 15 28  2  0  0  0  0
 18 24  1  0  0  0  0
 19 26  1  0  0  0  0
 20 26  1  0  0  0  0
 22 24  1  0  0  0  0
  1 29  1  0  0  0  0
  2 30  1  0  0  0  0
  3 31  1  0  0  0  0
  4 32  1  0  0  0  0
  5 33  1  0  0  0  0
 16 34  1  0  0  0  0
 16 35  1  0  0  0  0
 16 36  1  0  0  0  0
 17 37  1  0  0  0  0
 17 38  1  0  0  0  0
 17 39  1  0  0  0  0
 18 40  1  0  0  0  0
 18 41  1  0  0  0  0
 18 42  1  0  0  0  0
 19 43  1  0  0  0  0
 19 44  1  0  0  0  0
 19 45  1  0  0  0  0
 20 46  1  0  0  0  0
 20 47  1  0  0  0  0
 25 48  1  0  0  0  0
M  END
> <idnumber>
Z240252946

> <heavy_atoms>
28

> <LogS>
-4.18

> <LogP>
0.44

> <rotating_bonds>
3

> <PSA>
92.48

> <hb_acceptors>
5

> <hb_donors>
1

> <Collection>
HTS

> <link>
https://www.enaminestore.com/catalog/Z240252946

> <ROCS_ShapeQuery>
x0446_0A_x1080_0A_x0929_0A_x0812_0A_x0719_0A_x1140_0A_x0528_0A_x0310_0A

> <ROCS_TanimotoCombo>
0.455 

> <ROCS_ShapeTanimoto>
0.259 

> <ROCS_ColorTanimoto>
0.196 

> <ROCS_RefTversky>
0.238 

> <ROCS_RefColorTversky>
0.216 

> <ROCS_RefTverskyCombo>
0.454 

> <ROCS_FitTversky>
1.508 

> <ROCS_FitColorTversky>
0.679 

> <ROCS_FitTverskyCombo>
2.187 

> <ROCS_ColorScore>
-7.726

> <ROCS_Overlap>
2817.328

> <ROCS_Rank>
478                 

$$$$
untitled-dbase-322983_49
  -OEChem-02092406493D

 35 38  0     0  0  0  0  0  0999 V2000
    6.0177   13.5009   24.8040 C   0  0  0  0  0  0  0  0  0  0  0  0
    5.4769   12.2318   24.6308 C   0  0  0  0  0  0  0  0  0  0  0  0
   13.3234   14.9750   22.5870 C   0  0  0  0  0  0  0  0  0  0  0  0
   11.7442    7.8347   21.9422 C   0  0  0  0  0  0  0  0  0  0  0  0
    7.3816   13.6980   24.6119 C   0  0  0  0  0  0  0  0  0  0  0  0
    6.3005   11.1628   24.2656 C   0  0  0  0  0  0  0  0  0  0  0  0
   12.4104   14.5931   23.5637 C   0  0  0  0  0  0  0  0  0  0  0  0
   10.8984    8.9807   21.9022 C   0  0  0  0  0  0  0  0  0  0  0  0
   12.8681   15.0914   21.2836 C   0  0  0  0  0  0  0  0  0  0  0  0
   12.0397    7.4545   23.2328 C   0  0  0  0  0  0  0  0  0  0  0  0
    8.2030   12.6180   24.2447 C   0  0  0  0  0  0  0  0  0  0  0  0
    7.6685   11.3315   24.0666 C   0  0  0  0  0  0  0  0  0  0  0  0
   11.0886   14.3428   23.2120 C   0  0  0  0  0  0  0  0  0  0  0  0
   10.5795    9.4327   23.1639 C   0  0  0  0  0  0  0  0  0  0  0  0
   10.7333   14.4877   21.8806 C   0  0  0  0  0  0  0  0  0  0  0  0
    9.5734   12.7473   24.0370 C   0  0  0  0  0  0  0  0  0  0  0  0
    9.7580   10.5461   23.5439 C   0  0  0  0  0  0  0  0  0  0  0  0
   11.5920   14.8567   20.9039 N   0  0  0  0  0  0  0  0  0  0  0  0
    8.4449   10.2915   23.7154 N   0  0  0  0  0  0  0  0  0  0  0  0
   10.3795   11.7279   23.6853 N   0  0  0  0  0  0  0  0  0  0  0  0
    9.3651   14.2213   21.5515 N   0  3  0  0  0  0  0  0  0  0  0  0
    9.0446   13.0569   21.2332 O   0  5  0  0  0  0  0  0  0  0  0  0
    8.5473   15.1643   21.5956 O   0  0  0  0  0  0  0  0  0  0  0  0
   10.1869   13.9641   24.1860 O   0  0  0  0  0  0  0  0  0  0  0  0
   11.2988    8.4771   24.3894 S   0  0  0  0  0  0  0  0  0  0  0  0
    5.3796   14.3326   25.0868 H   0  0  0  0  0  0  0  0  0  0  0  0
    4.4136   12.0693   24.7812 H   0  0  0  0  0  0  0  0  0  0  0  0
   14.3587   15.1745   22.8382 H   0  0  0  0  0  0  0  0  0  0  0  0
   12.1166    7.3150   21.0692 H   0  0  0  0  0  0  0  0  0  0  0  0
    7.7900   14.6957   24.7523 H   0  0  0  0  0  0  0  0  0  0  0  0
    5.8531   10.1790   24.1366 H   0  0  0  0  0  0  0  0  0  0  0  0
   12.7349   14.4926   24.5956 H   0  0  0  0  0  0  0  0  0  0  0  0
   10.5449    9.4435   20.9890 H   0  0  0  0  0  0  0  0  0  0  0  0
   13.5404   15.3855   20.4844 H   0  0  0  0  0  0  0  0  0  0  0  0
   12.6547    6.6249   23.5519 H   0  0  0  0  0  0  0  0  0  0  0  0
  1  2  1  0  0  0  0
  1  5  2  0  0  0  0
  2  6  2  0  0  0  0
  3  7  2  0  0  0  0
  3  9  1  0  0  0  0
  4  8  1  0  0  0  0
  4 10  2  0  0  0  0
  5 11  1  0  0  0  0
  6 12  1  0  0  0  0
  7 13  1  0  0  0  0
  8 14  2  0  0  0  0
  9 18  2  0  0  0  0
 10 25  1  0  0  0  0
 11 12  1  0  0  0  0
 11 16  2  0  0  0  0
 12 19  2  0  0  0  0
 13 15  2  0  0  0  0
 13 24  1  0  0  0  0
 14 17  1  0  0  0  0
 14 25  1  0  0  0  0
 15 18  1  0  0  0  0
 15 21  1  0  0  0  0
 16 20  1  0  0  0  0
 16 24  1  0  0  0  0
 17 19  1  0  0  0  0
 17 20  2  0  0  0  0
 21 22  1  0  0  0  0
 21 23  2  0  0  0  0
  1 26  1  0  0  0  0
  2 27  1  0  0  0  0
  3 28  1  0  0  0  0
  4 29  1  0  0  0  0
  5 30  1  0  0  0  0
  6 31  1  0  0  0  0
  7 32  1  0  0  0  0
  8 33  1  0  0  0  0
  9 34  1  0  0  0  0
 10 35  1  0  0  0  0
M  CHG  2  21   1  22  -1
M  END
> <idnumber>
Z31112464

> <heavy_atoms>
25

> <LogS>
-6.359

> <LogP>
3.315

> <rotating_bonds>
4

> <PSA>
91.04

> <hb_acceptors>
5

> <hb_donors>
0

> <Collection>
Legacy

> <link>
https://www.enaminestore.com/catalog/Z31112464

> <ROCS_ShapeQuery>
x0446_0A_x1080_0A_x0929_0A_x0812_0A_x0719_0A_x1140_0A_x0528_0A_x0310_0A

> <ROCS_TanimotoCombo>
0.455 

> <ROCS_ShapeTanimoto>
0.274 

> <ROCS_ColorTanimoto>
0.180 

> <ROCS_RefTversky>
0.247 

> <ROCS_RefColorTversky>
0.201 

> <ROCS_RefTverskyCombo>
0.448 

> <ROCS_FitTversky>
1.679 

> <ROCS_FitColorTversky>
0.633 

> <ROCS_FitTverskyCombo>
2.312 

> <ROCS_ColorScore>
-7.216

> <ROCS_Overlap>
2918.496

> <ROCS_Rank>
479                 

$$$$
untitled-dbase-743554_50
  -OEChem-02092406493D

 33 36  0     0  0  0  0  0  0999 V2000
   14.2968   15.0810   22.2603 C   0  0  0  0  0  0  0  0  0  0  0  0
   13.9955   15.9580   21.2184 C   0  0  0  0  0  0  0  0  0  0  0  0
   13.2821   14.3342   22.8589 C   0  0  0  0  0  0  0  0  0  0  0  0
   12.6794   16.0884   20.7751 C   0  0  0  0  0  0  0  0  0  0  0  0
    8.6070   15.8235   19.7295 C   0  0  0  0  0  0  0  0  0  0  0  0
    9.9769   15.8056   19.6502 C   0  0  0  0  0  0  0  0  0  0  0  0
    7.0886   13.1187   24.5467 C   0  0  0  0  0  0  0  0  0  0  0  0
   11.9659   14.4646   22.4156 C   0  0  0  0  0  0  0  0  0  0  0  0
   11.6646   15.3417   21.3737 C   0  0  0  0  0  0  0  0  0  0  0  0
    7.6568   11.1274   24.2007 C   0  0  0  0  0  0  0  0  0  0  0  0
    9.9348   10.1906   22.9061 C   0  0  0  0  0  0  0  0  0  0  0  0
    8.8622    9.3543   23.4990 C   0  0  0  0  0  0  0  0  0  0  0  0
    9.7697   11.5186   23.0163 C   0  0  0  0  0  0  0  0  0  0  0  0
   10.9141   13.6515   23.0785 C   0  0  0  0  0  0  0  0  0  0  0  0
    8.2167   15.5233   21.0050 N   0  0  0  0  0  0  0  0  0  0  0  0
    6.6930   11.8368   24.7523 N   0  0  0  0  0  0  0  0  0  0  0  0
    8.2400   13.2754   23.9005 N   0  0  0  0  0  0  0  0  0  0  0  0
    9.3113   15.3180   21.7292 N   0  0  0  0  0  0  0  0  0  0  0  0
    7.7954    9.7742   24.1050 N   0  0  0  0  0  0  0  0  0  0  0  0
   10.3657   15.4879   20.9151 N   0  0  0  0  0  0  0  0  0  0  0  0
    8.6217   11.9919   23.6687 N   0  0  0  0  0  0  0  0  0  0  0  0
   10.6784   12.4042   22.5162 N   0  0  0  0  0  0  0  0  0  0  0  0
   10.3469   14.1001   24.0714 O   0  0  0  0  0  0  0  0  0  0  0  0
   15.3215   14.9791   22.6057 H   0  0  0  0  0  0  0  0  0  0  0  0
   14.7858   16.5390   20.7522 H   0  0  0  0  0  0  0  0  0  0  0  0
   13.5301   13.6537   23.6695 H   0  0  0  0  0  0  0  0  0  0  0  0
   12.4603   16.7765   19.9619 H   0  0  0  0  0  0  0  0  0  0  0  0
    7.8929   16.0330   18.9476 H   0  0  0  0  0  0  0  0  0  0  0  0
   10.6694   15.9842   18.8392 H   0  0  0  0  0  0  0  0  0  0  0  0
    6.5183   13.9730   24.8791 H   0  0  0  0  0  0  0  0  0  0  0  0
   10.7784    9.7142   22.4250 H   0  0  0  0  0  0  0  0  0  0  0  0
    9.0160    8.2673   23.3982 H   0  0  0  0  0  0  0  0  0  0  0  0
   11.1991   12.1073   21.6994 H   0  0  0  0  0  0  0  0  0  0  0  0
  1  2  1  0  0  0  0
  1  3  2  0  0  0  0
  2  4  2  0  0  0  0
  3  8  1  0  0  0  0
  4  9  1  0  0  0  0
  5  6  2  0  0  0  0
  5 15  1  0  0  0  0
  6 20  1  0  0  0  0
  7 16  1  0  0  0  0
  7 17  2  0  0  0  0
  8  9  2  0  0  0  0
  8 14  1  0  0  0  0
  9 20  1  0  0  0  0
 10 16  2  0  0  0  0
 10 19  1  0  0  0  0
 10 21  1  0  0  0  0
 11 12  1  0  0  0  0
 11 13  2  0  0  0  0
 12 19  2  0  0  0  0
 13 21  1  0  0  0  0
 13 22  1  0  0  0  0
 14 22  1  0  0  0  0
 14 23  2  0  0  0  0
 15 18  2  0  0  0  0
 17 21  1  0  0  0  0
 18 20  1  0  0  0  0
  1 24  1  0  0  0  0
  2 25  1  0  0  0  0
  3 26  1  0  0  0  0
  4 27  1  0  0  0  0
  5 28  1  0  0  0  0
  6 29  1  0  0  0  0
  7 30  1  0  0  0  0
 11 31  1  0  0  0  0
 12 32  1  0  0  0  0
 22 33  1  0  0  0  0
M  END
> <idnumber>
Z1651808861

> <heavy_atoms>
23

> <LogS>
-3.67

> <LogP>
0.66

> <rotating_bonds>
3

> <PSA>
102.89

> <hb_acceptors>
6

> <hb_donors>
1

> <Collection>
HTS

> <link>
https://www.enaminestore.com/catalog/Z1651808861

> <ROCS_ShapeQuery>
x0446_0A_x1080_0A_x0929_0A_x0812_0A_x0719_0A_x1140_0A_x0528_0A_x0310_0A

> <ROCS_TanimotoCombo>
0.455 

> <ROCS_ShapeTanimoto>
0.263 

> <ROCS_ColorTanimoto>
0.192 

> <ROCS_RefTversky>
0.238 

> <ROCS_RefColorTversky>
0.218 

> <ROCS_RefTverskyCombo>
0.455 

> <ROCS_FitTversky>
1.673 

> <ROCS_FitColorTversky>
0.617 

> <ROCS_FitTverskyCombo>
2.290 

> <ROCS_ColorScore>
-7.820

> <ROCS_Overlap>
2808.068

> <ROCS_Rank>
480                 

$$$$
untitled-dbase-1083818_4
  -OEChem-02092406493D

 39 42  0     1  0  0  0  0  0999 V2000
   13.0670   14.8699   21.5209 C   0  0  0  0  0  0  0  0  0  0  0  0
   11.8952   15.3832   20.9814 C   0  0  0  0  0  0  0  0  0  0  0  0
    9.4567   12.1574   23.1902 C   0  0  0  0  0  0  0  0  0  0  0  0
   13.0448   14.4577   22.8420 C   0  0  0  0  0  0  0  0  0  0  0  0
    7.3976   12.3535   24.3804 C   0  0  0  0  0  0  0  0  0  0  0  0
    8.4466   12.9773   23.6936 C   0  0  0  0  0  0  0  0  0  0  0  0
   10.7492   15.4493   21.7688 C   0  0  0  0  0  0  0  0  0  0  0  0
   10.8211   15.0361   23.1007 C   0  0  0  0  0  0  0  0  0  0  0  0
    9.3720   10.7839   23.3927 C   0  0  0  0  0  0  0  0  0  0  0  0
    6.2090   12.7274   25.0384 C   0  0  0  0  0  0  0  0  0  0  0  0
    7.4362   10.9741   24.5109 C   0  0  0  0  0  0  0  0  0  0  0  0
    9.6320   15.1511   24.0201 C   0  0  0  0  0  0  0  0  0  0  0  0
    7.7327   15.0326   22.4498 C   0  0  0  0  0  0  0  0  0  0  0  0
    8.5332   15.0592   21.1480 C   0  0  0  0  0  0  0  0  0  0  0  0
    5.6570   14.0827   25.2126 C   0  0  0  0  0  0  0  0  0  0  0  0
   10.4623    9.9186   22.8462 C   0  0  0  0  0  0  0  0  0  0  0  0
   11.9573   14.5324   23.6424 N   0  0  0  0  0  0  0  0  0  0  0  0
    8.3797   10.1351   24.0489 N   0  0  0  0  0  0  0  0  0  0  0  0
    5.5462   11.6823   25.5447 N   0  0  0  0  0  0  0  0  0  0  0  0
    6.3158   10.6312   25.2086 N   0  0  0  0  0  0  0  0  0  0  0  0
    8.5082   14.3613   23.5027 N   0  0  1  0  0  0  0  0  0  0  0  0
    9.6227   15.9911   21.2132 O   0  0  0  0  0  0  0  0  0  0  0  0
   11.4361   10.6179   22.1947 F   0  0  0  0  0  0  0  0  0  0  0  0
   11.1157    9.1993   23.8038 F   0  0  0  0  0  0  0  0  0  0  0  0
   10.0004    9.0035   21.9474 F   0  0  0  0  0  0  0  0  0  0  0  0
   13.9696   14.7930   20.9256 H   0  0  0  0  0  0  0  0  0  0  0  0
   11.8820   15.7353   19.9538 H   0  0  0  0  0  0  0  0  0  0  0  0
   10.2968   12.5858   22.6506 H   0  0  0  0  0  0  0  0  0  0  0  0
   13.9302   14.0363   23.3067 H   0  0  0  0  0  0  0  0  0  0  0  0
    9.9153   14.8224   25.0277 H   0  0  0  0  0  0  0  0  0  0  0  0
    9.3274   16.2012   24.1134 H   0  0  0  0  0  0  0  0  0  0  0  0
    7.4940   16.0556   22.7640 H   0  0  0  0  0  0  0  0  0  0  0  0
    6.7819   14.5068   22.3017 H   0  0  0  0  0  0  0  0  0  0  0  0
    8.9885   14.0725   21.0050 H   0  0  0  0  0  0  0  0  0  0  0  0
    7.9043   15.2364   20.2651 H   0  0  0  0  0  0  0  0  0  0  0  0
    4.9880   14.3520   24.3778 H   0  0  0  0  0  0  0  0  0  0  0  0
    5.0780   14.1791   26.1480 H   0  0  0  0  0  0  0  0  0  0  0  0
    6.4488   14.8507   25.2663 H   0  0  0  0  0  0  0  0  0  0  0  0
    6.0150    9.7059   25.4881 H   0  0  0  0  0  0  0  0  0  0  0  0
  1  2  2  0  0  0  0
  1  4  1  0  0  0  0
  2  7  1  0  0  0  0
  3  6  2  0  0  0  0
  3  9  1  0  0  0  0
  4 17  2  0  0  0  0
  5  6  1  0  0  0  0
  5 10  1  0  0  0  0
  5 11  2  0  0  0  0
  6 21  1  0  0  0  0
  7  8  2  0  0  0  0
  7 22  1  0  0  0  0
  8 12  1  0  0  0  0
  8 17  1  0  0  0  0
  9 16  1  0  0  0  0
  9 18  2  0  0  0  0
 10 15  1  0  0  0  0
 10 19  2  0  0  0  0
 11 18  1  0  0  0  0
 11 20  1  0  0  0  0
 12 21  1  0  0  0  0
 13 14  1  0  0  0  0
 13 21  1  0  0  0  0
 14 22  1  0  0  0  0
 16 23  1  0  0  0  0
 16 24  1  0  0  0  0
 16 25  1  0  0  0  0
 19 20  1  0  0  0  0
  1 26  1  0  0  0  0
  2 27  1  0  0  0  0
  3 28  1  0  0  0  0
  4 29  1  0  0  0  0
 12 30  1  0  0  0  0
 12 31  1  0  0  0  0
 13 32  1  0  0  0  0
 13 33  1  0  0  0  0
 14 34  1  0  0  0  0
 14 35  1  0  0  0  0
 15 36  1  0  0  0  0
 15 37  1  0  0  0  0
 15 38  1  0  0  0  0
 20 39  1  0  0  0  0
M  END
> <idnumber>
Z4342812193

> <heavy_atoms>
25

> <LogS>
-4.048

> <LogP>
2.837

> <rotating_bonds>
2

> <PSA>
66.93

> <hb_acceptors>
5

> <hb_donors>
1

> <Collection>
Advanced

> <link>
https://www.enaminestore.com/catalog/Z4342812193

> <ROCS_ShapeQuery>
x0446_0A_x1080_0A_x0929_0A_x0812_0A_x0719_0A_x1140_0A_x0528_0A_x0310_0A

> <ROCS_TanimotoCombo>
0.455 

> <ROCS_ShapeTanimoto>
0.281 

> <ROCS_ColorTanimoto>
0.173 

> <ROCS_RefTversky>
0.252 

> <ROCS_RefColorTversky>
0.191 

> <ROCS_RefTverskyCombo>
0.443 

> <ROCS_FitTversky>
1.704 

> <ROCS_FitColorTversky>
0.655 

> <ROCS_FitTverskyCombo>
2.359 

> <ROCS_ColorScore>
-6.830

> <ROCS_Overlap>
2977.580

> <ROCS_Rank>
481                 

$$$$
untitled-dbase-929075_116
  -OEChem-02092406493D

 42 46  0     0  0  0  0  0  0999 V2000
    3.4113   11.1275   24.4124 C   0  0  0  0  0  0  0  0  0  0  0  0
    3.9488   11.7135   23.2664 C   0  0  0  0  0  0  0  0  0  0  0  0
    4.2570   10.6504   25.4140 C   0  0  0  0  0  0  0  0  0  0  0  0
   13.3446   15.0973   21.6309 C   0  0  0  0  0  0  0  0  0  0  0  0
   13.2077   14.9419   23.0137 C   0  0  0  0  0  0  0  0  0  0  0  0
    5.3318   11.8225   23.1219 C   0  0  0  0  0  0  0  0  0  0  0  0
    5.6400   10.7594   25.2694 C   0  0  0  0  0  0  0  0  0  0  0  0
   12.2266   15.3002   20.8114 C   0  0  0  0  0  0  0  0  0  0  0  0
   11.9519   14.9831   23.6297 C   0  0  0  0  0  0  0  0  0  0  0  0
    6.1775   11.3455   24.1234 C   0  0  0  0  0  0  0  0  0  0  0  0
   10.9620   15.3435   21.4164 C   0  0  0  0  0  0  0  0  0  0  0  0
   10.8575   15.1861   22.7916 C   0  0  0  0  0  0  0  0  0  0  0  0
    7.8389   14.0425   24.2571 C   0  0  0  0  0  0  0  0  0  0  0  0
    8.4567   10.7677   22.7364 C   0  0  0  0  0  0  0  0  0  0  0  0
    8.6914   10.5204   24.7970 C   0  0  0  0  0  0  0  0  0  0  0  0
    9.8333   12.5031   23.8462 C   0  0  0  0  0  0  0  0  0  0  0  0
    9.6868   10.9877   23.6811 C   0  0  0  0  0  0  0  0  0  0  0  0
    7.7280   11.4683   23.9620 C   0  0  0  0  0  0  0  0  0  0  0  0
    8.8126   15.1937   24.2812 C   0  0  0  0  0  0  0  0  0  0  0  0
    9.7132   15.5238   20.8831 N   0  0  0  0  0  0  0  0  0  0  0  0
    8.8317   15.4846   21.8765 N   0  0  0  0  0  0  0  0  0  0  0  0
    9.5145   15.2828   23.0156 N   0  0  0  0  0  0  0  0  0  0  0  0
    8.4099   12.8039   24.0445 N   0  0  0  0  0  0  0  0  0  0  0  0
    6.6359   14.2455   24.4186 O   0  0  0  0  0  0  0  0  0  0  0  0
    2.3345   11.0433   24.5257 H   0  0  0  0  0  0  0  0  0  0  0  0
    3.2899   12.0856   22.4871 H   0  0  0  0  0  0  0  0  0  0  0  0
    3.8376   10.1948   26.3064 H   0  0  0  0  0  0  0  0  0  0  0  0
   14.3347   15.0602   21.1834 H   0  0  0  0  0  0  0  0  0  0  0  0
   14.0944   14.7858   23.6234 H   0  0  0  0  0  0  0  0  0  0  0  0
    5.7434   12.2806   22.2266 H   0  0  0  0  0  0  0  0  0  0  0  0
    6.2922   10.3858   26.0544 H   0  0  0  0  0  0  0  0  0  0  0  0
   12.3425   15.4198   19.7392 H   0  0  0  0  0  0  0  0  0  0  0  0
   11.8440   14.8627   24.7014 H   0  0  0  0  0  0  0  0  0  0  0  0
    8.4674   11.3226   21.7928 H   0  0  0  0  0  0  0  0  0  0  0  0
    8.1818    9.7264   22.5300 H   0  0  0  0  0  0  0  0  0  0  0  0
    8.4415    9.4529   24.8101 H   0  0  0  0  0  0  0  0  0  0  0  0
    8.9260   10.8396   25.8175 H   0  0  0  0  0  0  0  0  0  0  0  0
   10.4083   12.7899   24.7305 H   0  0  0  0  0  0  0  0  0  0  0  0
   10.2052   13.0036   22.9484 H   0  0  0  0  0  0  0  0  0  0  0  0
   10.5831   10.3931   23.5076 H   0  0  0  0  0  0  0  0  0  0  0  0
    9.5290   15.0301   25.0829 H   0  0  0  0  0  0  0  0  0  0  0  0
    8.2621   16.1153   24.4566 H   0  0  0  0  0  0  0  0  0  0  0  0
  1  2  1  0  0  0  0
  1  3  2  0  0  0  0
  2  6  2  0  0  0  0
  3  7  1  0  0  0  0
  4  5  1  0  0  0  0
  4  8  2  0  0  0  0
  5  9  2  0  0  0  0
  6 10  1  0  0  0  0
  7 10  2  0  0  0  0
  8 11  1  0  0  0  0
  9 12  1  0  0  0  0
 10 18  1  0  0  0  0
 11 12  2  0  0  0  0
 11 20  1  0  0  0  0
 12 22  1  0  0  0  0
 13 19  1  0  0  0  0
 13 23  1  0  0  0  0
 13 24  2  0  0  0  0
 14 17  1  0  0  0  0
 14 18  1  0  0  0  0
 15 17  1  0  0  0  0
 15 18  1  0  0  0  0
 16 17  1  0  0  0  0
 16 23  1  0  0  0  0
 18 23  1  0  0  0  0
 19 22  1  0  0  0  0
 20 21  2  0  0  0  0
 21 22  1  0  0  0  0
  1 25  1  0  0  0  0
  2 26  1  0  0  0  0
  3 27  1  0  0  0  0
  4 28  1  0  0  0  0
  5 29  1  0  0  0  0
  6 30  1  0  0  0  0
  7 31  1  0  0  0  0
  8 32  1  0  0  0  0
  9 33  1  0  0  0  0
 14 34  1  0  0  0  0
 14 35  1  0  0  0  0
 15 36  1  0  0  0  0
 15 37  1  0  0  0  0
 16 38  1  0  0  0  0
 16 39  1  0  0  0  0
 17 40  1  0  0  0  0
 19 41  1  0  0  0  0
 19 42  1  0  0  0  0
M  END
> <idnumber>
Z2649857986

> <heavy_atoms>
24

> <LogS>
-3.772

> <LogP>
2.406

> <rotating_bonds>
3

> <PSA>
51.02

> <hb_acceptors>
3

> <hb_donors>
0

> <Collection>
Advanced

> <link>
https://www.enaminestore.com/catalog/Z2649857986

> <ROCS_ShapeQuery>
x0446_0A_x1080_0A_x0929_0A_x0812_0A_x0719_0A_x1140_0A_x0528_0A_x0310_0A

> <ROCS_TanimotoCombo>
0.455 

> <ROCS_ShapeTanimoto>
0.231 

> <ROCS_ColorTanimoto>
0.224 

> <ROCS_RefTversky>
0.214 

> <ROCS_RefColorTversky>
0.256 

> <ROCS_RefTverskyCombo>
0.470 

> <ROCS_FitTversky>
1.495 

> <ROCS_FitColorTversky>
0.642 

> <ROCS_FitTverskyCombo>
2.137 

> <ROCS_ColorScore>
-9.205

> <ROCS_Overlap>
2533.198

> <ROCS_Rank>
482                 

$$$$
untitled-dbase-532311_101
  -OEChem-02092406493D

 36 40  0     0  0  0  0  0  0999 V2000
    5.9863   12.7386   25.9081 C   0  0  0  0  0  0  0  0  0  0  0  0
    5.4820   11.4634   25.6395 C   0  0  0  0  0  0  0  0  0  0  0  0
    7.2508   13.1295   25.4474 C   0  0  0  0  0  0  0  0  0  0  0  0
    6.2187   10.5310   24.9026 C   0  0  0  0  0  0  0  0  0  0  0  0
    8.0103   12.2099   24.7046 C   0  0  0  0  0  0  0  0  0  0  0  0
    9.2707   12.1913   24.0804 C   0  0  0  0  0  0  0  0  0  0  0  0
    7.4732   10.9423   24.4554 C   0  0  0  0  0  0  0  0  0  0  0  0
    9.4286   10.9599   23.5057 C   0  0  0  0  0  0  0  0  0  0  0  0
    8.6139   14.3412   20.7276 C   0  0  0  0  0  0  0  0  0  0  0  0
   10.7099   14.6767   21.2490 C   0  0  0  0  0  0  0  0  0  0  0  0
    7.5206   13.5743   20.2370 C   0  0  0  0  0  0  0  0  0  0  0  0
    7.7361   12.3137   19.8114 C   0  0  0  0  0  0  0  0  0  0  0  0
    9.0635   11.7152   19.8410 C   0  0  0  0  0  0  0  0  0  0  0  0
   10.0967   12.4386   20.3040 C   0  0  0  0  0  0  0  0  0  0  0  0
   10.5799   10.5448   22.7749 C   0  0  0  0  0  0  0  0  0  0  0  0
   11.2995   12.8349   23.3450 C   0  0  0  0  0  0  0  0  0  0  0  0
   12.4504   13.7847   23.1695 C   0  0  0  0  0  0  0  0  0  0  0  0
    8.7204   15.5645   21.2010 N   0  0  0  0  0  0  0  0  0  0  0  0
   10.0449   15.7752   21.5300 N   0  0  0  0  0  0  0  0  0  0  0  0
   10.2396   13.2008   24.0142 N   0  0  0  0  0  0  0  0  0  0  0  0
    9.8611   13.7362   20.7398 N   0  0  0  0  0  0  0  0  0  0  0  0
   11.5110   11.5859   22.7387 N   0  0  0  0  0  0  0  0  0  0  0  0
   10.7380    9.4465   22.2551 O   0  0  0  0  0  0  0  0  0  0  0  0
    8.3443   10.1787   23.7210 O   0  0  0  0  0  0  0  0  0  0  0  0
   12.4456   14.4353   21.4881 S   0  0  0  0  0  0  0  0  0  0  0  0
    5.3883   13.4404   26.4841 H   0  0  0  0  0  0  0  0  0  0  0  0
    4.4972   11.1900   26.0105 H   0  0  0  0  0  0  0  0  0  0  0  0
    7.6280   14.1242   25.6645 H   0  0  0  0  0  0  0  0  0  0  0  0
    5.8323    9.5410   24.6917 H   0  0  0  0  0  0  0  0  0  0  0  0
    6.5288   14.0111   20.2111 H   0  0  0  0  0  0  0  0  0  0  0  0
    6.9194   11.7085   19.4330 H   0  0  0  0  0  0  0  0  0  0  0  0
    9.1885   10.6987   19.4885 H   0  0  0  0  0  0  0  0  0  0  0  0
   11.1031   12.0418   20.3468 H   0  0  0  0  0  0  0  0  0  0  0  0
   13.3819   13.2552   23.3585 H   0  0  0  0  0  0  0  0  0  0  0  0
   12.3565   14.5993   23.8846 H   0  0  0  0  0  0  0  0  0  0  0  0
   12.3873   11.4311   22.2479 H   0  0  0  0  0  0  0  0  0  0  0  0
  1  2  1  0  0  0  0
  1  3  2  0  0  0  0
  2  4  2  0  0  0  0
  3  5  1  0  0  0  0
  4  7  1  0  0  0  0
  5  6  1  0  0  0  0
  5  7  2  0  0  0  0
  6  8  2  0  0  0  0
  6 20  1  0  0  0  0
  7 24  1  0  0  0  0
  8 15  1  0  0  0  0
  8 24  1  0  0  0  0
  9 11  1  0  0  0  0
  9 18  2  0  0  0  0
  9 21  1  0  0  0  0
 10 19  2  0  0  0  0
 10 21  1  0  0  0  0
 10 25  1  0  0  0  0
 11 12  2  0  0  0  0
 12 13  1  0  0  0  0
 13 14  2  0  0  0  0
 14 21  1  0  0  0  0
 15 22  1  0  0  0  0
 15 23  2  0  0  0  0
 16 17  1  0  0  0  0
 16 20  2  0  0  0  0
 16 22  1  0  0  0  0
 17 25  1  0  0  0  0
 18 19  1  0  0  0  0
  1 26  1  0  0  0  0
  2 27  1  0  0  0  0
  3 28  1  0  0  0  0
  4 29  1  0  0  0  0
 11 30  1  0  0  0  0
 12 31  1  0  0  0  0
 13 32  1  0  0  0  0
 14 33  1  0  0  0  0
 17 34  1  0  0  0  0
 17 35  1  0  0  0  0
 22 36  1  0  0  0  0
M  END
> <idnumber>
Z92074388

> <heavy_atoms>
25

> <LogS>
-5.47

> <LogP>
1.43

> <rotating_bonds>
3

> <PSA>
84.79

> <hb_acceptors>
4

> <hb_donors>
1

> <Collection>
Legacy

> <link>
https://www.enaminestore.com/catalog/Z92074388

> <ROCS_ShapeQuery>
x0446_0A_x1080_0A_x0929_0A_x0812_0A_x0719_0A_x1140_0A_x0528_0A_x0310_0A

> <ROCS_TanimotoCombo>
0.455 

> <ROCS_ShapeTanimoto>
0.261 

> <ROCS_ColorTanimoto>
0.193 

> <ROCS_RefTversky>
0.238 

> <ROCS_RefColorTversky>
0.219 

> <ROCS_RefTverskyCombo>
0.457 

> <ROCS_FitTversky>
1.607 

> <ROCS_FitColorTversky>
0.621 

> <ROCS_FitTverskyCombo>
2.228 

> <ROCS_ColorScore>
-7.858

> <ROCS_Overlap>
2813.017

> <ROCS_Rank>
483                 

$$$$
untitled-dbase-157001_18
  -OEChem-02092406493D

 49 52  0     1  0  0  0  0  0999 V2000
    3.7810   14.0715   22.4222 C   0  0  0  0  0  0  0  0  0  0  0  0
   11.9158   14.1337   23.5245 C   0  0  0  0  0  0  0  0  0  0  0  0
   12.6825   15.2540   23.2043 C   0  0  0  0  0  0  0  0  0  0  0  0
   10.3480   14.7074   21.7782 C   0  0  0  0  0  0  0  0  0  0  0  0
   10.7486   13.8603   22.8115 C   0  0  0  0  0  0  0  0  0  0  0  0
   12.2820   16.1011   22.1711 C   0  0  0  0  0  0  0  0  0  0  0  0
   11.1147   15.8278   21.4580 C   0  0  0  0  0  0  0  0  0  0  0  0
    6.2430   12.2998   24.4124 C   0  0  0  0  0  0  0  0  0  0  0  0
    9.5673    9.6816   23.5737 C   0  0  0  0  0  0  0  0  0  0  0  0
    9.7443   11.6135   21.9886 C   0  0  0  0  0  0  0  0  0  0  0  0
   10.5550   11.8535   24.3499 C   0  0  0  0  0  0  0  0  0  0  0  0
    7.4972   10.8784   22.8188 C   0  0  0  0  0  0  0  0  0  0  0  0
    8.3029   11.1276   25.1828 C   0  0  0  0  0  0  0  0  0  0  0  0
    8.4701   13.0631   23.5892 C   0  0  0  0  0  0  0  0  0  0  0  0
    8.8930   10.3990   22.3961 C   0  0  2  0  0  0  0  0  0  0  0  0
    9.6999   10.6428   24.7629 C   0  0  1  0  0  0  0  0  0  0  0  0
    9.9036   12.6260   23.1649 C   0  0  0  0  0  0  0  0  0  0  0  0
    7.6171   11.8477   24.0064 C   0  0  0  0  0  0  0  0  0  0  0  0
   13.1185   17.2952   21.8471 C   0  0  0  0  0  0  0  0  0  0  0  0
   10.6659   16.7207   20.3480 C   0  0  0  0  0  0  0  0  0  0  0  0
    4.3194   13.4160   23.6139 C   0  0  0  0  0  0  0  0  0  0  0  0
    3.3531   14.5917   21.4775 N   0  0  0  0  0  0  0  0  0  0  0  0
    5.7610   12.1154   25.5218 O   0  0  0  0  0  0  0  0  0  0  0  0
    5.6426   12.9314   23.3638 O   0  0  0  0  0  0  0  0  0  0  0  0
   12.2354   13.4794   24.3315 H   0  0  0  0  0  0  0  0  0  0  0  0
   13.5901   15.4587   23.7664 H   0  0  0  0  0  0  0  0  0  0  0  0
    9.4381   14.4932   21.2223 H   0  0  0  0  0  0  0  0  0  0  0  0
    8.9786    8.8031   23.8648 H   0  0  0  0  0  0  0  0  0  0  0  0
   10.5573    9.3164   23.2739 H   0  0  0  0  0  0  0  0  0  0  0  0
   10.7328   11.2731   21.6515 H   0  0  0  0  0  0  0  0  0  0  0  0
    9.2836   12.1124   21.1251 H   0  0  0  0  0  0  0  0  0  0  0  0
   10.6808   12.5252   25.2098 H   0  0  0  0  0  0  0  0  0  0  0  0
   11.5633   11.5171   24.0730 H   0  0  0  0  0  0  0  0  0  0  0  0
    6.9969   11.3682   21.9729 H   0  0  0  0  0  0  0  0  0  0  0  0
    6.8709   10.0175   23.0879 H   0  0  0  0  0  0  0  0  0  0  0  0
    7.6980   10.2733   25.5145 H   0  0  0  0  0  0  0  0  0  0  0  0
    8.3831   11.7995   26.0475 H   0  0  0  0  0  0  0  0  0  0  0  0
    8.5286   13.7824   24.4187 H   0  0  0  0  0  0  0  0  0  0  0  0
    7.9831   13.6034   22.7647 H   0  0  0  0  0  0  0  0  0  0  0  0
    8.8043    9.7109   21.5479 H   0  0  0  0  0  0  0  0  0  0  0  0
   10.1778   10.1258   25.6027 H   0  0  0  0  0  0  0  0  0  0  0  0
   13.8728   17.0377   21.0947 H   0  0  0  0  0  0  0  0  0  0  0  0
   12.5035   18.1165   21.4589 H   0  0  0  0  0  0  0  0  0  0  0  0
   13.6305   17.6744   22.7402 H   0  0  0  0  0  0  0  0  0  0  0  0
   10.0110   17.5094   20.7362 H   0  0  0  0  0  0  0  0  0  0  0  0
   11.5211   17.1912   19.8474 H   0  0  0  0  0  0  0  0  0  0  0  0
   10.1185   16.1568   19.5825 H   0  0  0  0  0  0  0  0  0  0  0  0
    4.3721   14.1198   24.4497 H   0  0  0  0  0  0  0  0  0  0  0  0
    3.6933   12.5730   23.9213 H   0  0  0  0  0  0  0  0  0  0  0  0
  1 21  1  0  0  0  0
  1 22  3  0  0  0  0
  2  3  2  0  0  0  0
  2  5  1  0  0  0  0
  3  6  1  0  0  0  0
  4  5  2  0  0  0  0
  4  7  1  0  0  0  0
  5 17  1  0  0  0  0
  6  7  2  0  0  0  0
  6 19  1  0  0  0  0
  7 20  1  0  0  0  0
  8 18  1  0  0  0  0
  8 23  2  0  0  0  0
  8 24  1  0  0  0  0
  9 15  1  0  0  0  0
  9 16  1  0  0  0  0
 10 15  1  0  0  0  0
 10 17  1  0  0  0  0
 11 16  1  0  0  0  0
 11 17  1  0  0  0  0
 12 15  1  0  0  0  0
 12 18  1  0  0  0  0
 13 16  1  0  0  0  0
 13 18  1  0  0  0  0
 14 17  1  0  0  0  0
 14 18  1  0  0  0  0
 21 24  1  0  0  0  0
  2 25  1  0  0  0  0
  3 26  1  0  0  0  0
  4 27  1  0  0  0  0
  9 28  1  0  0  0  0
  9 29  1  0  0  0  0
 10 30  1  0  0  0  0
 10 31  1  0  0  0  0
 11 32  1  0  0  0  0
 11 33  1  0  0  0  0
 12 34  1  0  0  0  0
 12 35  1  0  0  0  0
 13 36  1  0  0  0  0
 13 37  1  0  0  0  0
 14 38  1  0  0  0  0
 14 39  1  0  0  0  0
 15 40  1  0  0  0  0
 16 41  1  0  0  0  0
 19 42  1  0  0  0  0
 19 43  1  0  0  0  0
 19 44  1  0  0  0  0
 20 45  1  0  0  0  0
 20 46  1  0  0  0  0
 20 47  1  0  0  0  0
 21 48  1  0  0  0  0
 21 49  1  0  0  0  0
M  END
> <idnumber>
Z15746781

> <heavy_atoms>
24

> <LogS>
-5.747

> <LogP>
4.45

> <rotating_bonds>
4

> <PSA>
50.09

> <hb_acceptors>
2

> <hb_donors>
0

> <Collection>
Legacy

> <link>
https://www.enaminestore.com/catalog/Z15746781

> <ROCS_ShapeQuery>
x0446_0A_x1080_0A_x0929_0A_x0812_0A_x0719_0A_x1140_0A_x0528_0A_x0310_0A

> <ROCS_TanimotoCombo>
0.454 

> <ROCS_ShapeTanimoto>
0.262 

> <ROCS_ColorTanimoto>
0.192 

> <ROCS_RefTversky>
0.237 

> <ROCS_RefColorTversky>
0.210 

> <ROCS_RefTverskyCombo>
0.447 

> <ROCS_FitTversky>
1.695 

> <ROCS_FitColorTversky>
0.694 

> <ROCS_FitTverskyCombo>
2.389 

> <ROCS_ColorScore>
-7.520

> <ROCS_Overlap>
2798.731

> <ROCS_Rank>
484                 

$$$$
untitled-dbase-322182_90
  -OEChem-02092406493D

 50 54  0     0  0  0  0  0  0999 V2000
   14.0723   17.8730   21.9820 C   0  0  0  0  0  0  0  0  0  0  0  0
   12.8702   18.2176   21.3640 C   0  0  0  0  0  0  0  0  0  0  0  0
   14.1828   16.6627   22.6666 C   0  0  0  0  0  0  0  0  0  0  0  0
   11.7785   17.3519   21.4307 C   0  0  0  0  0  0  0  0  0  0  0  0
   13.0911   15.7970   22.7333 C   0  0  0  0  0  0  0  0  0  0  0  0
    7.9600   12.3943   23.9157 C   0  0  0  0  0  0  0  0  0  0  0  0
   11.8890   16.1416   22.1154 C   0  0  0  0  0  0  0  0  0  0  0  0
    7.1181   13.3905   24.5031 C   0  0  0  0  0  0  0  0  0  0  0  0
    6.1412   12.8473   25.3090 C   0  0  0  0  0  0  0  0  0  0  0  0
    9.0568   12.4632   23.0507 C   0  0  0  0  0  0  0  0  0  0  0  0
    7.5715   11.1215   24.3134 C   0  0  0  0  0  0  0  0  0  0  0  0
   10.7675   15.2520   22.1842 C   0  0  0  0  0  0  0  0  0  0  0  0
    9.1916   10.1659   23.1138 C   0  0  0  0  0  0  0  0  0  0  0  0
   11.4884    9.4671   24.3823 C   0  0  0  0  0  0  0  0  0  0  0  0
   12.1088    9.7208   22.0695 C   0  0  0  0  0  0  0  0  0  0  0  0
   12.9693    9.4739   24.7508 C   0  0  0  0  0  0  0  0  0  0  0  0
   13.5751    9.7205   22.4924 C   0  0  0  0  0  0  0  0  0  0  0  0
    7.2623   14.8531   24.2847 C   0  0  0  0  0  0  0  0  0  0  0  0
    5.0868   13.5369   26.0863 C   0  0  0  0  0  0  0  0  0  0  0  0
    9.9034    8.9300   22.6445 C   0  0  0  0  0  0  0  0  0  0  0  0
    9.6767   11.3334   22.6479 N   0  0  0  0  0  0  0  0  0  0  0  0
    8.1523    9.9634   23.9431 N   0  0  0  0  0  0  0  0  0  0  0  0
    9.5705   15.5399   21.5986 N   0  0  0  0  0  0  0  0  0  0  0  0
   10.7954   14.0772   22.8184 N   0  0  0  0  0  0  0  0  0  0  0  0
    8.7779   14.5080   21.8604 N   0  0  0  0  0  0  0  0  0  0  0  0
    9.5398   13.6727   22.5802 N   0  0  0  0  0  0  0  0  0  0  0  0
   11.3148    8.9345   23.0237 N   0  0  0  0  0  0  0  0  0  0  0  0
   13.7123   10.2513   23.8110 O   0  0  0  0  0  0  0  0  0  0  0  0
    6.2295   11.1399   25.3635 S   0  0  0  0  0  0  0  0  0  0  0  0
   14.9228   18.5465   21.9292 H   0  0  0  0  0  0  0  0  0  0  0  0
   12.7844   19.1593   20.8299 H   0  0  0  0  0  0  0  0  0  0  0  0
   15.1192   16.3941   23.1465 H   0  0  0  0  0  0  0  0  0  0  0  0
   10.8481   17.6348   20.9438 H   0  0  0  0  0  0  0  0  0  0  0  0
   13.1934   14.8572   23.2708 H   0  0  0  0  0  0  0  0  0  0  0  0
   10.9442    8.8487   25.1053 H   0  0  0  0  0  0  0  0  0  0  0  0
   11.0931   10.4894   24.4431 H   0  0  0  0  0  0  0  0  0  0  0  0
   11.7409   10.7544   22.0290 H   0  0  0  0  0  0  0  0  0  0  0  0
   12.0293    9.2919   21.0640 H   0  0  0  0  0  0  0  0  0  0  0  0
   13.1046    9.9263   25.7385 H   0  0  0  0  0  0  0  0  0  0  0  0
   13.3801    8.4579   24.7918 H   0  0  0  0  0  0  0  0  0  0  0  0
   14.0073    8.7129   22.4567 H   0  0  0  0  0  0  0  0  0  0  0  0
   14.1582   10.3543   21.8167 H   0  0  0  0  0  0  0  0  0  0  0  0
    6.6669   15.1762   23.4195 H   0  0  0  0  0  0  0  0  0  0  0  0
    6.9318   15.4272   25.1625 H   0  0  0  0  0  0  0  0  0  0  0  0
    8.3105   15.1332   24.1042 H   0  0  0  0  0  0  0  0  0  0  0  0
    4.1732   13.6614   25.4850 H   0  0  0  0  0  0  0  0  0  0  0  0
    4.8190   12.9790   26.9979 H   0  0  0  0  0  0  0  0  0  0  0  0
    5.4113   14.5356   26.4202 H   0  0  0  0  0  0  0  0  0  0  0  0
    9.4422    8.0330   23.0720 H   0  0  0  0  0  0  0  0  0  0  0  0
    9.8497    8.8355   21.5549 H   0  0  0  0  0  0  0  0  0  0  0  0
  1  2  1  0  0  0  0
  1  3  2  0  0  0  0
  2  4  2  0  0  0  0
  3  5  1  0  0  0  0
  4  7  1  0  0  0  0
  5  7  2  0  0  0  0
  6  8  1  0  0  0  0
  6 10  1  0  0  0  0
  6 11  2  0  0  0  0
  7 12  1  0  0  0  0
  8  9  2  0  0  0  0
  8 18  1  0  0  0  0
  9 19  1  0  0  0  0
  9 29  1  0  0  0  0
 10 21  2  0  0  0  0
 10 26  1  0  0  0  0
 11 22  1  0  0  0  0
 11 29  1  0  0  0  0
 12 23  1  0  0  0  0
 12 24  2  0  0  0  0
 13 20  1  0  0  0  0
 13 21  1  0  0  0  0
 13 22  2  0  0  0  0
 14 16  1  0  0  0  0
 14 27  1  0  0  0  0
 15 17  1  0  0  0  0
 15 27  1  0  0  0  0
 16 28  1  0  0  0  0
 17 28  1  0  0  0  0
 20 27  1  0  0  0  0
 23 25  2  0  0  0  0
 24 26  1  0  0  0  0
 25 26  1  0  0  0  0
  1 30  1  0  0  0  0
  2 31  1  0  0  0  0
  3 32  1  0  0  0  0
  4 33  1  0  0  0  0
  5 34  1  0  0  0  0
 14 35  1  0  0  0  0
 14 36  1  0  0  0  0
 15 37  1  0  0  0  0
 15 38  1  0  0  0  0
 16 39  1  0  0  0  0
 16 40  1  0  0  0  0
 17 41  1  0  0  0  0
 17 42  1  0  0  0  0
 18 43  1  0  0  0  0
 18 44  1  0  0  0  0
 18 45  1  0  0  0  0
 19 46  1  0  0  0  0
 19 47  1  0  0  0  0
 19 48  1  0  0  0  0
 20 49  1  0  0  0  0
 20 50  1  0  0  0  0
M  END
> <idnumber>
Z31083902

> <heavy_atoms>
29

> <LogS>
-5.52

> <LogP>
3.019

> <rotating_bonds>
4

> <PSA>
81.85

> <hb_acceptors>
7

> <hb_donors>
0

> <Collection>
HTS

> <link>
https://www.enaminestore.com/catalog/Z31083902

> <ROCS_ShapeQuery>
x0446_0A_x1080_0A_x0929_0A_x0812_0A_x0719_0A_x1140_0A_x0528_0A_x0310_0A

> <ROCS_TanimotoCombo>
0.454 

> <ROCS_ShapeTanimoto>
0.277 

> <ROCS_ColorTanimoto>
0.177 

> <ROCS_RefTversky>
0.252 

> <ROCS_RefColorTversky>
0.208 

> <ROCS_RefTverskyCombo>
0.460 

> <ROCS_FitTversky>
1.566 

> <ROCS_FitColorTversky>
0.548 

> <ROCS_FitTverskyCombo>
2.114 

> <ROCS_ColorScore>
-7.470

> <ROCS_Overlap>
2979.778

> <ROCS_Rank>
485                 

$$$$
untitled-dbase-973116_2
  -OEChem-02092406493D

 39 43  0     1  0  0  0  0  0999 V2000
   10.5833   12.7048   21.9365 C   0  0  0  0  0  0  0  0  0  0  0  0
    9.5518   15.7103   21.5588 C   0  0  0  0  0  0  0  0  0  0  0  0
   13.5825   14.6054   22.1589 C   0  0  0  0  0  0  0  0  0  0  0  0
   13.2183   16.0635   22.4278 C   0  0  0  0  0  0  0  0  0  0  0  0
   10.2975   12.0098   24.3293 C   0  0  0  0  0  0  0  0  0  0  0  0
    6.8100   10.5352   24.5271 C   0  0  0  0  0  0  0  0  0  0  0  0
   10.9779   15.5760   23.7155 C   0  0  0  0  0  0  0  0  0  0  0  0
   12.5973   13.9521   21.1936 C   0  0  0  0  0  0  0  0  0  0  0  0
    9.6110   12.6109   23.0872 C   0  0  2  0  0  0  0  0  0  0  0  0
   11.7546   16.2893   22.6514 C   0  0  2  0  0  0  0  0  0  0  0  0
    8.0732   11.1600   25.0568 C   0  0  2  0  0  0  0  0  0  0  0  0
    7.4310   11.7175   23.8314 C   0  0  1  0  0  0  0  0  0  0  0  0
    9.4467   10.7548   24.5700 C   0  0  1  0  0  0  0  0  0  0  0  0
    8.5179   11.5772   22.7880 C   0  0  2  0  0  0  0  0  0  0  0  0
   10.7541   15.2049   22.2573 C   0  0  2  0  0  0  0  0  0  0  0  0
   11.2557   13.9196   21.7844 N   0  0  0  0  0  0  0  0  0  0  0  0
   10.7333   11.7333   21.1913 O   0  0  0  0  0  0  0  0  0  0  0  0
    8.3985   15.4811   21.8916 O   0  0  0  0  0  0  0  0  0  0  0  0
    9.2019   10.3617   23.1971 O   0  0  0  0  0  0  0  0  0  0  0  0
    9.9017   16.4661   20.4894 O   0  0  0  0  0  0  0  0  0  0  0  0
   14.5972   14.5547   21.7480 H   0  0  0  0  0  0  0  0  0  0  0  0
   13.5965   14.0434   23.1012 H   0  0  0  0  0  0  0  0  0  0  0  0
   13.7890   16.4395   23.2842 H   0  0  0  0  0  0  0  0  0  0  0  0
   13.5227   16.6623   21.5603 H   0  0  0  0  0  0  0  0  0  0  0  0
   11.3389   11.7364   24.1257 H   0  0  0  0  0  0  0  0  0  0  0  0
   10.2752   12.6957   25.1821 H   0  0  0  0  0  0  0  0  0  0  0  0
    6.8660    9.5619   24.0563 H   0  0  0  0  0  0  0  0  0  0  0  0
    5.8952   10.7045   25.0827 H   0  0  0  0  0  0  0  0  0  0  0  0
   11.5018   14.8738   24.3535 H   0  0  0  0  0  0  0  0  0  0  0  0
   10.1988   16.1288   24.2282 H   0  0  0  0  0  0  0  0  0  0  0  0
   12.5351   14.5118   20.2531 H   0  0  0  0  0  0  0  0  0  0  0  0
   12.9343   12.9385   20.9553 H   0  0  0  0  0  0  0  0  0  0  0  0
    9.2191   13.6130   23.2688 H   0  0  0  0  0  0  0  0  0  0  0  0
   11.4912   17.3291   22.4860 H   0  0  0  0  0  0  0  0  0  0  0  0
    8.0507   11.7232   25.9769 H   0  0  0  0  0  0  0  0  0  0  0  0
    6.9451   12.6802   23.8720 H   0  0  0  0  0  0  0  0  0  0  0  0
    9.9262    9.9631   25.1490 H   0  0  0  0  0  0  0  0  0  0  0  0
    8.1663   11.5114   21.7558 H   0  0  0  0  0  0  0  0  0  0  0  0
    9.1172   16.8096   20.0111 H   0  0  0  0  0  0  0  0  0  0  0  0
  1  9  1  1  0  0  0
  1 16  1  0  0  0  0
  1 17  2  0  0  0  0
  2 15  1  1  0  0  0
  2 18  2  0  0  0  0
  2 20  1  0  0  0  0
  3  4  1  0  0  0  0
  3  8  1  0  0  0  0
  4 10  1  0  0  0  0
  5  9  1  0  0  0  0
  5 13  1  0  0  0  0
  6 11  1  1  0  0  0
  6 12  1  1  0  0  0
  7 10  1  6  0  0  0
  7 15  1  0  0  0  0
  8 16  1  0  0  0  0
  9 14  1  0  0  0  0
 10 15  1  0  0  0  0
 11 12  1  0  0  0  0
 11 13  1  0  0  0  0
 12 14  1  0  0  0  0
 13 19  1  1  0  0  0
 14 19  1  1  0  0  0
 15 16  1  0  0  0  0
  3 21  1  0  0  0  0
  3 22  1  0  0  0  0
  4 23  1  0  0  0  0
  4 24  1  0  0  0  0
  5 25  1  0  0  0  0
  5 26  1  0  0  0  0
  6 27  1  0  0  0  0
  6 28  1  0  0  0  0
  7 29  1  0  0  0  0
  7 30  1  0  0  0  0
  8 31  1  0  0  0  0
  8 32  1  0  0  0  0
  9 33  1  0  0  0  0
 10 34  1  0  0  0  0
 11 35  1  0  0  0  0
 12 36  1  0  0  0  0
 13 37  1  0  0  0  0
 14 38  1  0  0  0  0
 20 39  1  0  0  0  0
M  END
> <idnumber>
Z2923541234

> <heavy_atoms>
20

> <LogS>
-2.918

> <LogP>
0.449

> <rotating_bonds>
2

> <PSA>
66.84

> <hb_acceptors>
4

> <hb_donors>
1

> <Collection>
Advanced

> <link>
https://www.enaminestore.com/catalog/Z2923541234

> <ROCS_ShapeQuery>
x0446_0A_x1080_0A_x0929_0A_x0812_0A_x0719_0A_x1140_0A_x0528_0A_x0310_0A

> <ROCS_TanimotoCombo>
0.454 

> <ROCS_ShapeTanimoto>
0.227 

> <ROCS_ColorTanimoto>
0.227 

> <ROCS_RefTversky>
0.209 

> <ROCS_RefColorTversky>
0.319 

> <ROCS_RefTverskyCombo>
0.528 

> <ROCS_FitTversky>
1.636 

> <ROCS_FitColorTversky>
0.440 

> <ROCS_FitTverskyCombo>
2.076 

> <ROCS_ColorScore>
-11.705

> <ROCS_Overlap>
2466.228

> <ROCS_Rank>
486                 

$$$$
untitled-dbase-1101365_103
  -OEChem-02092406493D

 44 48  0     0  0  0  0  0  0999 V2000
   13.5580   15.5106   21.0876 C   0  0  0  0  0  0  0  0  0  0  0  0
    6.4777   16.7851   23.3510 C   0  0  0  0  0  0  0  0  0  0  0  0
    5.1568   17.2324   23.3254 C   0  0  0  0  0  0  0  0  0  0  0  0
   12.3484   14.7827   21.1887 C   0  0  0  0  0  0  0  0  0  0  0  0
    5.8434   14.8383   22.0686 C   0  0  0  0  0  0  0  0  0  0  0  0
    6.6427   13.2318   24.5923 C   0  0  0  0  0  0  0  0  0  0  0  0
    6.2404   10.9955   25.1363 C   0  0  0  0  0  0  0  0  0  0  0  0
   13.4093   16.6129   21.8968 C   0  0  0  0  0  0  0  0  0  0  0  0
    7.8164   12.9782   23.8969 C   0  0  0  0  0  0  0  0  0  0  0  0
    7.4064   10.6358   24.4597 C   0  0  0  0  0  0  0  0  0  0  0  0
    8.1643   11.6350   23.8577 C   0  0  0  0  0  0  0  0  0  0  0  0
    6.8211   15.5881   22.7225 C   0  0  0  0  0  0  0  0  0  0  0  0
    4.5224   15.2855   22.0431 C   0  0  0  0  0  0  0  0  0  0  0  0
    4.1791   16.4826   22.6715 C   0  0  0  0  0  0  0  0  0  0  0  0
   11.5468   15.4920   22.0526 C   0  0  0  0  0  0  0  0  0  0  0  0
   10.1833   15.1041   22.4567 C   0  0  0  0  0  0  0  0  0  0  0  0
    8.6217   13.9796   23.2655 C   0  0  0  0  0  0  0  0  0  0  0  0
    9.0644    9.6366   23.5615 C   0  0  0  0  0  0  0  0  0  0  0  0
    3.3789   14.8082   20.0132 C   0  0  0  0  0  0  0  0  0  0  0  0
   10.0415    8.6389   23.0877 C   0  0  0  0  0  0  0  0  0  0  0  0
    5.8671   12.2979   25.1967 N   0  0  0  0  0  0  0  0  0  0  0  0
    7.9800    9.4012   24.2659 N   0  0  0  0  0  0  0  0  0  0  0  0
    9.9223   13.9256   23.0952 N   0  0  0  0  0  0  0  0  0  0  0  0
    9.1260   15.8839   22.2212 N   0  0  0  0  0  0  0  0  0  0  0  0
    9.2192   10.9679   23.2904 N   0  0  0  0  0  0  0  0  0  0  0  0
    8.1403   15.1417   22.7482 N   0  0  0  0  0  0  0  0  0  0  0  0
   12.1861   16.6089   22.4888 O   0  0  0  0  0  0  0  0  0  0  0  0
    3.5875   14.5330   21.3965 O   0  0  0  0  0  0  0  0  0  0  0  0
    9.7457    7.3464   23.4431 F   0  0  0  0  0  0  0  0  0  0  0  0
   10.1833    8.5930   21.7231 F   0  0  0  0  0  0  0  0  0  0  0  0
   11.3092    8.8527   23.5653 F   0  0  0  0  0  0  0  0  0  0  0  0
    2.5537   17.0602   22.6547 Cl  0  0  0  0  0  0  0  0  0  0  0  0
   14.4294   15.2627   20.4989 H   0  0  0  0  0  0  0  0  0  0  0  0
    7.2298   17.3795   23.8642 H   0  0  0  0  0  0  0  0  0  0  0  0
    4.9052   18.1675   23.8194 H   0  0  0  0  0  0  0  0  0  0  0  0
   12.1014   13.8558   20.6897 H   0  0  0  0  0  0  0  0  0  0  0  0
    6.1045   13.9038   21.5765 H   0  0  0  0  0  0  0  0  0  0  0  0
    6.2680   14.2477   24.6928 H   0  0  0  0  0  0  0  0  0  0  0  0
    5.5924   10.2819   25.6295 H   0  0  0  0  0  0  0  0  0  0  0  0
   14.0463   17.4486   22.1463 H   0  0  0  0  0  0  0  0  0  0  0  0
    2.6096   14.1393   19.6198 H   0  0  0  0  0  0  0  0  0  0  0  0
    4.3149   14.6654   19.4672 H   0  0  0  0  0  0  0  0  0  0  0  0
    3.0493   15.8440   19.9026 H   0  0  0  0  0  0  0  0  0  0  0  0
    9.9778   11.3858   22.7677 H   0  0  0  0  0  0  0  0  0  0  0  0
  1  4  1  0  0  0  0
  1  8  2  0  0  0  0
  2  3  2  0  0  0  0
  2 12  1  0  0  0  0
  3 14  1  0  0  0  0
  4 15  2  0  0  0  0
  5 12  2  0  0  0  0
  5 13  1  0  0  0  0
  6  9  1  0  0  0  0
  6 21  2  0  0  0  0
  7 10  2  0  0  0  0
  7 21  1  0  0  0  0
  8 27  1  0  0  0  0
  9 11  2  0  0  0  0
  9 17  1  0  0  0  0
 10 11  1  0  0  0  0
 10 22  1  0  0  0  0
 11 25  1  0  0  0  0
 12 26  1  0  0  0  0
 13 14  2  0  0  0  0
 13 28  1  0  0  0  0
 14 32  1  0  0  0  0
 15 16  1  0  0  0  0
 15 27  1  0  0  0  0
 16 23  1  0  0  0  0
 16 24  2  0  0  0  0
 17 23  2  0  0  0  0
 17 26  1  0  0  0  0
 18 20  1  0  0  0  0
 18 22  2  0  0  0  0
 18 25  1  0  0  0  0
 19 28  1  0  0  0  0
 20 29  1  0  0  0  0
 20 30  1  0  0  0  0
 20 31  1  0  0  0  0
 24 26  1  0  0  0  0
  1 33  1  0  0  0  0
  2 34  1  0  0  0  0
  3 35  1  0  0  0  0
  4 36  1  0  0  0  0
  5 37  1  0  0  0  0
  6 38  1  0  0  0  0
  7 39  1  0  0  0  0
  8 40  1  0  0  0  0
 19 41  1  0  0  0  0
 19 42  1  0  0  0  0
 19 43  1  0  0  0  0
 25 44  1  0  0  0  0
M  END
> <idnumber>
Z4873983722

> <heavy_atoms>
32

> <LogS>
-5.875

> <LogP>
4.837

> <rotating_bonds>
5

> <PSA>
94.65

> <hb_acceptors>
5

> <hb_donors>
1

> <Collection>
Advanced

> <link>
https://www.enaminestore.com/catalog/Z4873983722

> <ROCS_ShapeQuery>
x0446_0A_x1080_0A_x0929_0A_x0812_0A_x0719_0A_x1140_0A_x0528_0A_x0310_0A

> <ROCS_TanimotoCombo>
0.454 

> <ROCS_ShapeTanimoto>
0.265 

> <ROCS_ColorTanimoto>
0.190 

> <ROCS_RefTversky>
0.246 

> <ROCS_RefColorTversky>
0.223 

> <ROCS_RefTverskyCombo>
0.469 

> <ROCS_FitTversky>
1.401 

> <ROCS_FitColorTversky>
0.563 

> <ROCS_FitTverskyCombo>
1.963 

> <ROCS_ColorScore>
-8.016

> <ROCS_Overlap>
2911.407

> <ROCS_Rank>
487                 

$$$$
untitled-dbase-1052536_65
  -OEChem-02092406493D

 41 45  0     0  0  0  0  0  0999 V2000
    9.7874   10.6427   23.3788 C   0  0  0  0  0  0  0  0  0  0  0  0
    8.5045   10.2031   23.7213 C   0  0  0  0  0  0  0  0  0  0  0  0
    9.2602   12.9218   24.0498 C   0  0  0  0  0  0  0  0  0  0  0  0
    7.9678   12.4955   24.3986 C   0  0  0  0  0  0  0  0  0  0  0  0
   10.1608   11.9785   23.5394 C   0  0  0  0  0  0  0  0  0  0  0  0
    7.6221   11.1595   24.2285 C   0  0  0  0  0  0  0  0  0  0  0  0
    6.8027   13.0940   24.9247 C   0  0  0  0  0  0  0  0  0  0  0  0
    9.3861   14.4438   21.5747 C   0  0  0  0  0  0  0  0  0  0  0  0
    7.3480   14.6524   21.2874 C   0  0  0  0  0  0  0  0  0  0  0  0
   11.5115   12.3994   23.1738 C   0  0  0  0  0  0  0  0  0  0  0  0
    6.6097   14.4703   25.2868 C   0  0  0  0  0  0  0  0  0  0  0  0
   11.2163   16.0667   22.7307 C   0  0  0  0  0  0  0  0  0  0  0  0
   11.8982   15.2834   20.9178 C   0  0  0  0  0  0  0  0  0  0  0  0
   12.9941   14.3758   22.9447 C   0  0  0  0  0  0  0  0  0  0  0  0
   12.6463   15.6823   22.2346 C   0  0  0  0  0  0  0  0  0  0  0  0
   10.8758   14.6955   21.9866 C   0  0  0  0  0  0  0  0  0  0  0  0
    5.9988   15.2278   21.3129 C   0  0  0  0  0  0  0  0  0  0  0  0
    5.7996   12.2271   25.0800 N   0  0  0  0  0  0  0  0  0  0  0  0
    8.4266   15.3016   21.8139 N   0  0  0  0  0  0  0  0  0  0  0  0
    7.5973   13.4564   20.7459 N   0  0  0  0  0  0  0  0  0  0  0  0
    6.3236   11.0667   24.6514 N   0  0  0  0  0  0  0  0  0  0  0  0
   11.7139   13.6940   22.7321 N   0  0  0  0  0  0  0  0  0  0  0  0
   12.3940   11.5469   23.2720 O   0  0  0  0  0  0  0  0  0  0  0  0
    7.4564   15.3797   25.1938 O   0  0  0  0  0  0  0  0  0  0  0  0
    8.9770   13.3142   20.9398 O   0  0  0  0  0  0  0  0  0  0  0  0
    5.3556   14.7296   25.7688 O   0  0  0  0  0  0  0  0  0  0  0  0
   10.4992    9.9211   22.9828 H   0  0  0  0  0  0  0  0  0  0  0  0
    8.2136    9.1658   23.5974 H   0  0  0  0  0  0  0  0  0  0  0  0
    9.5523   13.9609   24.1735 H   0  0  0  0  0  0  0  0  0  0  0  0
   11.0658   16.0783   23.8149 H   0  0  0  0  0  0  0  0  0  0  0  0
   10.7778   16.9761   22.3030 H   0  0  0  0  0  0  0  0  0  0  0  0
   11.5360   16.1102   20.2950 H   0  0  0  0  0  0  0  0  0  0  0  0
   12.4048   14.5549   20.2765 H   0  0  0  0  0  0  0  0  0  0  0  0
   13.8061   13.8189   22.4633 H   0  0  0  0  0  0  0  0  0  0  0  0
   13.1847   14.4996   24.0169 H   0  0  0  0  0  0  0  0  0  0  0  0
   13.4027   16.4652   22.1824 H   0  0  0  0  0  0  0  0  0  0  0  0
    5.7990   15.8354   20.4111 H   0  0  0  0  0  0  0  0  0  0  0  0
    5.2099   14.4534   21.3674 H   0  0  0  0  0  0  0  0  0  0  0  0
    5.8344   15.8813   22.1911 H   0  0  0  0  0  0  0  0  0  0  0  0
    5.7378   10.2413   24.6725 H   0  0  0  0  0  0  0  0  0  0  0  0
    5.2133   15.6676   26.0183 H   0  0  0  0  0  0  0  0  0  0  0  0
  1  2  2  0  0  0  0
  1  5  1  0  0  0  0
  2  6  1  0  0  0  0
  3  4  1  0  0  0  0
  3  5  2  0  0  0  0
  4  6  2  0  0  0  0
  4  7  1  0  0  0  0
  5 10  1  0  0  0  0
  6 21  1  0  0  0  0
  7 11  1  0  0  0  0
  7 18  2  0  0  0  0
  8 16  1  0  0  0  0
  8 19  2  0  0  0  0
  8 25  1  0  0  0  0
  9 17  1  0  0  0  0
  9 19  1  0  0  0  0
  9 20  2  0  0  0  0
 10 22  1  0  0  0  0
 10 23  2  0  0  0  0
 11 24  2  0  0  0  0
 11 26  1  0  0  0  0
 12 15  1  0  0  0  0
 12 16  1  0  0  0  0
 13 15  1  0  0  0  0
 13 16  1  0  0  0  0
 14 15  1  0  0  0  0
 14 22  1  0  0  0  0
 16 22  1  0  0  0  0
 18 21  1  0  0  0  0
 20 25  1  0  0  0  0
  1 27  1  0  0  0  0
  2 28  1  0  0  0  0
  3 29  1  0  0  0  0
 12 30  1  0  0  0  0
 12 31  1  0  0  0  0
 13 32  1  0  0  0  0
 13 33  1  0  0  0  0
 14 34  1  0  0  0  0
 14 35  1  0  0  0  0
 15 36  1  0  0  0  0
 17 37  1  0  0  0  0
 17 38  1  0  0  0  0
 17 39  1  0  0  0  0
 21 40  1  0  0  0  0
 26 41  1  0  0  0  0
M  END
> <idnumber>
Z3689326229

> <heavy_atoms>
26

> <LogS>
-3.418

> <LogP>
0.787

> <rotating_bonds>
3

> <PSA>
125.21

> <hb_acceptors>
6

> <hb_donors>
2

> <Collection>
Advanced

> <link>
https://www.enaminestore.com/catalog/Z3689326229

> <ROCS_ShapeQuery>
x0446_0A_x1080_0A_x0929_0A_x0812_0A_x0719_0A_x1140_0A_x0528_0A_x0310_0A

> <ROCS_TanimotoCombo>
0.454 

> <ROCS_ShapeTanimoto>
0.291 

> <ROCS_ColorTanimoto>
0.163 

> <ROCS_RefTversky>
0.260 

> <ROCS_RefColorTversky>
0.213 

> <ROCS_RefTverskyCombo>
0.473 

> <ROCS_FitTversky>
1.707 

> <ROCS_FitColorTversky>
0.411 

> <ROCS_FitTverskyCombo>
2.119 

> <ROCS_ColorScore>
-7.729

> <ROCS_Overlap>
3069.485

> <ROCS_Rank>
488                 

$$$$
untitled-dbase-669348_16
  -OEChem-02092406493D

 53 58  0     1  0  0  0  0  0999 V2000
    6.3847   13.4620   25.0468 C   0  0  0  0  0  0  0  0  0  0  0  0
    5.8638   12.2909   25.5766 C   0  0  0  0  0  0  0  0  0  0  0  0
    7.5462   13.4091   24.2792 C   0  0  0  0  0  0  0  0  0  0  0  0
    6.5101   11.0806   25.3320 C   0  0  0  0  0  0  0  0  0  0  0  0
    7.4314   15.3366   18.8961 C   0  0  0  0  0  0  0  0  0  0  0  0
    6.0778   15.1162   18.5095 C   0  0  0  0  0  0  0  0  0  0  0  0
    9.7308   13.3345   20.8029 C   0  0  0  0  0  0  0  0  0  0  0  0
   11.4081   14.5228   22.0133 C   0  0  0  0  0  0  0  0  0  0  0  0
   10.9502   13.3130   21.4786 C   0  0  0  0  0  0  0  0  0  0  0  0
    8.1944   12.2007   24.0328 C   0  0  0  0  0  0  0  0  0  0  0  0
    7.6713   11.0230   24.5637 C   0  0  0  0  0  0  0  0  0  0  0  0
    9.0431   14.5379   20.6967 C   0  0  0  0  0  0  0  0  0  0  0  0
    7.7807   14.5949   20.0031 C   0  0  0  0  0  0  0  0  0  0  0  0
   12.5169   14.9908   22.7402 C   0  0  0  0  0  0  0  0  0  0  0  0
    5.4442   14.2140   19.3357 C   0  0  0  0  0  0  0  0  0  0  0  0
    9.9251   10.9855   23.0482 C   0  0  0  0  0  0  0  0  0  0  0  0
    9.4094    9.8018   23.5743 C   0  0  0  0  0  0  0  0  0  0  0  0
   10.6252   15.6535   21.8370 C   0  0  0  0  0  0  0  0  0  0  0  0
   11.7130   12.0622   21.6180 C   0  0  0  0  0  0  0  0  0  0  0  0
   11.9117    9.7185   22.3222 C   0  0  0  0  0  0  0  0  0  0  0  0
   11.0199    8.4928   22.2896 C   0  0  0  0  0  0  0  0  0  0  0  0
   13.6852   14.2300   23.2149 C   0  0  0  0  0  0  0  0  0  0  0  0
    4.0502   13.7246   19.2672 C   0  0  0  0  0  0  0  0  0  0  0  0
    9.3885    7.3581   23.8117 C   0  0  0  0  0  0  0  0  0  0  0  0
    9.3104   12.1656   23.2941 N   0  0  0  0  0  0  0  0  0  0  0  0
    8.2831    9.8521   24.3335 N   0  0  0  0  0  0  0  0  0  0  0  0
    9.4444   15.7311   21.1961 N   0  0  0  0  0  0  0  0  0  0  0  0
   12.4384   16.2995   22.9978 N   0  0  0  0  0  0  0  0  0  0  0  0
   11.1402   10.9601   22.2791 N   0  0  0  0  0  0  0  0  0  0  0  0
   10.0295    8.5760   23.3461 N   0  0  2  0  0  0  0  0  0  0  0  0
   12.8190   12.0519   21.0739 O   0  0  0  0  0  0  0  0  0  0  0  0
   11.2428   16.7157   22.4265 O   0  0  0  0  0  0  0  0  0  0  0  0
    6.4797   13.6374   20.5716 S   0  0  0  0  0  0  0  0  0  0  0  0
    5.8916   14.4120   25.2278 H   0  0  0  0  0  0  0  0  0  0  0  0
    4.9599   12.3160   26.1776 H   0  0  0  0  0  0  0  0  0  0  0  0
    7.9468   14.3332   23.8683 H   0  0  0  0  0  0  0  0  0  0  0  0
    6.0933   10.1684   25.7539 H   0  0  0  0  0  0  0  0  0  0  0  0
    8.1087   16.0078   18.3828 H   0  0  0  0  0  0  0  0  0  0  0  0
    5.5970   15.5971   17.6671 H   0  0  0  0  0  0  0  0  0  0  0  0
    9.3297   12.4226   20.3674 H   0  0  0  0  0  0  0  0  0  0  0  0
   12.5220    9.6810   23.2270 H   0  0  0  0  0  0  0  0  0  0  0  0
   12.5925    9.7267   21.4651 H   0  0  0  0  0  0  0  0  0  0  0  0
   10.5324    8.4324   21.3098 H   0  0  0  0  0  0  0  0  0  0  0  0
   11.6175    7.5805   22.4099 H   0  0  0  0  0  0  0  0  0  0  0  0
   14.4937   14.2275   22.4639 H   0  0  0  0  0  0  0  0  0  0  0  0
   14.1016   14.6453   24.1500 H   0  0  0  0  0  0  0  0  0  0  0  0
   13.4350   13.1772   23.4375 H   0  0  0  0  0  0  0  0  0  0  0  0
    3.9791   12.8235   18.6381 H   0  0  0  0  0  0  0  0  0  0  0  0
    3.6539   13.4722   20.2644 H   0  0  0  0  0  0  0  0  0  0  0  0
    3.3685   14.4833   18.8488 H   0  0  0  0  0  0  0  0  0  0  0  0
   10.0122    6.4912   23.5483 H   0  0  0  0  0  0  0  0  0  0  0  0
    9.2657    7.4031   24.9039 H   0  0  0  0  0  0  0  0  0  0  0  0
    8.4020    7.2581   23.3355 H   0  0  0  0  0  0  0  0  0  0  0  0
  1  2  1  0  0  0  0
  1  3  2  0  0  0  0
  2  4  2  0  0  0  0
  3 10  1  0  0  0  0
  4 11  1  0  0  0  0
  5  6  1  0  0  0  0
  5 13  2  0  0  0  0
  6 15  2  0  0  0  0
  7  9  1  0  0  0  0
  7 12  2  0  0  0  0
  8  9  2  0  0  0  0
  8 14  1  0  0  0  0
  8 18  1  0  0  0  0
  9 19  1  0  0  0  0
 10 11  1  0  0  0  0
 10 25  2  0  0  0  0
 11 26  2  0  0  0  0
 12 13  1  0  0  0  0
 12 27  1  0  0  0  0
 13 33  1  0  0  0  0
 14 22  1  0  0  0  0
 14 28  2  0  0  0  0
 15 23  1  0  0  0  0
 15 33  1  0  0  0  0
 16 17  2  0  0  0  0
 16 25  1  0  0  0  0
 16 29  1  0  0  0  0
 17 26  1  0  0  0  0
 17 30  1  0  0  0  0
 18 27  2  0  0  0  0
 18 32  1  0  0  0  0
 19 29  1  0  0  0  0
 19 31  2  0  0  0  0
 20 21  1  0  0  0  0
 20 29  1  0  0  0  0
 21 30  1  0  0  0  0
 24 30  1  0  0  0  0
 28 32  1  0  0  0  0
  1 34  1  0  0  0  0
  2 35  1  0  0  0  0
  3 36  1  0  0  0  0
  4 37  1  0  0  0  0
  5 38  1  0  0  0  0
  6 39  1  0  0  0  0
  7 40  1  0  0  0  0
 20 41  1  0  0  0  0
 20 42  1  0  0  0  0
 21 43  1  0  0  0  0
 21 44  1  0  0  0  0
 22 45  1  0  0  0  0
 22 46  1  0  0  0  0
 22 47  1  0  0  0  0
 23 48  1  0  0  0  0
 23 49  1  0  0  0  0
 23 50  1  0  0  0  0
 24 51  1  0  0  0  0
 24 52  1  0  0  0  0
 24 53  1  0  0  0  0
M  END
> <idnumber>
Z240672072

> <heavy_atoms>
33

> <LogS>
-6.35

> <LogP>
4.468

> <rotating_bonds>
2

> <PSA>
88.25

> <hb_acceptors>
6

> <hb_donors>
0

> <Collection>
Legacy

> <link>
https://www.enaminestore.com/catalog/Z240672072

> <ROCS_ShapeQuery>
x0446_0A_x1080_0A_x0929_0A_x0812_0A_x0719_0A_x1140_0A_x0528_0A_x0310_0A

> <ROCS_TanimotoCombo>
0.454 

> <ROCS_ShapeTanimoto>
0.276 

> <ROCS_ColorTanimoto>
0.178 

> <ROCS_RefTversky>
0.255 

> <ROCS_RefColorTversky>
0.203 

> <ROCS_RefTverskyCombo>
0.458 

> <ROCS_FitTversky>
1.432 

> <ROCS_FitColorTversky>
0.590 

> <ROCS_FitTverskyCombo>
2.023 

> <ROCS_ColorScore>
-7.291

> <ROCS_Overlap>
3019.260

> <ROCS_Rank>
489                 

$$$$
untitled-dbase-885563_31
  -OEChem-02092406493D

 39 41  0     1  0  0  0  0  0999 V2000
    6.3855   11.2525   24.8762 C   0  0  0  0  0  0  0  0  0  0  0  0
    7.6954   13.4775   23.6837 C   0  0  0  0  0  0  0  0  0  0  0  0
    7.6263   11.0886   24.2376 C   0  0  0  0  0  0  0  0  0  0  0  0
    8.2448   12.1952   23.6625 C   0  0  0  0  0  0  0  0  0  0  0  0
    5.8148   12.5311   24.9097 C   0  0  0  0  0  0  0  0  0  0  0  0
    6.4598   13.6225   24.3233 C   0  0  0  0  0  0  0  0  0  0  0  0
    9.4518   10.3592   23.4040 C   0  0  0  0  0  0  0  0  0  0  0  0
   10.0871   15.0424   20.7120 C   0  0  0  0  0  0  0  0  0  0  0  0
   10.9725   13.5473   23.3141 C   0  0  0  0  0  0  0  0  0  0  0  0
   12.1909   16.8637   22.1602 C   0  0  0  0  0  0  0  0  0  0  0  0
   12.4025   15.9662   20.9433 C   0  0  0  0  0  0  0  0  0  0  0  0
   11.9875   15.8715   23.2951 C   0  0  0  0  0  0  0  0  0  0  0  0
   11.4775   14.7844   21.2094 C   0  0  1  0  0  0  0  0  0  0  0  0
   10.5795    9.5060   22.9757 C   0  0  0  0  0  0  0  0  0  0  0  0
   10.4168   12.4631   22.4255 C   0  0  0  0  0  0  0  0  0  0  0  0
    8.3909    9.9573   24.0672 N   0  0  0  0  0  0  0  0  0  0  0  0
    9.4103   11.6994   23.1368 N   0  0  0  0  0  0  0  0  0  0  0  0
   11.4035   14.6919   22.6616 N   0  0  0  0  0  0  0  0  0  0  0  0
    9.9996   15.1570   19.3447 N   0  0  0  0  0  0  0  0  0  0  0  0
    9.1260   15.1232   21.4730 O   0  0  0  0  0  0  0  0  0  0  0  0
   11.0312   13.3832   24.5339 O   0  0  0  0  0  0  0  0  0  0  0  0
    4.6318   12.7087   25.5139 F   0  0  0  0  0  0  0  0  0  0  0  0
    5.8847   14.8321   24.3744 F   0  0  0  0  0  0  0  0  0  0  0  0
    5.8766   10.4109   25.3349 H   0  0  0  0  0  0  0  0  0  0  0  0
    8.1943   14.3255   23.2292 H   0  0  0  0  0  0  0  0  0  0  0  0
   13.0410   17.5291   22.3353 H   0  0  0  0  0  0  0  0  0  0  0  0
   11.2938   17.4796   22.0284 H   0  0  0  0  0  0  0  0  0  0  0  0
   12.1800   16.4950   20.0114 H   0  0  0  0  0  0  0  0  0  0  0  0
   13.4447   15.6268   20.9122 H   0  0  0  0  0  0  0  0  0  0  0  0
   12.9435   15.5761   23.7409 H   0  0  0  0  0  0  0  0  0  0  0  0
   11.3320   16.2579   24.0803 H   0  0  0  0  0  0  0  0  0  0  0  0
   11.8393   13.8480   20.7741 H   0  0  0  0  0  0  0  0  0  0  0  0
   10.3993    9.0856   21.9733 H   0  0  0  0  0  0  0  0  0  0  0  0
   11.5294   10.0651   22.9402 H   0  0  0  0  0  0  0  0  0  0  0  0
   10.7458    8.6641   23.6686 H   0  0  0  0  0  0  0  0  0  0  0  0
   11.2288   11.8042   22.1269 H   0  0  0  0  0  0  0  0  0  0  0  0
    9.9696   12.9239   21.5476 H   0  0  0  0  0  0  0  0  0  0  0  0
   10.8460   15.0628   18.7930 H   0  0  0  0  0  0  0  0  0  0  0  0
    9.1225   15.3320   18.8651 H   0  0  0  0  0  0  0  0  0  0  0  0
  1  3  1  0  0  0  0
  1  5  2  0  0  0  0
  2  4  1  0  0  0  0
  2  6  2  0  0  0  0
  3  4  2  0  0  0  0
  3 16  1  0  0  0  0
  4 17  1  0  0  0  0
  5  6  1  0  0  0  0
  5 22  1  0  0  0  0
  6 23  1  0  0  0  0
  7 14  1  0  0  0  0
  7 16  2  0  0  0  0
  7 17  1  0  0  0  0
  8 13  1  6  0  0  0
  8 19  1  0  0  0  0
  8 20  2  0  0  0  0
  9 15  1  0  0  0  0
  9 18  1  0  0  0  0
  9 21  2  0  0  0  0
 10 11  1  0  0  0  0
 10 12  1  0  0  0  0
 11 13  1  0  0  0  0
 12 18  1  0  0  0  0
 13 18  1  0  0  0  0
 15 17  1  0  0  0  0
  1 24  1  0  0  0  0
  2 25  1  0  0  0  0
 10 26  1  0  0  0  0
 10 27  1  0  0  0  0
 11 28  1  0  0  0  0
 11 29  1  0  0  0  0
 12 30  1  0  0  0  0
 12 31  1  0  0  0  0
 13 32  1  0  0  0  0
 14 33  1  0  0  0  0
 14 34  1  0  0  0  0
 14 35  1  0  0  0  0
 15 36  1  0  0  0  0
 15 37  1  0  0  0  0
 19 38  1  0  0  0  0
 19 39  1  0  0  0  0
M  END
> <idnumber>
Z2297678222

> <heavy_atoms>
23

> <LogS>
-2.645

> <LogP>
1.153

> <rotating_bonds>
3

> <PSA>
81.22

> <hb_acceptors>
3

> <hb_donors>
1

> <Collection>
HTS

> <link>
https://www.enaminestore.com/catalog/Z2297678222

> <ROCS_ShapeQuery>
x0446_0A_x1080_0A_x0929_0A_x0812_0A_x0719_0A_x1140_0A_x0528_0A_x0310_0A

> <ROCS_TanimotoCombo>
0.454 

> <ROCS_ShapeTanimoto>
0.274 

> <ROCS_ColorTanimoto>
0.180 

> <ROCS_RefTversky>
0.245 

> <ROCS_RefColorTversky>
0.193 

> <ROCS_RefTverskyCombo>
0.438 

> <ROCS_FitTversky>
1.774 

> <ROCS_FitColorTversky>
0.727 

> <ROCS_FitTverskyCombo>
2.501 

> <ROCS_ColorScore>
-6.891

> <ROCS_Overlap>
2896.285

> <ROCS_Rank>
490                 

$$$$
untitled-dbase-225673_40
  -OEChem-02092406493D

 41 44  0     0  0  0  0  0  0999 V2000
   13.2432   14.2060   23.4669 C   0  0  0  0  0  0  0  0  0  0  0  0
    6.1726   15.4181   23.4718 C   0  0  0  0  0  0  0  0  0  0  0  0
    6.0360   16.8058   23.5059 C   0  0  0  0  0  0  0  0  0  0  0  0
   11.9441   13.9737   23.9045 C   0  0  0  0  0  0  0  0  0  0  0  0
    6.9513   15.4385   25.7588 C   0  0  0  0  0  0  0  0  0  0  0  0
   13.4136   14.9091   22.2852 C   0  0  0  0  0  0  0  0  0  0  0  0
    5.7085   12.5030   24.9326 C   0  0  0  0  0  0  0  0  0  0  0  0
    9.7233   10.6658   23.5831 C   0  0  0  0  0  0  0  0  0  0  0  0
    7.9189   12.5406   24.1791 C   0  0  0  0  0  0  0  0  0  0  0  0
    6.6302   14.7344   24.5983 C   0  0  0  0  0  0  0  0  0  0  0  0
    6.7697   13.3008   24.5634 C   0  0  0  0  0  0  0  0  0  0  0  0
    6.3572   17.5099   24.6664 C   0  0  0  0  0  0  0  0  0  0  0  0
    6.8148   16.8263   25.7929 C   0  0  0  0  0  0  0  0  0  0  0  0
   10.8701   14.4450   23.1576 C   0  0  0  0  0  0  0  0  0  0  0  0
   11.1467   15.1376   21.9899 C   0  0  0  0  0  0  0  0  0  0  0  0
    9.1969   12.9014   23.7405 C   0  0  0  0  0  0  0  0  0  0  0  0
    7.6663   11.1785   24.2782 C   0  0  0  0  0  0  0  0  0  0  0  0
    6.2054   18.9956   24.6780 C   0  0  0  0  0  0  0  0  0  0  0  0
    7.1646   17.5592   27.0463 C   0  0  0  0  0  0  0  0  0  0  0  0
   12.3952   15.3826   21.5327 N   0  0  0  0  0  0  0  0  0  0  0  0
   10.1064   11.9497   23.4403 N   0  0  0  0  0  0  0  0  0  0  0  0
    8.5343   10.1883   23.9923 N   0  0  0  0  0  0  0  0  0  0  0  0
   10.0187   15.6085   21.2434 N   0  3  0  0  0  0  0  0  0  0  0  0
   10.2255   16.2378   20.1847 O   0  5  0  0  0  0  0  0  0  0  0  0
    8.8734   15.3711   21.6814 O   0  0  0  0  0  0  0  0  0  0  0  0
    9.5840   14.2116   23.5968 O   0  0  0  0  0  0  0  0  0  0  0  0
    6.0863   10.8386   24.8188 S   0  0  0  0  0  0  0  0  0  0  0  0
   14.0953   13.8473   24.0326 H   0  0  0  0  0  0  0  0  0  0  0  0
    5.9172   14.8832   22.5601 H   0  0  0  0  0  0  0  0  0  0  0  0
    5.6780   17.3291   22.6230 H   0  0  0  0  0  0  0  0  0  0  0  0
   11.7757   13.4255   24.8272 H   0  0  0  0  0  0  0  0  0  0  0  0
    7.3094   14.9108   26.6407 H   0  0  0  0  0  0  0  0  0  0  0  0
   14.4066   15.1161   21.9001 H   0  0  0  0  0  0  0  0  0  0  0  0
    4.7252   12.8084   25.2652 H   0  0  0  0  0  0  0  0  0  0  0  0
   10.4716    9.9209   23.3359 H   0  0  0  0  0  0  0  0  0  0  0  0
    5.1981   19.2719   25.0106 H   0  0  0  0  0  0  0  0  0  0  0  0
    6.9359   19.4635   25.3494 H   0  0  0  0  0  0  0  0  0  0  0  0
    6.3724   19.4188   23.6797 H   0  0  0  0  0  0  0  0  0  0  0  0
    8.2217   17.8489   27.0344 H   0  0  0  0  0  0  0  0  0  0  0  0
    6.5553   18.4642   27.1594 H   0  0  0  0  0  0  0  0  0  0  0  0
    6.9820   16.9385   27.9323 H   0  0  0  0  0  0  0  0  0  0  0  0
  1  4  2  0  0  0  0
  1  6  1  0  0  0  0
  2  3  2  0  0  0  0
  2 10  1  0  0  0  0
  3 12  1  0  0  0  0
  4 14  1  0  0  0  0
  5 10  2  0  0  0  0
  5 13  1  0  0  0  0
  6 20  2  0  0  0  0
  7 11  2  0  0  0  0
  7 27  1  0  0  0  0
  8 21  1  0  0  0  0
  8 22  2  0  0  0  0
  9 11  1  0  0  0  0
  9 16  1  0  0  0  0
  9 17  2  0  0  0  0
 10 11  1  0  0  0  0
 12 13  2  0  0  0  0
 12 18  1  0  0  0  0
 13 19  1  0  0  0  0
 14 15  2  0  0  0  0
 14 26  1  0  0  0  0
 15 20  1  0  0  0  0
 15 23  1  0  0  0  0
 16 21  2  0  0  0  0
 16 26  1  0  0  0  0
 17 22  1  0  0  0  0
 17 27  1  0  0  0  0
 23 24  1  0  0  0  0
 23 25  2  0  0  0  0
  1 28  1  0  0  0  0
  2 29  1  0  0  0  0
  3 30  1  0  0  0  0
  4 31  1  0  0  0  0
  5 32  1  0  0  0  0
  6 33  1  0  0  0  0
  7 34  1  0  0  0  0
  8 35  1  0  0  0  0
 18 36  1  0  0  0  0
 18 37  1  0  0  0  0
 18 38  1  0  0  0  0
 19 39  1  0  0  0  0
 19 40  1  0  0  0  0
 19 41  1  0  0  0  0
M  CHG  2  23   1  24  -1
M  END
> <idnumber>
Z641665016

> <heavy_atoms>
27

> <LogS>
-8.04

> <LogP>
3.966

> <rotating_bonds>
4

> <PSA>
91.04

> <hb_acceptors>
5

> <hb_donors>
0

> <Collection>
Legacy

> <link>
https://www.enaminestore.com/catalog/Z641665016

> <ROCS_ShapeQuery>
x0446_0A_x1080_0A_x0929_0A_x0812_0A_x0719_0A_x1140_0A_x0528_0A_x0310_0A

> <ROCS_TanimotoCombo>
0.454 

> <ROCS_ShapeTanimoto>
0.257 

> <ROCS_ColorTanimoto>
0.197 

> <ROCS_RefTversky>
0.236 

> <ROCS_RefColorTversky>
0.217 

> <ROCS_RefTverskyCombo>
0.453 

> <ROCS_FitTversky>
1.536 

> <ROCS_FitColorTversky>
0.682 

> <ROCS_FitTverskyCombo>
2.218 

> <ROCS_ColorScore>
-7.778

> <ROCS_Overlap>
2790.665

> <ROCS_Rank>
491                 

$$$$
untitled-dbase-232399_80
  -OEChem-02092406493D

 47 50  0     1  0  0  0  0  0999 V2000
   13.1132   14.0700   22.0983 C   0  0  0  0  0  0  0  0  0  0  0  0
   13.1603   15.4578   21.9452 C   0  0  0  0  0  0  0  0  0  0  0  0
   10.6978   14.0752   21.7917 C   0  0  0  0  0  0  0  0  0  0  0  0
    6.0059   11.3141   24.5201 C   0  0  0  0  0  0  0  0  0  0  0  0
    7.3192   11.0590   24.1038 C   0  0  0  0  0  0  0  0  0  0  0  0
   11.8890   13.3827   22.0219 C   0  0  0  0  0  0  0  0  0  0  0  0
   11.9700   16.1178   21.7189 C   0  0  0  0  0  0  0  0  0  0  0  0
   10.7717   15.4450   21.6440 C   0  0  0  0  0  0  0  0  0  0  0  0
    8.0497   12.1373   24.5401 C   0  0  0  0  0  0  0  0  0  0  0  0
    7.9881   10.0075   23.3872 C   0  0  0  0  0  0  0  0  0  0  0  0
   10.0075   11.4353   23.7433 C   0  0  0  0  0  0  0  0  0  0  0  0
   10.3950   17.5559   21.3540 C   0  0  0  0  0  0  0  0  0  0  0  0
    8.0178   15.2086   24.7672 C   0  0  0  0  0  0  0  0  0  0  0  0
    8.4669   14.0184   26.9492 C   0  0  0  0  0  0  0  0  0  0  0  0
    6.2024   14.8999   26.4350 C   0  0  0  0  0  0  0  0  0  0  0  0
   12.3199   10.9478   24.4318 C   0  0  0  0  0  0  0  0  0  0  0  0
   11.8632   11.8910   22.1906 C   0  0  0  0  0  0  0  0  0  0  0  0
    7.4453   14.2209   25.8080 C   0  0  0  0  0  0  0  0  0  0  0  0
    5.9027   12.4761   25.1775 N   0  0  0  0  0  0  0  0  0  0  0  0
    9.3720   12.3832   24.3960 N   0  0  0  0  0  0  0  0  0  0  0  0
    7.1641   12.9543   25.1744 N   0  0  0  0  0  0  0  0  0  0  0  0
    9.3553   10.2827   23.2499 N   0  0  0  0  0  0  0  0  0  0  0  0
   11.3540   11.4997   23.4954 N   0  0  3  0  0  0  0  0  0  0  0  0
    7.4233    9.0082   22.9596 O   0  0  0  0  0  0  0  0  0  0  0  0
   11.8212   17.4593   21.5455 O   0  0  0  0  0  0  0  0  0  0  0  0
    9.7228   16.2812   21.4147 O   0  0  0  0  0  0  0  0  0  0  0  0
   14.0356   13.5226   22.2765 H   0  0  0  0  0  0  0  0  0  0  0  0
   14.1021   15.9912   22.0025 H   0  0  0  0  0  0  0  0  0  0  0  0
    9.7469   13.5570   21.7292 H   0  0  0  0  0  0  0  0  0  0  0  0
    5.1185   10.7141   24.3785 H   0  0  0  0  0  0  0  0  0  0  0  0
    9.9805   18.2079   22.1316 H   0  0  0  0  0  0  0  0  0  0  0  0
   10.2022   18.0080   20.3746 H   0  0  0  0  0  0  0  0  0  0  0  0
    7.3111   15.3702   23.9450 H   0  0  0  0  0  0  0  0  0  0  0  0
    8.2323   16.1910   25.2013 H   0  0  0  0  0  0  0  0  0  0  0  0
    8.9514   14.8280   24.3369 H   0  0  0  0  0  0  0  0  0  0  0  0
    8.1032   13.3234   27.7135 H   0  0  0  0  0  0  0  0  0  0  0  0
    9.4095   13.6087   26.5681 H   0  0  0  0  0  0  0  0  0  0  0  0
    8.6915   14.9683   27.4482 H   0  0  0  0  0  0  0  0  0  0  0  0
    5.7388   14.2528   27.1895 H   0  0  0  0  0  0  0  0  0  0  0  0
    6.4647   15.8385   26.9368 H   0  0  0  0  0  0  0  0  0  0  0  0
    5.4356   15.1133   25.6814 H   0  0  0  0  0  0  0  0  0  0  0  0
   12.5173    9.8957   24.1783 H   0  0  0  0  0  0  0  0  0  0  0  0
   13.2569   11.5211   24.3725 H   0  0  0  0  0  0  0  0  0  0  0  0
   11.9165   11.0092   25.4533 H   0  0  0  0  0  0  0  0  0  0  0  0
   11.2283   11.4272   21.4279 H   0  0  0  0  0  0  0  0  0  0  0  0
   12.8663   11.4657   22.0814 H   0  0  0  0  0  0  0  0  0  0  0  0
    9.9222    9.5990   22.7566 H   0  0  0  0  0  0  0  0  0  0  0  0
  1  2  2  0  0  0  0
  1  6  1  0  0  0  0
  2  7  1  0  0  0  0
  3  6  2  0  0  0  0
  3  8  1  0  0  0  0
  4  5  1  0  0  0  0
  4 19  2  0  0  0  0
  5  9  2  0  0  0  0
  5 10  1  0  0  0  0
  6 17  1  0  0  0  0
  7  8  2  0  0  0  0
  7 25  1  0  0  0  0
  8 26  1  0  0  0  0
  9 20  1  0  0  0  0
  9 21  1  0  0  0  0
 10 22  1  0  0  0  0
 10 24  2  0  0  0  0
 11 20  2  0  0  0  0
 11 22  1  0  0  0  0
 11 23  1  0  0  0  0
 12 25  1  0  0  0  0
 12 26  1  0  0  0  0
 13 18  1  0  0  0  0
 14 18  1  0  0  0  0
 15 18  1  0  0  0  0
 16 23  1  0  0  0  0
 17 23  1  0  0  0  0
 18 21  1  0  0  0  0
 19 21  1  0  0  0  0
  1 27  1  0  0  0  0
  2 28  1  0  0  0  0
  3 29  1  0  0  0  0
  4 30  1  0  0  0  0
 12 31  1  0  0  0  0
 12 32  1  0  0  0  0
 13 33  1  0  0  0  0
 13 34  1  0  0  0  0
 13 35  1  0  0  0  0
 14 36  1  0  0  0  0
 14 37  1  0  0  0  0
 14 38  1  0  0  0  0
 15 39  1  0  0  0  0
 15 40  1  0  0  0  0
 15 41  1  0  0  0  0
 16 42  1  0  0  0  0
 16 43  1  0  0  0  0
 16 44  1  0  0  0  0
 17 45  1  0  0  0  0
 17 46  1  0  0  0  0
 22 47  1  0  0  0  0
M  END
> <idnumber>
Z991901174

> <heavy_atoms>
26

> <LogS>
-4.71

> <LogP>
2.586

> <rotating_bonds>
4

> <PSA>
80.98

> <hb_acceptors>
6

> <hb_donors>
1

> <Collection>
Legacy

> <link>
https://www.enaminestore.com/catalog/Z991901174

> <ROCS_ShapeQuery>
x0446_0A_x1080_0A_x0929_0A_x0812_0A_x0719_0A_x1140_0A_x0528_0A_x0310_0A

> <ROCS_TanimotoCombo>
0.454 

> <ROCS_ShapeTanimoto>
0.253 

> <ROCS_ColorTanimoto>
0.201 

> <ROCS_RefTversky>
0.232 

> <ROCS_RefColorTversky>
0.225 

> <ROCS_RefTverskyCombo>
0.458 

> <ROCS_FitTversky>
1.541 

> <ROCS_FitColorTversky>
0.654 

> <ROCS_FitTverskyCombo>
2.194 

> <ROCS_ColorScore>
-8.079

> <ROCS_Overlap>
2748.877

> <ROCS_Rank>
492                 

$$$$
untitled-dbase-1113082_5
  -OEChem-02092406493D

 42 45  0     1  0  0  0  0  0999 V2000
    8.7820   15.5307   21.2621 C   0  0  0  0  0  0  0  0  0  0  0  0
   10.8317   14.4185   22.5612 C   0  0  0  0  0  0  0  0  0  0  0  0
   12.0942   14.0521   23.1253 C   0  0  0  0  0  0  0  0  0  0  0  0
   13.1115   14.8951   22.7337 C   0  0  0  0  0  0  0  0  0  0  0  0
    9.5471   13.8760   22.6680 C   0  0  0  0  0  0  0  0  0  0  0  0
   10.9578   15.5423   21.7550 C   0  0  0  0  0  0  0  0  0  0  0  0
    6.8346   11.0672   25.6807 C   0  0  0  0  0  0  0  0  0  0  0  0
    7.7278   10.9635   23.1487 C   0  0  0  0  0  0  0  0  0  0  0  0
    9.2299   10.6349   24.5701 C   0  0  0  0  0  0  0  0  0  0  0  0
    8.3446   12.8913   24.5612 C   0  0  0  0  0  0  0  0  0  0  0  0
    7.8875   11.4228   24.6472 C   0  0  0  0  0  0  0  0  0  0  0  0
    9.2616   11.3220   23.1421 C   0  0  0  0  0  0  0  0  0  0  0  0
   12.3072   12.8963   24.0339 C   0  0  0  0  0  0  0  0  0  0  0  0
   14.5460   14.8525   23.0970 C   0  0  0  0  0  0  0  0  0  0  0  0
   11.1567   10.9834   20.0177 C   0  0  0  0  0  0  0  0  0  0  0  0
   10.2857   10.7766   22.1906 C   0  0  0  0  0  0  0  0  0  0  0  0
    8.5133   14.4420   22.0091 N   0  0  0  0  0  0  0  0  0  0  0  0
    9.9631   16.1469   21.0763 N   0  0  0  0  0  0  0  0  0  0  0  0
    9.3021   12.7405   23.4552 N   0  0  1  0  0  0  0  0  0  0  0  0
    5.6593   11.3978   25.6277 O   0  0  0  0  0  0  0  0  0  0  0  0
    7.3756   10.3297   26.6812 O   0  0  0  0  0  0  0  0  0  0  0  0
   10.2018   11.4704   20.9489 O   0  0  0  0  0  0  0  0  0  0  0  0
   12.5564   16.1290   21.6872 S   0  0  0  0  0  0  0  0  0  0  0  0
    7.9353   15.9662   20.7432 H   0  0  0  0  0  0  0  0  0  0  0  0
    7.4743    9.9089   22.9882 H   0  0  0  0  0  0  0  0  0  0  0  0
    7.0808   11.5804   22.5167 H   0  0  0  0  0  0  0  0  0  0  0  0
   10.0184   10.9329   25.2694 H   0  0  0  0  0  0  0  0  0  0  0  0
    9.1537    9.5408   24.5780 H   0  0  0  0  0  0  0  0  0  0  0  0
    7.5059   13.5516   24.3110 H   0  0  0  0  0  0  0  0  0  0  0  0
    8.8407   13.2331   25.4754 H   0  0  0  0  0  0  0  0  0  0  0  0
   12.5501   11.9913   23.4598 H   0  0  0  0  0  0  0  0  0  0  0  0
   13.1278   13.0843   24.7416 H   0  0  0  0  0  0  0  0  0  0  0  0
   11.4130   12.6885   24.6400 H   0  0  0  0  0  0  0  0  0  0  0  0
   15.1143   14.2380   22.3821 H   0  0  0  0  0  0  0  0  0  0  0  0
   14.9950   15.8585   23.1108 H   0  0  0  0  0  0  0  0  0  0  0  0
   14.7012   14.4319   24.1036 H   0  0  0  0  0  0  0  0  0  0  0  0
   11.0656   11.5353   19.0790 H   0  0  0  0  0  0  0  0  0  0  0  0
   10.9872    9.9178   19.8442 H   0  0  0  0  0  0  0  0  0  0  0  0
   12.1590   11.1289   20.4275 H   0  0  0  0  0  0  0  0  0  0  0  0
   10.1205    9.7070   21.9963 H   0  0  0  0  0  0  0  0  0  0  0  0
   11.3045   10.9029   22.5846 H   0  0  0  0  0  0  0  0  0  0  0  0
    6.7102   10.0910   27.3614 H   0  0  0  0  0  0  0  0  0  0  0  0
  1 17  2  0  0  0  0
  1 18  1  0  0  0  0
  2  3  1  0  0  0  0
  2  5  2  0  0  0  0
  2  6  1  0  0  0  0
  3  4  2  0  0  0  0
  3 13  1  0  0  0  0
  4 14  1  0  0  0  0
  4 23  1  0  0  0  0
  5 17  1  0  0  0  0
  5 19  1  0  0  0  0
  6 18  2  0  0  0  0
  6 23  1  0  0  0  0
  7 11  1  0  0  0  0
  7 20  2  0  0  0  0
  7 21  1  0  0  0  0
  8 11  1  0  0  0  0
  8 12  1  0  0  0  0
  9 11  1  0  0  0  0
  9 12  1  0  0  0  0
 10 11  1  0  0  0  0
 10 19  1  0  0  0  0
 12 16  1  0  0  0  0
 12 19  1  0  0  0  0
 15 22  1  0  0  0  0
 16 22  1  0  0  0  0
  1 24  1  0  0  0  0
  8 25  1  0  0  0  0
  8 26  1  0  0  0  0
  9 27  1  0  0  0  0
  9 28  1  0  0  0  0
 10 29  1  0  0  0  0
 10 30  1  0  0  0  0
 13 31  1  0  0  0  0
 13 32  1  0  0  0  0
 13 33  1  0  0  0  0
 14 34  1  0  0  0  0
 14 35  1  0  0  0  0
 14 36  1  0  0  0  0
 15 37  1  0  0  0  0
 15 38  1  0  0  0  0
 15 39  1  0  0  0  0
 16 40  1  0  0  0  0
 16 41  1  0  0  0  0
 21 42  1  0  0  0  0
M  END
> <idnumber>
Z5104213135

> <heavy_atoms>
23

> <LogS>
-4.108

> <LogP>
2.177

> <rotating_bonds>
4

> <PSA>
75.55

> <hb_acceptors>
6

> <hb_donors>
1

> <Collection>
Advanced

> <link>
https://www.enaminestore.com/catalog/Z5104213135

> <ROCS_ShapeQuery>
x0446_0A_x1080_0A_x0929_0A_x0812_0A_x0719_0A_x1140_0A_x0528_0A_x0310_0A

> <ROCS_TanimotoCombo>
0.454 

> <ROCS_ShapeTanimoto>
0.253 

> <ROCS_ColorTanimoto>
0.201 

> <ROCS_RefTversky>
0.230 

> <ROCS_RefColorTversky>
0.241 

> <ROCS_RefTverskyCombo>
0.471 

> <ROCS_FitTversky>
1.680 

> <ROCS_FitColorTversky>
0.545 

> <ROCS_FitTverskyCombo>
2.226 

> <ROCS_ColorScore>
-8.710

> <ROCS_Overlap>
2714.021

> <ROCS_Rank>
493                 

$$$$
untitled-dbase-551682_0
  -OEChem-02092406493D

 35 39  0     0  0  0  0  0  0999 V2000
    5.7535   13.6274   24.2623 C   0  0  0  0  0  0  0  0  0  0  0  0
   13.2210   16.0543   21.8474 C   0  0  0  0  0  0  0  0  0  0  0  0
   13.3503   14.8363   22.5218 C   0  0  0  0  0  0  0  0  0  0  0  0
    5.3910   12.3790   24.7735 C   0  0  0  0  0  0  0  0  0  0  0  0
    7.0123   13.8207   23.6855 C   0  0  0  0  0  0  0  0  0  0  0  0
   11.9684   16.5171   21.4233 C   0  0  0  0  0  0  0  0  0  0  0  0
   12.2363   14.0357   22.7980 C   0  0  0  0  0  0  0  0  0  0  0  0
    6.2859   11.3116   24.7205 C   0  0  0  0  0  0  0  0  0  0  0  0
   10.4006    9.4830   23.6682 C   0  0  0  0  0  0  0  0  0  0  0  0
    7.9117   12.7549   23.6134 C   0  0  0  0  0  0  0  0  0  0  0  0
   10.8438   15.7239   21.6939 C   0  0  0  0  0  0  0  0  0  0  0  0
   11.0035   14.5195   22.3653 C   0  0  0  0  0  0  0  0  0  0  0  0
    7.5400   11.5139   24.1447 C   0  0  0  0  0  0  0  0  0  0  0  0
    9.4700    8.6379   24.2972 C   0  0  0  0  0  0  0  0  0  0  0  0
    9.7517   10.6916   23.5340 C   0  0  0  0  0  0  0  0  0  0  0  0
    9.2795   12.8628   23.0169 C   0  0  0  0  0  0  0  0  0  0  0  0
    9.6522    7.2266   24.6755 C   0  0  0  0  0  0  0  0  0  0  0  0
    9.5176   15.9125   21.4074 N   0  0  0  0  0  0  0  0  0  0  0  0
    8.3109    9.2475   24.5516 N   0  0  0  0  0  0  0  0  0  0  0  0
    8.8427   14.8684   21.8760 N   0  0  0  0  0  0  0  0  0  0  0  0
   10.1359   11.8798   23.0011 N   0  0  0  0  0  0  0  0  0  0  0  0
    9.7294   14.0368   22.4476 N   0  0  0  0  0  0  0  0  0  0  0  0
    8.5013   10.4972   24.0806 N   0  0  0  0  0  0  0  0  0  0  0  0
    5.0514   14.4551   24.3132 H   0  0  0  0  0  0  0  0  0  0  0  0
   14.1064   16.6527   21.6483 H   0  0  0  0  0  0  0  0  0  0  0  0
   14.3361   14.5043   22.8382 H   0  0  0  0  0  0  0  0  0  0  0  0
    4.4098   12.2419   25.2193 H   0  0  0  0  0  0  0  0  0  0  0  0
    7.2673   14.8018   23.2956 H   0  0  0  0  0  0  0  0  0  0  0  0
   11.8776   17.4635   20.9004 H   0  0  0  0  0  0  0  0  0  0  0  0
   12.3339   13.0912   23.3205 H   0  0  0  0  0  0  0  0  0  0  0  0
    5.9882   10.3521   25.1322 H   0  0  0  0  0  0  0  0  0  0  0  0
   11.4076    9.2534   23.3501 H   0  0  0  0  0  0  0  0  0  0  0  0
   10.0577    7.1346   25.6978 H   0  0  0  0  0  0  0  0  0  0  0  0
    8.7046    6.6597   24.6419 H   0  0  0  0  0  0  0  0  0  0  0  0
   10.3439    6.6980   23.9950 H   0  0  0  0  0  0  0  0  0  0  0  0
  1  4  1  0  0  0  0
  1  5  2  0  0  0  0
  2  3  1  0  0  0  0
  2  6  2  0  0  0  0
  3  7  2  0  0  0  0
  4  8  2  0  0  0  0
  5 10  1  0  0  0  0
  6 11  1  0  0  0  0
  7 12  1  0  0  0  0
  8 13  1  0  0  0  0
  9 14  1  0  0  0  0
  9 15  2  0  0  0  0
 10 13  2  0  0  0  0
 10 16  1  0  0  0  0
 11 12  2  0  0  0  0
 11 18  1  0  0  0  0
 12 22  1  0  0  0  0
 13 23  1  0  0  0  0
 14 17  1  0  0  0  0
 14 19  2  0  0  0  0
 15 21  1  0  0  0  0
 15 23  1  0  0  0  0
 16 21  2  0  0  0  0
 16 22  1  0  0  0  0
 18 20  2  0  0  0  0
 19 23  1  0  0  0  0
 20 22  1  0  0  0  0
  1 24  1  0  0  0  0
  2 25  1  0  0  0  0
  3 26  1  0  0  0  0
  4 27  1  0  0  0  0
  5 28  1  0  0  0  0
  6 29  1  0  0  0  0
  7 30  1  0  0  0  0
  8 31  1  0  0  0  0
  9 32  1  0  0  0  0
 17 33  1  0  0  0  0
 17 34  1  0  0  0  0
 17 35  1  0  0  0  0
M  END
> <idnumber>
Z98405335

> <heavy_atoms>
23

> <LogS>
-4.69

> <LogP>
3.901

> <rotating_bonds>
1

> <PSA>
60.9

> <hb_acceptors>
4

> <hb_donors>
0

> <Collection>
HTS

> <link>
https://www.enaminestore.com/catalog/Z98405335

> <ROCS_ShapeQuery>
x0446_0A_x1080_0A_x0929_0A_x0812_0A_x0719_0A_x1140_0A_x0528_0A_x0310_0A

> <ROCS_TanimotoCombo>
0.454 

> <ROCS_ShapeTanimoto>
0.271 

> <ROCS_ColorTanimoto>
0.183 

> <ROCS_RefTversky>
0.244 

> <ROCS_RefColorTversky>
0.201 

> <ROCS_RefTverskyCombo>
0.445 

> <ROCS_FitTversky>
1.704 

> <ROCS_FitColorTversky>
0.668 

> <ROCS_FitTverskyCombo>
2.372 

> <ROCS_ColorScore>
-7.199

> <ROCS_Overlap>
2885.070

> <ROCS_Rank>
494                 

$$$$
untitled-dbase-362992_1
  -OEChem-02092406493D

 49 52  0     0  0  0  0  0  0999 V2000
    6.4164   14.1046   21.1745 C   0  0  0  0  0  0  0  0  0  0  0  0
    6.3977   15.4911   21.2773 C   0  0  0  0  0  0  0  0  0  0  0  0
   13.2145   14.1832   23.1663 C   0  0  0  0  0  0  0  0  0  0  0  0
   12.4020   15.3694   21.2247 C   0  0  0  0  0  0  0  0  0  0  0  0
   14.4396   14.8408   23.0554 C   0  0  0  0  0  0  0  0  0  0  0  0
   13.6271   16.0270   21.1138 C   0  0  0  0  0  0  0  0  0  0  0  0
    7.6329   13.4324   21.1350 C   0  0  0  0  0  0  0  0  0  0  0  0
   10.1130   10.9320   23.2897 C   0  0  0  0  0  0  0  0  0  0  0  0
    7.6132   16.1535   21.3370 C   0  0  0  0  0  0  0  0  0  0  0  0
    8.3147   12.1980   24.2162 C   0  0  0  0  0  0  0  0  0  0  0  0
    9.6238   12.1656   23.7198 C   0  0  0  0  0  0  0  0  0  0  0  0
   12.1957   14.4475   22.2509 C   0  0  0  0  0  0  0  0  0  0  0  0
   14.6459   15.7627   22.0292 C   0  0  0  0  0  0  0  0  0  0  0  0
    8.7931   14.1869   21.2008 C   0  0  0  0  0  0  0  0  0  0  0  0
    9.2889    9.8148   23.3744 C   0  0  0  0  0  0  0  0  0  0  0  0
    7.4182   13.1494   24.7423 C   0  0  0  0  0  0  0  0  0  0  0  0
    7.6014   11.0098   24.2452 C   0  0  0  0  0  0  0  0  0  0  0  0
   10.4487   13.3572   23.6499 C   0  0  0  0  0  0  0  0  0  0  0  0
    9.8279    8.4991   22.9105 C   0  0  0  0  0  0  0  0  0  0  0  0
    7.6416   14.5919   24.9455 C   0  0  0  0  0  0  0  0  0  0  0  0
    5.2813   10.4082   24.9935 C   0  0  0  0  0  0  0  0  0  0  0  0
   10.1246   13.4943   21.1606 C   0  0  0  0  0  0  0  0  0  0  0  0
    8.8147   15.5349   21.3013 N   0  0  0  0  0  0  0  0  0  0  0  0
    8.0187    9.7957   23.8461 N   0  0  0  0  0  0  0  0  0  0  0  0
    6.2376   12.6188   25.0779 N   0  0  0  0  0  0  0  0  0  0  0  0
    6.3788   11.3180   24.7646 N   0  0  0  0  0  0  0  0  0  0  0  0
   10.9221   13.7643   22.3665 N   0  0  0  0  0  0  0  0  0  0  0  0
   10.7392   13.9814   24.6818 O   0  0  0  0  0  0  0  0  0  0  0  0
   16.1577   16.5741   21.8925 Cl  0  0  0  0  0  0  0  0  0  0  0  0
    5.4847   13.5491   21.1252 H   0  0  0  0  0  0  0  0  0  0  0  0
    5.4612   16.0360   21.3098 H   0  0  0  0  0  0  0  0  0  0  0  0
   13.0645   13.4666   23.9696 H   0  0  0  0  0  0  0  0  0  0  0  0
   11.6150   15.5829   20.5060 H   0  0  0  0  0  0  0  0  0  0  0  0
   15.2245   14.6253   23.7757 H   0  0  0  0  0  0  0  0  0  0  0  0
   13.7742   16.7428   20.3091 H   0  0  0  0  0  0  0  0  0  0  0  0
    7.6612   12.3510   21.0548 H   0  0  0  0  0  0  0  0  0  0  0  0
   11.1219   10.8465   22.8957 H   0  0  0  0  0  0  0  0  0  0  0  0
    7.6529   17.2348   21.4178 H   0  0  0  0  0  0  0  0  0  0  0  0
   10.3176    7.9778   23.7402 H   0  0  0  0  0  0  0  0  0  0  0  0
    9.0273    7.8612   22.5184 H   0  0  0  0  0  0  0  0  0  0  0  0
   10.5558    8.6343   22.1019 H   0  0  0  0  0  0  0  0  0  0  0  0
    7.3468   15.1713   24.0543 H   0  0  0  0  0  0  0  0  0  0  0  0
    7.0680   14.9849   25.8033 H   0  0  0  0  0  0  0  0  0  0  0  0
    8.7004   14.8230   25.1581 H   0  0  0  0  0  0  0  0  0  0  0  0
    5.3833   10.0042   26.0042 H   0  0  0  0  0  0  0  0  0  0  0  0
    4.3348   10.9462   24.8905 H   0  0  0  0  0  0  0  0  0  0  0  0
    5.3184    9.6038   24.2535 H   0  0  0  0  0  0  0  0  0  0  0  0
    9.9933   12.4098   21.0789 H   0  0  0  0  0  0  0  0  0  0  0  0
   10.7095   13.8173   20.2931 H   0  0  0  0  0  0  0  0  0  0  0  0
  1  2  1  0  0  0  0
  1  7  2  0  0  0  0
  2  9  2  0  0  0  0
  3  5  2  0  0  0  0
  3 12  1  0  0  0  0
  4  6  1  0  0  0  0
  4 12  2  0  0  0  0
  5 13  1  0  0  0  0
  6 13  2  0  0  0  0
  7 14  1  0  0  0  0
  8 11  2  0  0  0  0
  8 15  1  0  0  0  0
  9 23  1  0  0  0  0
 10 11  1  0  0  0  0
 10 16  1  0  0  0  0
 10 17  2  0  0  0  0
 11 18  1  0  0  0  0
 12 27  1  0  0  0  0
 13 29  1  0  0  0  0
 14 22  1  0  0  0  0
 14 23  2  0  0  0  0
 15 19  1  0  0  0  0
 15 24  2  0  0  0  0
 16 20  1  0  0  0  0
 16 25  2  0  0  0  0
 17 24  1  0  0  0  0
 17 26  1  0  0  0  0
 18 27  1  0  0  0  0
 18 28  2  0  0  0  0
 21 26  1  0  0  0  0
 22 27  1  0  0  0  0
 25 26  1  0  0  0  0
  1 30  1  0  0  0  0
  2 31  1  0  0  0  0
  3 32  1  0  0  0  0
  4 33  1  0  0  0  0
  5 34  1  0  0  0  0
  6 35  1  0  0  0  0
  7 36  1  0  0  0  0
  8 37  1  0  0  0  0
  9 38  1  0  0  0  0
 19 39  1  0  0  0  0
 19 40  1  0  0  0  0
 19 41  1  0  0  0  0
 20 42  1  0  0  0  0
 20 43  1  0  0  0  0
 20 44  1  0  0  0  0
 21 45  1  0  0  0  0
 21 46  1  0  0  0  0
 21 47  1  0  0  0  0
 22 48  1  0  0  0  0
 22 49  1  0  0  0  0
M  END
> <idnumber>
Z739025696

> <heavy_atoms>
29

> <LogS>
-5.05

> <LogP>
3.732

> <rotating_bonds>
4

> <PSA>
63.91

> <hb_acceptors>
4

> <hb_donors>
0

> <Collection>
HTS

> <link>
https://www.enaminestore.com/catalog/Z739025696

> <ROCS_ShapeQuery>
x0446_0A_x1080_0A_x0929_0A_x0812_0A_x0719_0A_x1140_0A_x0528_0A_x0310_0A

> <ROCS_TanimotoCombo>
0.454 

> <ROCS_ShapeTanimoto>
0.294 

> <ROCS_ColorTanimoto>
0.160 

> <ROCS_RefTversky>
0.264 

> <ROCS_RefColorTversky>
0.174 

> <ROCS_RefTverskyCombo>
0.438 

> <ROCS_FitTversky>
1.647 

> <ROCS_FitColorTversky>
0.657 

> <ROCS_FitTverskyCombo>
2.304 

> <ROCS_ColorScore>
-6.228

> <ROCS_Overlap>
3122.677

> <ROCS_Rank>
495                 

$$$$
untitled-dbase-1140005_62
  -OEChem-02092406493D

 58 64  0     1  0  0  0  0  0999 V2000
    6.3459   16.6719   19.7774 C   0  0  0  0  0  0  0  0  0  0  0  0
   11.4536   16.3930   22.1117 C   0  0  0  0  0  0  0  0  0  0  0  0
    5.4028   14.4676   19.9676 C   0  0  0  0  0  0  0  0  0  0  0  0
    5.2183   17.0336   19.0580 C   0  0  0  0  0  0  0  0  0  0  0  0
   12.7553   16.1157   22.4512 C   0  0  0  0  0  0  0  0  0  0  0  0
    6.4321   15.3626   20.2373 C   0  0  0  0  0  0  0  0  0  0  0  0
   10.8228   15.1349   22.0788 C   0  0  0  0  0  0  0  0  0  0  0  0
    4.3173   14.9280   19.2399 C   0  0  0  0  0  0  0  0  0  0  0  0
    7.5803   14.9379   20.9870 C   0  0  0  0  0  0  0  0  0  0  0  0
    8.7608   13.7959   22.2752 C   0  0  0  0  0  0  0  0  0  0  0  0
    3.0797   11.3680   17.9018 C   0  0  0  0  0  0  0  0  0  0  0  0
    3.5608   11.6165   19.3333 C   0  0  0  0  0  0  0  0  0  0  0  0
    3.3373   12.5818   17.0062 C   0  0  0  0  0  0  0  0  0  0  0  0
    9.8553   11.5427   22.4762 C   0  0  0  0  0  0  0  0  0  0  0  0
    8.3835   10.0029   25.6156 C   0  0  0  0  0  0  0  0  0  0  0  0
    2.9786   12.9170   19.8865 C   0  0  0  0  0  0  0  0  0  0  0  0
    2.7642   13.8636   17.6186 C   0  0  0  0  0  0  0  0  0  0  0  0
    9.3056   12.7931   23.2195 C   0  0  2  0  0  0  0  0  0  0  0  0
    9.4012   10.1973   24.5235 C   0  0  2  0  0  0  0  0  0  0  0  0
    8.8244   11.3859   25.2144 C   0  0  1  0  0  0  0  0  0  0  0  0
    9.0083   10.4150   23.0804 C   0  0  1  0  0  0  0  0  0  0  0  0
    8.1829   12.1577   24.0777 C   0  0  2  0  0  0  0  0  0  0  0  0
   13.9931   13.9944   22.9489 C   0  0  0  0  0  0  0  0  0  0  0  0
    4.1982   16.1924   18.7763 N   0  0  0  0  0  0  0  0  0  0  0  0
   11.6553   14.1328   22.3736 N   0  0  0  0  0  0  0  0  0  0  0  0
    7.5432   13.8308   21.7856 N   0  0  0  0  0  0  0  0  0  0  0  0
    8.7442   15.5901   20.9517 N   0  0  0  0  0  0  0  0  0  0  0  0
   12.8225   14.7611   22.5950 N   0  0  0  0  0  0  0  0  0  0  0  0
    9.4817   14.8393   21.7839 N   0  0  0  0  0  0  0  0  0  0  0  0
    3.2953   14.0219   18.9773 N   0  0  0  0  0  0  0  0  0  0  0  0
    7.7367   11.1001   23.1891 O   0  0  0  0  0  0  0  0  0  0  0  0
    7.1295   17.3984   19.9673 H   0  0  0  0  0  0  0  0  0  0  0  0
   11.0289   17.3673   21.9176 H   0  0  0  0  0  0  0  0  0  0  0  0
    5.4473   13.4396   20.3167 H   0  0  0  0  0  0  0  0  0  0  0  0
    5.1042   18.0426   18.6757 H   0  0  0  0  0  0  0  0  0  0  0  0
   13.6164   16.7528   22.5983 H   0  0  0  0  0  0  0  0  0  0  0  0
    3.5933   10.4869   17.4875 H   0  0  0  0  0  0  0  0  0  0  0  0
    2.0056   11.1325   17.9073 H   0  0  0  0  0  0  0  0  0  0  0  0
    3.2622   10.7798   19.9705 H   0  0  0  0  0  0  0  0  0  0  0  0
    4.6516   11.6655   19.3487 H   0  0  0  0  0  0  0  0  0  0  0  0
    4.4148   12.7004   16.8513 H   0  0  0  0  0  0  0  0  0  0  0  0
    2.8883   12.4141   16.0203 H   0  0  0  0  0  0  0  0  0  0  0  0
    9.6866   11.6115   21.3951 H   0  0  0  0  0  0  0  0  0  0  0  0
   10.9259   11.3981   22.6547 H   0  0  0  0  0  0  0  0  0  0  0  0
    7.3866    9.6743   25.3504 H   0  0  0  0  0  0  0  0  0  0  0  0
    8.7356    9.6209   26.5666 H   0  0  0  0  0  0  0  0  0  0  0  0
    1.8941   12.8017   19.9972 H   0  0  0  0  0  0  0  0  0  0  0  0
    3.3964   13.1205   20.8802 H   0  0  0  0  0  0  0  0  0  0  0  0
    3.0395   14.7264   17.0050 H   0  0  0  0  0  0  0  0  0  0  0  0
    1.6731   13.7906   17.6326 H   0  0  0  0  0  0  0  0  0  0  0  0
   10.0762   13.2663   23.8376 H   0  0  0  0  0  0  0  0  0  0  0  0
   10.4319    9.9268   24.6925 H   0  0  0  0  0  0  0  0  0  0  0  0
    9.4391   11.9676   25.8841 H   0  0  0  0  0  0  0  0  0  0  0  0
    8.9381    9.5056   22.4802 H   0  0  0  0  0  0  0  0  0  0  0  0
    7.3611   12.8131   24.3765 H   0  0  0  0  0  0  0  0  0  0  0  0
   14.0243   13.9101   24.0384 H   0  0  0  0  0  0  0  0  0  0  0  0
   13.9317   13.0036   22.4903 H   0  0  0  0  0  0  0  0  0  0  0  0
   14.8857   14.5059   22.5781 H   0  0  0  0  0  0  0  0  0  0  0  0
  1  4  2  0  0  0  0
  1  6  1  0  0  0  0
  2  5  2  0  0  0  0
  2  7  1  0  0  0  0
  3  6  2  0  0  0  0
  3  8  1  0  0  0  0
  4 24  1  0  0  0  0
  5 28  1  0  0  0  0
  6  9  1  0  0  0  0
  7 25  2  0  0  0  0
  7 29  1  0  0  0  0
  8 24  2  0  0  0  0
  8 30  1  0  0  0  0
  9 26  1  0  0  0  0
  9 27  2  0  0  0  0
 10 18  1  1  0  0  0
 10 26  2  0  0  0  0
 10 29  1  0  0  0  0
 11 12  1  0  0  0  0
 11 13  1  0  0  0  0
 12 16  1  0  0  0  0
 13 17  1  0  0  0  0
 14 18  1  0  0  0  0
 14 21  1  0  0  0  0
 15 19  1  1  0  0  0
 15 20  1  1  0  0  0
 16 30  1  0  0  0  0
 17 30  1  0  0  0  0
 18 22  1  0  0  0  0
 19 20  1  0  0  0  0
 19 21  1  0  0  0  0
 20 22  1  0  0  0  0
 21 31  1  1  0  0  0
 22 31  1  1  0  0  0
 23 28  1  0  0  0  0
 25 28  1  0  0  0  0
 27 29  1  0  0  0  0
  1 32  1  0  0  0  0
  2 33  1  0  0  0  0
  3 34  1  0  0  0  0
  4 35  1  0  0  0  0
  5 36  1  0  0  0  0
 11 37  1  0  0  0  0
 11 38  1  0  0  0  0
 12 39  1  0  0  0  0
 12 40  1  0  0  0  0
 13 41  1  0  0  0  0
 13 42  1  0  0  0  0
 14 43  1  0  0  0  0
 14 44  1  0  0  0  0
 15 45  1  0  0  0  0
 15 46  1  0  0  0  0
 16 47  1  0  0  0  0
 16 48  1  0  0  0  0
 17 49  1  0  0  0  0
 17 50  1  0  0  0  0
 18 51  1  0  0  0  0
 19 52  1  0  0  0  0
 20 53  1  0  0  0  0
 21 54  1  0  0  0  0
 22 55  1  0  0  0  0
 23 56  1  0  0  0  0
 23 57  1  0  0  0  0
 23 58  1  0  0  0  0
M  END
> <idnumber>
Z6404525092

> <heavy_atoms>
31

> <LogS>
-4.232

> <LogP>
1.218

> <rotating_bonds>
4

> <PSA>
73.89

> <hb_acceptors>
6

> <hb_donors>
0

> <Collection>
Advanced

> <link>
https://www.enaminestore.com/catalog/Z6404525092

> <ROCS_ShapeQuery>
x0446_0A_x1080_0A_x0929_0A_x0812_0A_x0719_0A_x1140_0A_x0528_0A_x0310_0A

> <ROCS_TanimotoCombo>
0.454 

> <ROCS_ShapeTanimoto>
0.249 

> <ROCS_ColorTanimoto>
0.205 

> <ROCS_RefTversky>
0.234 

> <ROCS_RefColorTversky>
0.294 

> <ROCS_RefTverskyCombo>
0.528 

> <ROCS_FitTversky>
1.361 

> <ROCS_FitColorTversky>
0.403 

> <ROCS_FitTverskyCombo>
1.765 

> <ROCS_ColorScore>
-10.779

> <ROCS_Overlap>
2767.472

> <ROCS_Rank>
496                 

$$$$
untitled-dbase-982209_152
  -OEChem-02092406493D

 46 48  0     1  0  0  0  0  0999 V2000
    9.0662   14.4456   22.2485 C   0  0  0  0  0  0  0  0  0  0  0  0
    8.0890   13.3508   22.3069 C   0  0  0  0  0  0  0  0  0  0  0  0
    8.5251   11.6555   25.4877 C   0  0  0  0  0  0  0  0  0  0  0  0
    7.3837   10.8684   24.8130 C   0  0  0  0  0  0  0  0  0  0  0  0
   10.3987   11.4149   23.7794 C   0  0  0  0  0  0  0  0  0  0  0  0
    8.4931   10.0994   22.6528 C   0  0  0  0  0  0  0  0  0  0  0  0
    9.8722   10.0218   23.3536 C   0  0  0  0  0  0  0  0  0  0  0  0
    9.2818   12.3231   24.3327 C   0  0  1  0  0  0  0  0  0  0  0  0
    7.5570   11.1308   23.3128 C   0  0  2  0  0  0  0  0  0  0  0  0
   12.6922   15.1060   23.8566 C   0  0  0  0  0  0  0  0  0  0  0  0
   11.4277   17.2375   24.3435 C   0  0  0  0  0  0  0  0  0  0  0  0
   12.7379   16.9980   22.2471 C   0  0  0  0  0  0  0  0  0  0  0  0
   10.8913    9.2940   22.4802 C   0  0  0  0  0  0  0  0  0  0  0  0
   11.9845    8.6840   23.3330 C   0  0  0  0  0  0  0  0  0  0  0  0
   11.8313   16.2320   23.2421 C   0  0  0  0  0  0  0  0  0  0  0  0
    9.0197   15.4444   21.3218 N   0  0  0  0  0  0  0  0  0  0  0  0
   10.0838   14.5460   23.1075 N   0  0  0  0  0  0  0  0  0  0  0  0
   10.0528   16.2352   21.5845 N   0  0  0  0  0  0  0  0  0  0  0  0
   10.6502   15.6680   22.6418 N   0  0  0  0  0  0  0  0  0  0  0  0
    8.2558   12.4035   23.3000 N   0  0  0  0  0  0  0  0  0  0  0  0
    7.1925   13.3512   21.4663 O   0  0  0  0  0  0  0  0  0  0  0  0
   11.4537    7.8104   24.2227 F   0  0  0  0  0  0  0  0  0  0  0  0
   12.6154    9.6474   24.0474 F   0  0  0  0  0  0  0  0  0  0  0  0
    8.0942   12.4171   26.1485 H   0  0  0  0  0  0  0  0  0  0  0  0
    9.1627   11.0081   26.0981 H   0  0  0  0  0  0  0  0  0  0  0  0
    7.4156    9.8040   25.0669 H   0  0  0  0  0  0  0  0  0  0  0  0
    6.4211   11.2639   25.1583 H   0  0  0  0  0  0  0  0  0  0  0  0
   11.1838   11.2899   24.5352 H   0  0  0  0  0  0  0  0  0  0  0  0
   10.8669   11.9128   22.9201 H   0  0  0  0  0  0  0  0  0  0  0  0
    8.6272   10.3683   21.5967 H   0  0  0  0  0  0  0  0  0  0  0  0
    8.0229    9.1086   22.6654 H   0  0  0  0  0  0  0  0  0  0  0  0
    9.7480    9.4225   24.2653 H   0  0  0  0  0  0  0  0  0  0  0  0
    9.6810   13.3026   24.6099 H   0  0  0  0  0  0  0  0  0  0  0  0
    6.6027   11.1828   22.7798 H   0  0  0  0  0  0  0  0  0  0  0  0
   12.9926   14.3775   23.0946 H   0  0  0  0  0  0  0  0  0  0  0  0
   13.6116   15.4882   24.3127 H   0  0  0  0  0  0  0  0  0  0  0  0
   12.1378   14.5682   24.6346 H   0  0  0  0  0  0  0  0  0  0  0  0
   10.8141   18.0565   23.9534 H   0  0  0  0  0  0  0  0  0  0  0  0
   10.8430   16.7480   25.1309 H   0  0  0  0  0  0  0  0  0  0  0  0
   12.3130   17.6835   24.8115 H   0  0  0  0  0  0  0  0  0  0  0  0
   12.1909   17.8191   21.7679 H   0  0  0  0  0  0  0  0  0  0  0  0
   13.6048   17.4423   22.7498 H   0  0  0  0  0  0  0  0  0  0  0  0
   13.1006   16.3441   21.4456 H   0  0  0  0  0  0  0  0  0  0  0  0
   10.3821    8.5082   21.9140 H   0  0  0  0  0  0  0  0  0  0  0  0
   11.3280   10.0039   21.7713 H   0  0  0  0  0  0  0  0  0  0  0  0
   12.7252    8.1576   22.7251 H   0  0  0  0  0  0  0  0  0  0  0  0
  1  2  1  0  0  0  0
  1 16  1  0  0  0  0
  1 17  2  0  0  0  0
  2 20  1  0  0  0  0
  2 21  2  0  0  0  0
  3  4  1  0  0  0  0
  3  8  1  0  0  0  0
  4  9  1  0  0  0  0
  5  7  1  0  0  0  0
  5  8  1  0  0  0  0
  6  7  1  0  0  0  0
  6  9  1  0  0  0  0
  7 13  1  0  0  0  0
  8 20  1  0  0  0  0
  9 20  1  0  0  0  0
 10 15  1  0  0  0  0
 11 15  1  0  0  0  0
 12 15  1  0  0  0  0
 13 14  1  0  0  0  0
 14 22  1  0  0  0  0
 14 23  1  0  0  0  0
 15 19  1  0  0  0  0
 16 18  2  0  0  0  0
 17 19  1  0  0  0  0
 18 19  1  0  0  0  0
  3 24  1  0  0  0  0
  3 25  1  0  0  0  0
  4 26  1  0  0  0  0
  4 27  1  0  0  0  0
  5 28  1  0  0  0  0
  5 29  1  0  0  0  0
  6 30  1  0  0  0  0
  6 31  1  0  0  0  0
  7 32  1  0  0  0  0
  8 33  1  0  0  0  0
  9 34  1  0  0  0  0
 10 35  1  0  0  0  0
 10 36  1  0  0  0  0
 10 37  1  0  0  0  0
 11 38  1  0  0  0  0
 11 39  1  0  0  0  0
 11 40  1  0  0  0  0
 12 41  1  0  0  0  0
 12 42  1  0  0  0  0
 12 43  1  0  0  0  0
 13 44  1  0  0  0  0
 13 45  1  0  0  0  0
 14 46  1  0  0  0  0
M  END
> <idnumber>
Z2962520948

> <heavy_atoms>
23

> <LogS>
-2.472

> <LogP>
0.986

> <rotating_bonds>
4

> <PSA>
63.91

> <hb_acceptors>
4

> <hb_donors>
0

> <Collection>
HTS

> <link>
https://www.enaminestore.com/catalog/Z2962520948

> <ROCS_ShapeQuery>
x0446_0A_x1080_0A_x0929_0A_x0812_0A_x0719_0A_x1140_0A_x0528_0A_x0310_0A

> <ROCS_TanimotoCombo>
0.454 

> <ROCS_ShapeTanimoto>
0.228 

> <ROCS_ColorTanimoto>
0.226 

> <ROCS_RefTversky>
0.211 

> <ROCS_RefColorTversky>
0.254 

> <ROCS_RefTverskyCombo>
0.465 

> <ROCS_FitTversky>
1.548 

> <ROCS_FitColorTversky>
0.678 

> <ROCS_FitTverskyCombo>
2.225 

> <ROCS_ColorScore>
-9.120

> <ROCS_Overlap>
2490.544

> <ROCS_Rank>
497                 

$$$$
untitled-dbase-457298_7
  -OEChem-02092406493D

 29 31  0     0  0  0  0  0  0999 V2000
    5.7966   13.1465   25.1157 C   0  0  0  0  0  0  0  0  0  0  0  0
    5.4705   11.7991   25.2235 C   0  0  0  0  0  0  0  0  0  0  0  0
   13.4826   14.7699   22.1312 C   0  0  0  0  0  0  0  0  0  0  0  0
   13.2913   14.0509   23.3110 C   0  0  0  0  0  0  0  0  0  0  0  0
    7.0466   13.5132   24.6267 C   0  0  0  0  0  0  0  0  0  0  0  0
    6.3942   10.8216   24.8419 C   0  0  0  0  0  0  0  0  0  0  0  0
   12.3839   15.2789   21.4386 C   0  0  0  0  0  0  0  0  0  0  0  0
   12.0013   13.8407   23.7982 C   0  0  0  0  0  0  0  0  0  0  0  0
    9.7215   10.6246   23.5204 C   0  0  0  0  0  0  0  0  0  0  0  0
    7.9698   12.5242   24.2451 C   0  0  0  0  0  0  0  0  0  0  0  0
    7.6520   11.1602   24.3490 C   0  0  0  0  0  0  0  0  0  0  0  0
   11.0940   15.0687   21.9258 C   0  0  0  0  0  0  0  0  0  0  0  0
   10.9026   14.3496   23.1056 C   0  0  0  0  0  0  0  0  0  0  0  0
    9.2354   12.8233   23.7484 C   0  0  0  0  0  0  0  0  0  0  0  0
    8.5274   10.2061   23.9867 N   0  0  0  0  0  0  0  0  0  0  0  0
   10.1357   11.8937   23.3769 N   0  0  0  0  0  0  0  0  0  0  0  0
    9.9855   15.5948   21.2070 N   0  3  0  0  0  0  0  0  0  0  0  0
   10.1973   16.2361   20.1507 O   0  5  0  0  0  0  0  0  0  0  0  0
    8.8288   15.4021   21.6510 O   0  0  0  0  0  0  0  0  0  0  0  0
    9.6361   14.1267   23.6070 O   0  0  0  0  0  0  0  0  0  0  0  0
    5.0801   13.9066   25.4113 H   0  0  0  0  0  0  0  0  0  0  0  0
    4.4973   11.5044   25.6052 H   0  0  0  0  0  0  0  0  0  0  0  0
   14.4871   14.9334   21.7516 H   0  0  0  0  0  0  0  0  0  0  0  0
   14.1467   13.6547   23.8504 H   0  0  0  0  0  0  0  0  0  0  0  0
    7.2866   14.5705   24.5474 H   0  0  0  0  0  0  0  0  0  0  0  0
    6.1146    9.7740   24.9372 H   0  0  0  0  0  0  0  0  0  0  0  0
   12.5482   15.8376   20.5203 H   0  0  0  0  0  0  0  0  0  0  0  0
   11.8594   13.2796   24.7183 H   0  0  0  0  0  0  0  0  0  0  0  0
   10.4221    9.8511   23.2302 H   0  0  0  0  0  0  0  0  0  0  0  0
  1  2  1  0  0  0  0
  1  5  2  0  0  0  0
  2  6  2  0  0  0  0
  3  4  1  0  0  0  0
  3  7  2  0  0  0  0
  4  8  2  0  0  0  0
  5 10  1  0  0  0  0
  6 11  1  0  0  0  0
  7 12  1  0  0  0  0
  8 13  1  0  0  0  0
  9 15  1  0  0  0  0
  9 16  2  0  0  0  0
 10 11  1  0  0  0  0
 10 14  2  0  0  0  0
 11 15  2  0  0  0  0
 12 13  2  0  0  0  0
 12 17  1  0  0  0  0
 13 20  1  0  0  0  0
 14 16  1  0  0  0  0
 14 20  1  0  0  0  0
 17 18  1  0  0  0  0
 17 19  2  0  0  0  0
  1 21  1  0  0  0  0
  2 22  1  0  0  0  0
  3 23  1  0  0  0  0
  4 24  1  0  0  0  0
  5 25  1  0  0  0  0
  6 26  1  0  0  0  0
  7 27  1  0  0  0  0
  8 28  1  0  0  0  0
  9 29  1  0  0  0  0
M  CHG  2  17   1  18  -1
M  END
> <idnumber>
Z57161640

> <heavy_atoms>
20

> <LogS>
-5.19

> <LogP>
2.633

> <rotating_bonds>
3

> <PSA>
78.15

> <hb_acceptors>
4

> <hb_donors>
0

> <Collection>
Legacy

> <link>
https://www.enaminestore.com/catalog/Z57161640

> <ROCS_ShapeQuery>
x0446_0A_x1080_0A_x0929_0A_x0812_0A_x0719_0A_x1140_0A_x0528_0A_x0310_0A

> <ROCS_TanimotoCombo>
0.454 

> <ROCS_ShapeTanimoto>
0.250 

> <ROCS_ColorTanimoto>
0.204 

> <ROCS_RefTversky>
0.226 

> <ROCS_RefColorTversky>
0.214 

> <ROCS_RefTverskyCombo>
0.440 

> <ROCS_FitTversky>
1.759 

> <ROCS_FitColorTversky>
0.807 

> <ROCS_FitTverskyCombo>
2.565 

> <ROCS_ColorScore>
-7.662

> <ROCS_Overlap>
2667.444

> <ROCS_Rank>
498                 

$$$$
untitled-dbase-1070905_69
  -OEChem-02092406493D

 50 52  0     1  0  0  0  0  0999 V2000
    7.3376   16.2689   21.3444 C   0  0  0  0  0  0  0  0  0  0  0  0
    6.0809   15.6741   21.4557 C   0  0  0  0  0  0  0  0  0  0  0  0
    7.0971   13.4908   21.2614 C   0  0  0  0  0  0  0  0  0  0  0  0
    8.0762   12.2173   24.4114 C   0  0  0  0  0  0  0  0  0  0  0  0
    8.3539   14.0857   21.1502 C   0  0  0  0  0  0  0  0  0  0  0  0
    8.4741   15.4747   21.1916 C   0  0  0  0  0  0  0  0  0  0  0  0
    5.9606   14.2850   21.4142 C   0  0  0  0  0  0  0  0  0  0  0  0
    9.2614   12.1119   23.7302 C   0  0  0  0  0  0  0  0  0  0  0  0
    7.5425   10.9106   24.4133 C   0  0  0  0  0  0  0  0  0  0  0  0
   10.2164   13.1277   23.4190 C   0  0  0  0  0  0  0  0  0  0  0  0
    7.3708   13.3517   25.0503 C   0  0  0  0  0  0  0  0  0  0  0  0
    6.2567   10.5823   25.0920 C   0  0  2  0  0  0  0  0  0  0  0  0
    6.3357   12.7985   26.0576 C   0  0  1  0  0  0  0  0  0  0  0  0
    5.3299    9.7278   24.2364 C   0  0  0  0  0  0  0  0  0  0  0  0
    5.4099   13.9032   26.5469 C   0  0  0  0  0  0  0  0  0  0  0  0
   10.4510   10.1747   22.6575 C   0  0  0  0  0  0  0  0  0  0  0  0
   11.8366   13.9134   21.6600 C   0  0  0  0  0  0  0  0  0  0  0  0
    9.7252   17.4965   21.1366 C   0  0  0  0  0  0  0  0  0  0  0  0
    9.5661   13.2156   20.9841 C   0  0  0  0  0  0  0  0  0  0  0  0
    8.3367   10.0293   23.8015 N   0  0  0  0  0  0  0  0  0  0  0  0
    9.3680   10.7923   23.3876 N   0  0  0  0  0  0  0  0  0  0  0  0
   10.5312   13.4104   22.0639 N   0  0  0  0  0  0  0  0  0  0  0  0
   10.7406   13.7513   24.3671 O   0  0  0  0  0  0  0  0  0  0  0  0
    5.5199   11.7859   25.4307 O   0  0  0  0  0  0  0  0  0  0  0  0
    9.6942   16.0716   21.0841 O   0  0  0  0  0  0  0  0  0  0  0  0
    4.4105   13.5506   21.5514 Cl  0  0  0  0  0  0  0  0  0  0  0  0
    7.4251   17.3514   21.3777 H   0  0  0  0  0  0  0  0  0  0  0  0
    5.2038   16.3052   21.5730 H   0  0  0  0  0  0  0  0  0  0  0  0
    7.0086   12.4071   21.2284 H   0  0  0  0  0  0  0  0  0  0  0  0
    8.0732   14.0215   25.5579 H   0  0  0  0  0  0  0  0  0  0  0  0
    6.8613   13.9231   24.2644 H   0  0  0  0  0  0  0  0  0  0  0  0
    6.4679   10.0539   26.0298 H   0  0  0  0  0  0  0  0  0  0  0  0
    6.8412   12.3503   26.9230 H   0  0  0  0  0  0  0  0  0  0  0  0
    5.1100   10.2396   23.2994 H   0  0  0  0  0  0  0  0  0  0  0  0
    4.3955    9.5449   24.7671 H   0  0  0  0  0  0  0  0  0  0  0  0
    5.8037    8.7715   24.0143 H   0  0  0  0  0  0  0  0  0  0  0  0
    4.8964   14.3631   25.7018 H   0  0  0  0  0  0  0  0  0  0  0  0
    5.9843   14.6690   27.0693 H   0  0  0  0  0  0  0  0  0  0  0  0
    4.6659   13.4928   27.2305 H   0  0  0  0  0  0  0  0  0  0  0  0
   11.1973    9.8380   23.3819 H   0  0  0  0  0  0  0  0  0  0  0  0
   10.0663    9.3274   22.0831 H   0  0  0  0  0  0  0  0  0  0  0  0
   10.8864   10.9053   21.9700 H   0  0  0  0  0  0  0  0  0  0  0  0
   12.5020   13.0673   21.4332 H   0  0  0  0  0  0  0  0  0  0  0  0
   11.7259   14.5428   20.7647 H   0  0  0  0  0  0  0  0  0  0  0  0
   12.2682   14.5104   22.4768 H   0  0  0  0  0  0  0  0  0  0  0  0
   10.7570   17.8430   21.0395 H   0  0  0  0  0  0  0  0  0  0  0  0
    9.3033   17.8363   22.0857 H   0  0  0  0  0  0  0  0  0  0  0  0
    9.1301   17.8956   20.3118 H   0  0  0  0  0  0  0  0  0  0  0  0
    9.2831   12.1574   20.9715 H   0  0  0  0  0  0  0  0  0  0  0  0
   10.0752   13.4273   20.0379 H   0  0  0  0  0  0  0  0  0  0  0  0
  1  2  2  0  0  0  0
  1  6  1  0  0  0  0
  2  7  1  0  0  0  0
  3  5  1  0  0  0  0
  3  7  2  0  0  0  0
  4  8  2  0  0  0  0
  4  9  1  0  0  0  0
  4 11  1  0  0  0  0
  5  6  2  0  0  0  0
  5 19  1  0  0  0  0
  6 25  1  0  0  0  0
  7 26  1  0  0  0  0
  8 10  1  0  0  0  0
  8 21  1  0  0  0  0
  9 12  1  0  0  0  0
  9 20  2  0  0  0  0
 10 22  1  0  0  0  0
 10 23  2  0  0  0  0
 11 13  1  0  0  0  0
 12 14  1  1  0  0  0
 12 24  1  0  0  0  0
 13 15  1  1  0  0  0
 13 24  1  0  0  0  0
 16 21  1  0  0  0  0
 17 22  1  0  0  0  0
 18 25  1  0  0  0  0
 19 22  1  0  0  0  0
 20 21  1  0  0  0  0
  1 27  1  0  0  0  0
  2 28  1  0  0  0  0
  3 29  1  0  0  0  0
 11 30  1  0  0  0  0
 11 31  1  0  0  0  0
 12 32  1  0  0  0  0
 13 33  1  0  0  0  0
 14 34  1  0  0  0  0
 14 35  1  0  0  0  0
 14 36  1  0  0  0  0
 15 37  1  0  0  0  0
 15 38  1  0  0  0  0
 15 39  1  0  0  0  0
 16 40  1  0  0  0  0
 16 41  1  0  0  0  0
 16 42  1  0  0  0  0
 17 43  1  0  0  0  0
 17 44  1  0  0  0  0
 17 45  1  0  0  0  0
 18 46  1  0  0  0  0
 18 47  1  0  0  0  0
 18 48  1  0  0  0  0
 19 49  1  0  0  0  0
 19 50  1  0  0  0  0
M  END
> <idnumber>
Z4107122986

> <heavy_atoms>
26

> <LogS>
-3.285

> <LogP>
2.251

> <rotating_bonds>
4

> <PSA>
56.59

> <hb_acceptors>
4

> <hb_donors>
0

> <Collection>
HTS

> <link>
https://www.enaminestore.com/catalog/Z4107122986

> <ROCS_ShapeQuery>
x0446_0A_x1080_0A_x0929_0A_x0812_0A_x0719_0A_x1140_0A_x0528_0A_x0310_0A

> <ROCS_TanimotoCombo>
0.454 

> <ROCS_ShapeTanimoto>
0.268 

> <ROCS_ColorTanimoto>
0.186 

> <ROCS_RefTversky>
0.242 

> <ROCS_RefColorTversky>
0.194 

> <ROCS_RefTverskyCombo>
0.437 

> <ROCS_FitTversky>
1.656 

> <ROCS_FitColorTversky>
0.814 

> <ROCS_FitTverskyCombo>
2.469 

> <ROCS_ColorScore>
-6.939

> <ROCS_Overlap>
2864.103

> <ROCS_Rank>
499                 

$$$$
untitled-dbase-450921_11
  -OEChem-02092406493D

 42 46  0     0  0  0  0  0  0999 V2000
   11.0017   15.8783   19.6349 C   0  0  0  0  0  0  0  0  0  0  0  0
    6.1282   15.5996   23.3762 C   0  0  0  0  0  0  0  0  0  0  0  0
    7.5338   15.5073   25.3391 C   0  0  0  0  0  0  0  0  0  0  0  0
    6.0869   16.9905   23.4711 C   0  0  0  0  0  0  0  0  0  0  0  0
    7.4926   16.8984   25.4340 C   0  0  0  0  0  0  0  0  0  0  0  0
    9.6499   16.0607   19.3815 C   0  0  0  0  0  0  0  0  0  0  0  0
   13.1765   14.6190   22.3741 C   0  0  0  0  0  0  0  0  0  0  0  0
    5.7238   12.6975   24.2795 C   0  0  0  0  0  0  0  0  0  0  0  0
    9.8020   10.6001   23.7466 C   0  0  0  0  0  0  0  0  0  0  0  0
   11.4236   15.3463   20.8608 C   0  0  0  0  0  0  0  0  0  0  0  0
    8.0450   12.5874   24.0458 C   0  0  0  0  0  0  0  0  0  0  0  0
    6.8516   14.8579   24.3102 C   0  0  0  0  0  0  0  0  0  0  0  0
    6.8946   13.4211   24.2121 C   0  0  0  0  0  0  0  0  0  0  0  0
   10.4385   15.0084   21.8123 C   0  0  0  0  0  0  0  0  0  0  0  0
   10.8582   14.4796   23.0299 C   0  0  0  0  0  0  0  0  0  0  0  0
    6.7691   17.6400   24.5000 C   0  0  0  0  0  0  0  0  0  0  0  0
   12.7850   15.1494   21.1482 C   0  0  0  0  0  0  0  0  0  0  0  0
   12.2116   14.2838   23.3158 C   0  0  0  0  0  0  0  0  0  0  0  0
    8.7605   15.7005   20.3735 C   0  0  0  0  0  0  0  0  0  0  0  0
    9.4116   12.8614   23.9305 C   0  0  0  0  0  0  0  0  0  0  0  0
    7.6816   11.2479   23.9946 C   0  0  0  0  0  0  0  0  0  0  0  0
    7.2968   15.8786   20.1443 C   0  0  0  0  0  0  0  0  0  0  0  0
   10.2966   11.8530   23.7794 N   0  0  0  0  0  0  0  0  0  0  0  0
    8.5204   10.2040   23.8455 N   0  0  0  0  0  0  0  0  0  0  0  0
    9.1259   15.1841   21.5692 N   0  0  0  0  0  0  0  0  0  0  0  0
    9.9148   14.1469   23.9652 O   0  0  0  0  0  0  0  0  0  0  0  0
    6.0000   11.0149   24.1427 S   0  0  0  0  0  0  0  0  0  0  0  0
    6.7177   19.3561   24.6187 Cl  0  0  0  0  0  0  0  0  0  0  0  0
   14.0548   15.5384   20.0326 Cl  0  0  0  0  0  0  0  0  0  0  0  0
   12.7162   13.6281   24.8308 Cl  0  0  0  0  0  0  0  0  0  0  0  0
   11.7005   16.1618   18.8530 H   0  0  0  0  0  0  0  0  0  0  0  0
    5.5908   15.1090   22.5678 H   0  0  0  0  0  0  0  0  0  0  0  0
    8.1021   14.9431   26.0749 H   0  0  0  0  0  0  0  0  0  0  0  0
    5.5192   17.5556   22.7363 H   0  0  0  0  0  0  0  0  0  0  0  0
    8.0279   17.3906   26.2417 H   0  0  0  0  0  0  0  0  0  0  0  0
    9.3157   16.4713   18.4350 H   0  0  0  0  0  0  0  0  0  0  0  0
   14.2305   14.4670   22.5968 H   0  0  0  0  0  0  0  0  0  0  0  0
    4.7143   13.0672   24.4024 H   0  0  0  0  0  0  0  0  0  0  0  0
   10.5329    9.8084   23.6246 H   0  0  0  0  0  0  0  0  0  0  0  0
    6.8690   14.9753   19.6930 H   0  0  0  0  0  0  0  0  0  0  0  0
    6.7689   16.0819   21.0848 H   0  0  0  0  0  0  0  0  0  0  0  0
    7.0990   16.7283   19.4783 H   0  0  0  0  0  0  0  0  0  0  0  0
  1  6  2  0  0  0  0
  1 10  1  0  0  0  0
  2  4  2  0  0  0  0
  2 12  1  0  0  0  0
  3  5  1  0  0  0  0
  3 12  2  0  0  0  0
  4 16  1  0  0  0  0
  5 16  2  0  0  0  0
  6 19  1  0  0  0  0
  7 17  2  0  0  0  0
  7 18  1  0  0  0  0
  8 13  2  0  0  0  0
  8 27  1  0  0  0  0
  9 23  2  0  0  0  0
  9 24  1  0  0  0  0
 10 14  2  0  0  0  0
 10 17  1  0  0  0  0
 11 13  1  0  0  0  0
 11 20  2  0  0  0  0
 11 21  1  0  0  0  0
 12 13  1  0  0  0  0
 14 15  1  0  0  0  0
 14 25  1  0  0  0  0
 15 18  2  0  0  0  0
 15 26  1  0  0  0  0
 16 28  1  0  0  0  0
 17 29  1  0  0  0  0
 18 30  1  0  0  0  0
 19 22  1  0  0  0  0
 19 25  2  0  0  0  0
 20 23  1  0  0  0  0
 20 26  1  0  0  0  0
 21 24  2  0  0  0  0
 21 27  1  0  0  0  0
  1 31  1  0  0  0  0
  2 32  1  0  0  0  0
  3 33  1  0  0  0  0
  4 34  1  0  0  0  0
  5 35  1  0  0  0  0
  6 36  1  0  0  0  0
  7 37  1  0  0  0  0
  8 38  1  0  0  0  0
  9 39  1  0  0  0  0
 22 40  1  0  0  0  0
 22 41  1  0  0  0  0
 22 42  1  0  0  0  0
M  END
> <idnumber>
Z56886872

> <heavy_atoms>
30

> <LogS>
-9.78

> <LogP>
7.253

> <rotating_bonds>
3

> <PSA>
47.9

> <hb_acceptors>
3

> <hb_donors>
0

> <Collection>
Legacy

> <link>
https://www.enaminestore.com/catalog/Z56886872

> <ROCS_ShapeQuery>
x0446_0A_x1080_0A_x0929_0A_x0812_0A_x0719_0A_x1140_0A_x0528_0A_x0310_0A

> <ROCS_TanimotoCombo>
0.454 

> <ROCS_ShapeTanimoto>
0.251 

> <ROCS_ColorTanimoto>
0.203 

> <ROCS_RefTversky>
0.234 

> <ROCS_RefColorTversky>
0.218 

> <ROCS_RefTverskyCombo>
0.452 

> <ROCS_FitTversky>
1.430 

> <ROCS_FitColorTversky>
0.747 

> <ROCS_FitTverskyCombo>
2.176 

> <ROCS_ColorScore>
-7.798

> <ROCS_Overlap>
2763.884

> <ROCS_Rank>
500                 

$$$$
