untitled-dbase-83484_1
  -OEChem-02092423213D

 25 26  0     0  0  0  0  0  0999 V2000
    7.7475   12.2978   25.1810 C   0  0  0  0  0  0  0  0  0  0  0  0
    8.7474   12.6361   24.2797 C   0  0  0  0  0  0  0  0  0  0  0  0
    7.4578   10.9580   25.3426 C   0  0  0  0  0  0  0  0  0  0  0  0
    9.4190   11.6406   23.5636 C   0  0  0  0  0  0  0  0  0  0  0  0
    9.0790   10.3028   23.8149 C   0  0  0  0  0  0  0  0  0  0  0  0
   10.8755   10.9525   21.7339 C   0  0  0  0  0  0  0  0  0  0  0  0
   10.9858    9.5703   22.4070 C   0  0  0  0  0  0  0  0  0  0  0  0
   12.1916    9.5067   23.3586 C   0  0  0  0  0  0  0  0  0  0  0  0
   11.1427    8.4899   21.3272 C   0  0  0  0  0  0  0  0  0  0  0  0
    8.0954    9.9631   24.6871 N   0  0  0  0  0  0  0  0  0  0  0  0
   10.4272   11.9688   22.6677 N   0  0  0  0  0  0  0  0  0  0  0  0
    9.7696    9.2860   23.1632 N   0  0  0  0  0  0  0  0  0  0  0  0
    7.2150   13.0593   25.7387 H   0  0  0  0  0  0  0  0  0  0  0  0
    9.0082   13.6829   24.1436 H   0  0  0  0  0  0  0  0  0  0  0  0
    6.6762   10.6354   26.0224 H   0  0  0  0  0  0  0  0  0  0  0  0
   11.8495   11.2592   21.3308 H   0  0  0  0  0  0  0  0  0  0  0  0
   10.1821   10.9151   20.8856 H   0  0  0  0  0  0  0  0  0  0  0  0
   12.2397    8.5224   23.8146 H   0  0  0  0  0  0  0  0  0  0  0  0
   12.0805   10.2605   24.1324 H   0  0  0  0  0  0  0  0  0  0  0  0
   13.1033    9.6926   22.7985 H   0  0  0  0  0  0  0  0  0  0  0  0
   11.2204    7.5166   21.8015 H   0  0  0  0  0  0  0  0  0  0  0  0
   12.0406    8.6866   20.7500 H   0  0  0  0  0  0  0  0  0  0  0  0
   10.2771    8.5082   20.6724 H   0  0  0  0  0  0  0  0  0  0  0  0
   11.0342   12.7529   22.8739 H   0  0  0  0  0  0  0  0  0  0  0  0
    9.2999    8.3955   23.0510 H   0  0  0  0  0  0  0  0  0  0  0  0
  1  2  2  0  0  0  0
  1  3  1  0  0  0  0
  2  4  1  0  0  0  0
  3 10  2  0  0  0  0
  4  5  2  0  0  0  0
  4 11  1  0  0  0  0
  5 10  1  0  0  0  0
  5 12  1  0  0  0  0
  6  7  1  0  0  0  0
  6 11  1  0  0  0  0
  7  8  1  0  0  0  0
  7  9  1  0  0  0  0
  7 12  1  0  0  0  0
  1 13  1  0  0  0  0
  2 14  1  0  0  0  0
  3 15  1  0  0  0  0
  6 16  1  0  0  0  0
  6 17  1  0  0  0  0
  8 18  1  0  0  0  0
  8 19  1  0  0  0  0
  8 20  1  0  0  0  0
  9 21  1  0  0  0  0
  9 22  1  0  0  0  0
  9 23  1  0  0  0  0
 11 24  1  0  0  0  0
 12 25  1  0  0  0  0
M  END
> <id>
EN300-643530

> <smiles>
CC1(C)CNC=2C=CC=NC2N1

> <MDLNUMBER>
MFCD15142754

> <IUPAC Name>
3,3-dimethyl-1H,2H,3H,4H-pyrido[2,3-b]pyrazine

> <CAS>
1228600-44-9

> <Purity>
95

> <URL>
https://www.enaminestore.com/catalog/EN300-643530

> <MP>
140-145

> <ROCS_ShapeQuery>
_x1140_x0812_0A_x1140_0A_x1097_0A_x0365_0A_x1097_0A_x0310_0A

> <ROCS_TanimotoCombo>
0.686 

> <ROCS_ShapeTanimoto>
0.214 

> <ROCS_ColorTanimoto>
0.472 

> <ROCS_RefTversky>
0.194 

> <ROCS_RefColorTversky>
0.568 

> <ROCS_RefTverskyCombo>
0.763 

> <ROCS_FitTversky>
1.894 

> <ROCS_FitColorTversky>
0.735 

> <ROCS_FitTverskyCombo>
2.629 

> <ROCS_ColorScore>
-4.491

> <ROCS_Overlap>
1989.891

> <ROCS_Rank>
1                   

$$$$
untitled-dbase-166873_8
  -OEChem-02092423213D

 25 25  0     0  0  0  0  0  0999 V2000
    8.6417   12.3945   24.3545 C   0  0  0  0  0  0  0  0  0  0  0  0
    7.7089   11.9181   25.2689 C   0  0  0  0  0  0  0  0  0  0  0  0
    9.2233   11.5198   23.4435 C   0  0  0  0  0  0  0  0  0  0  0  0
    8.8413   10.1887   23.4877 C   0  0  0  0  0  0  0  0  0  0  0  0
    7.3945   10.5692   25.2313 C   0  0  0  0  0  0  0  0  0  0  0  0
   10.2010   12.0164   22.4872 C   0  0  0  0  0  0  0  0  0  0  0  0
   10.9541    9.1353   22.6435 C   0  0  0  0  0  0  0  0  0  0  0  0
   11.8920   13.6618   22.1369 C   0  0  0  0  0  0  0  0  0  0  0  0
    9.4338    9.2007   22.5364 C   0  0  0  0  0  0  0  0  0  0  0  0
    7.9386    9.6891   24.3613 N   0  0  0  0  0  0  0  0  0  0  0  0
    6.4453   10.0983   26.1723 N   0  0  0  0  0  0  0  0  0  0  0  0
   10.3822   11.5384   21.3598 O   0  0  0  0  0  0  0  0  0  0  0  0
   10.8978   13.0817   22.9881 O   0  0  0  0  0  0  0  0  0  0  0  0
    8.9059   13.4486   24.3598 H   0  0  0  0  0  0  0  0  0  0  0  0
    7.2502   12.5941   25.9834 H   0  0  0  0  0  0  0  0  0  0  0  0
   11.4037   10.1185   22.4684 H   0  0  0  0  0  0  0  0  0  0  0  0
   11.3633    8.4390   21.9047 H   0  0  0  0  0  0  0  0  0  0  0  0
   11.2644    8.7961   23.6376 H   0  0  0  0  0  0  0  0  0  0  0  0
   12.3715   14.4975   22.6525 H   0  0  0  0  0  0  0  0  0  0  0  0
   11.4237   14.0102   21.2129 H   0  0  0  0  0  0  0  0  0  0  0  0
   12.6426   12.9042   21.8995 H   0  0  0  0  0  0  0  0  0  0  0  0
    9.0149    8.1987   22.7171 H   0  0  0  0  0  0  0  0  0  0  0  0
    9.1545    9.4528   21.5016 H   0  0  0  0  0  0  0  0  0  0  0  0
    6.0802   10.7345   26.8471 H   0  0  0  0  0  0  0  0  0  0  0  0
    6.2362    9.1241   26.1982 H   0  0  0  0  0  0  0  0  0  0  0  0
  1  2  2  0  0  0  0
  1  3  1  0  0  0  0
  2  5  1  0  0  0  0
  3  4  2  0  0  0  0
  3  6  1  0  0  0  0
  4  9  1  0  0  0  0
  4 10  1  0  0  0  0
  5 10  2  0  0  0  0
  5 11  1  0  0  0  0
  6 12  2  0  0  0  0
  6 13  1  0  0  0  0
  7  9  1  0  0  0  0
  8 13  1  0  0  0  0
  1 14  1  0  0  0  0
  2 15  1  0  0  0  0
  7 16  1  0  0  0  0
  7 17  1  0  0  0  0
  7 18  1  0  0  0  0
  8 19  1  0  0  0  0
  8 20  1  0  0  0  0
  8 21  1  0  0  0  0
  9 22  1  0  0  0  0
  9 23  1  0  0  0  0
 11 24  1  0  0  0  0
 11 25  1  0  0  0  0
M  END
> <id>
EN300-30867146

> <smiles>
CCC=1N=C(N)C=CC1C(=O)OC

> <IUPAC Name>
methyl 6-amino-2-ethylpyridine-3-carboxylate

> <CAS>
2751704-50-2

> <URL>
https://www.enaminestore.com/catalog/EN300-30867146

> <ROCS_ShapeQuery>
_x1140_x0812_0A_x1140_0A_x1097_0A_x0365_0A_x1097_0A_x0310_0A

> <ROCS_TanimotoCombo>
0.683 

> <ROCS_ShapeTanimoto>
0.243 

> <ROCS_ColorTanimoto>
0.440 

> <ROCS_RefTversky>
0.216 

> <ROCS_RefColorTversky>
0.541 

> <ROCS_RefTverskyCombo>
0.758 

> <ROCS_FitTversky>
2.061 

> <ROCS_FitColorTversky>
0.700 

> <ROCS_FitTverskyCombo>
2.761 

> <ROCS_ColorScore>
-4.277

> <ROCS_Overlap>
2217.607

> <ROCS_Rank>
2                   

$$$$
untitled-dbase-129949_5
  -OEChem-02092423213D

 28 28  0     0  0  0  0  0  0999 V2000
    8.7903   11.0031   23.6611 C   0  0  0  0  0  0  0  0  0  0  0  0
    8.9194   12.2117   24.3128 C   0  0  0  0  0  0  0  0  0  0  0  0
    7.3360   10.6681   25.2681 C   0  0  0  0  0  0  0  0  0  0  0  0
    9.5538   10.6258   22.4448 C   0  0  0  0  0  0  0  0  0  0  0  0
   11.7921    9.3582   23.6637 C   0  0  0  0  0  0  0  0  0  0  0  0
   11.1132    7.3260   22.3529 C   0  0  0  0  0  0  0  0  0  0  0  0
   11.7914    9.4225   21.1476 C   0  0  0  0  0  0  0  0  0  0  0  0
    9.7806   13.3733   24.0099 C   0  0  0  0  0  0  0  0  0  0  0  0
   11.1122    8.8526   22.3921 C   0  0  0  0  0  0  0  0  0  0  0  0
    7.8832   10.1165   24.2077 N   0  0  0  0  0  0  0  0  0  0  0  0
    6.3976   10.0663   26.0464 N   0  0  0  0  0  0  0  0  0  0  0  0
    9.9380   11.4369   21.6167 O   0  0  0  0  0  0  0  0  0  0  0  0
    9.7502    9.2818   22.4036 O   0  0  0  0  0  0  0  0  0  0  0  0
   10.5729   13.2112   22.9020 F   0  0  0  0  0  0  0  0  0  0  0  0
    9.0918   14.5353   23.7720 F   0  0  0  0  0  0  0  0  0  0  0  0
   10.6498   13.6790   25.0242 F   0  0  0  0  0  0  0  0  0  0  0  0
    7.8654   12.2515   25.6652 S   0  0  0  0  0  0  0  0  0  0  0  0
   11.7935   10.4537   23.6956 H   0  0  0  0  0  0  0  0  0  0  0  0
   11.2931    8.9848   24.5638 H   0  0  0  0  0  0  0  0  0  0  0  0
   12.8425    9.0467   23.6958 H   0  0  0  0  0  0  0  0  0  0  0  0
   10.6263    6.9588   21.4422 H   0  0  0  0  0  0  0  0  0  0  0  0
   10.5449    6.9136   23.1945 H   0  0  0  0  0  0  0  0  0  0  0  0
   12.1298    6.9215   22.3897 H   0  0  0  0  0  0  0  0  0  0  0  0
   11.3039    9.0599   20.2354 H   0  0  0  0  0  0  0  0  0  0  0  0
   11.7675   10.5170   21.1406 H   0  0  0  0  0  0  0  0  0  0  0  0
   12.8363    9.0966   21.0902 H   0  0  0  0  0  0  0  0  0  0  0  0
    6.0203    9.1406   25.8167 H   0  0  0  0  0  0  0  0  0  0  0  0
    5.9626   10.5521   26.8382 H   0  0  0  0  0  0  0  0  0  0  0  0
  1  2  2  0  0  0  0
  1  4  1  0  0  0  0
  1 10  1  0  0  0  0
  2  8  1  0  0  0  0
  2 17  1  0  0  0  0
  3 10  2  0  0  0  0
  3 11  1  0  0  0  0
  3 17  1  0  0  0  0
  4 12  2  0  0  0  0
  4 13  1  0  0  0  0
  5  9  1  0  0  0  0
  6  9  1  0  0  0  0
  7  9  1  0  0  0  0
  8 14  1  0  0  0  0
  8 15  1  0  0  0  0
  8 16  1  0  0  0  0
  9 13  1  0  0  0  0
  5 18  1  0  0  0  0
  5 19  1  0  0  0  0
  5 20  1  0  0  0  0
  6 21  1  0  0  0  0
  6 22  1  0  0  0  0
  6 23  1  0  0  0  0
  7 24  1  0  0  0  0
  7 25  1  0  0  0  0
  7 26  1  0  0  0  0
 11 27  1  0  0  0  0
 11 28  1  0  0  0  0
M  END
> <id>
EN300-1458439

> <smiles>
CC(C)(C)OC(=O)C=1N=C(N)SC1C(F)(F)F

> <IUPAC Name>
tert-butyl 2-amino-5-(trifluoromethyl)-1,3-thiazole-4-carboxylate

> <CAS>
2171901-28-1

> <URL>
https://www.enaminestore.com/catalog/EN300-1458439

> <ROCS_ShapeQuery>
_x1140_x0812_0A_x1140_0A_x1097_0A_x0365_0A_x1097_0A_x0310_0A

> <ROCS_TanimotoCombo>
0.681 

> <ROCS_ShapeTanimoto>
0.239 

> <ROCS_ColorTanimoto>
0.442 

> <ROCS_RefTversky>
0.216 

> <ROCS_RefColorTversky>
0.543 

> <ROCS_RefTverskyCombo>
0.760 

> <ROCS_FitTversky>
1.777 

> <ROCS_FitColorTversky>
0.703 

> <ROCS_FitTverskyCombo>
2.480 

> <ROCS_ColorScore>
-4.292

> <ROCS_Overlap>
2220.829

> <ROCS_Rank>
3                   

$$$$
untitled-dbase-526232_5
  -OEChem-02092423213D

 24 24  0     0  0  0  0  0  0999 V2000
    8.5540   12.5900   24.0752 C   0  0  0  0  0  0  0  0  0  0  0  0
    7.5066   10.8182   25.2669 C   0  0  0  0  0  0  0  0  0  0  0  0
    7.6175   12.1763   25.0160 C   0  0  0  0  0  0  0  0  0  0  0  0
    9.3400   11.6463   23.4233 C   0  0  0  0  0  0  0  0  0  0  0  0
    9.1521   10.3119   23.7456 C   0  0  0  0  0  0  0  0  0  0  0  0
   11.2101    8.9099   23.5883 C   0  0  0  0  0  0  0  0  0  0  0  0
    6.7616   13.1609   25.7302 C   0  0  0  0  0  0  0  0  0  0  0  0
    5.8944   13.9788   24.7820 C   0  0  0  0  0  0  0  0  0  0  0  0
    8.2525    9.8719   24.6537 N   0  0  0  0  0  0  0  0  0  0  0  0
   10.2892   12.0631   22.4713 N   0  0  0  0  0  0  0  0  0  0  0  0
    9.9480    9.3428   23.0844 N   0  0  0  0  0  0  0  0  0  0  0  0
    5.9124   12.5748   26.6369 F   0  0  0  0  0  0  0  0  0  0  0  0
    7.4854   14.0581   26.4774 F   0  0  0  0  0  0  0  0  0  0  0  0
    5.0681   13.1816   24.0678 F   0  0  0  0  0  0  0  0  0  0  0  0
    6.6487   14.6731   23.9034 F   0  0  0  0  0  0  0  0  0  0  0  0
    5.1255   14.8594   25.4575 F   0  0  0  0  0  0  0  0  0  0  0  0
    8.6687   13.6483   23.8518 H   0  0  0  0  0  0  0  0  0  0  0  0
    6.7927   10.4364   25.9903 H   0  0  0  0  0  0  0  0  0  0  0  0
   11.4309    9.4376   24.5279 H   0  0  0  0  0  0  0  0  0  0  0  0
   11.1781    7.8264   23.7752 H   0  0  0  0  0  0  0  0  0  0  0  0
   11.9950    9.1317   22.8502 H   0  0  0  0  0  0  0  0  0  0  0  0
   10.3565   13.0345   22.2381 H   0  0  0  0  0  0  0  0  0  0  0  0
   10.8181   11.3747   21.9721 H   0  0  0  0  0  0  0  0  0  0  0  0
    9.5818    8.9688   22.2332 H   0  0  0  0  0  0  0  0  0  0  0  0
  1  3  2  0  0  0  0
  1  4  1  0  0  0  0
  2  3  1  0  0  0  0
  2  9  2  0  0  0  0
  3  7  1  0  0  0  0
  4  5  2  0  0  0  0
  4 10  1  0  0  0  0
  5  9  1  0  0  0  0
  5 11  1  0  0  0  0
  6 11  1  0  0  0  0
  7  8  1  0  0  0  0
  7 12  1  0  0  0  0
  7 13  1  0  0  0  0
  8 14  1  0  0  0  0
  8 15  1  0  0  0  0
  8 16  1  0  0  0  0
  1 17  1  0  0  0  0
  2 18  1  0  0  0  0
  6 19  1  0  0  0  0
  6 20  1  0  0  0  0
  6 21  1  0  0  0  0
 10 22  1  0  0  0  0
 10 23  1  0  0  0  0
 11 24  1  0  0  0  0
M  END
> <id>
EN300-267859

> <smiles>
CNC=1N=CC(=CC1N)C(F)(F)C(F)(F)F

> <MDLNUMBER>
MFCD31665740

> <IUPAC Name>
N2-methyl-5-(pentafluoroethyl)pyridine-2,3-diamine

> <CAS>
1383840-72-9

> <Purity>
95

> <URL>
https://www.enaminestore.com/catalog/EN300-267859

> <ROCS_ShapeQuery>
_x1140_x0812_0A_x1140_0A_x1097_0A_x0365_0A_x1097_0A_x0310_0A

> <ROCS_TanimotoCombo>
0.672 

> <ROCS_ShapeTanimoto>
0.235 

> <ROCS_ColorTanimoto>
0.437 

> <ROCS_RefTversky>
0.213 

> <ROCS_RefColorTversky>
0.504 

> <ROCS_RefTverskyCombo>
0.717 

> <ROCS_FitTversky>
1.774 

> <ROCS_FitColorTversky>
0.768 

> <ROCS_FitTverskyCombo>
2.542 

> <ROCS_ColorScore>
-3.956

> <ROCS_Overlap>
2183.810

> <ROCS_Rank>
4                   

$$$$
untitled-dbase-292277_8
  -OEChem-02092423213D

 28 28  0     0  0  0  0  0  0999 V2000
    7.6986   11.9378   25.4907 C   0  0  0  0  0  0  0  0  0  0  0  0
    8.3860   12.5270   24.4354 C   0  0  0  0  0  0  0  0  0  0  0  0
    7.7175   10.5556   25.5858 C   0  0  0  0  0  0  0  0  0  0  0  0
    9.0617   11.7273   23.5203 C   0  0  0  0  0  0  0  0  0  0  0  0
    9.0197   10.3546   23.7038 C   0  0  0  0  0  0  0  0  0  0  0  0
    9.7745   12.3538   22.4155 C   0  0  0  0  0  0  0  0  0  0  0  0
   12.0533    9.4505   23.3922 C   0  0  0  0  0  0  0  0  0  0  0  0
   10.9284    7.5667   22.1545 C   0  0  0  0  0  0  0  0  0  0  0  0
   10.9507   14.3171   21.7479 C   0  0  0  0  0  0  0  0  0  0  0  0
   10.7727    8.6479   23.2139 C   0  0  0  0  0  0  0  0  0  0  0  0
    8.3626    9.7459   24.7164 N   0  0  0  0  0  0  0  0  0  0  0  0
    9.6783    9.5633   22.8086 N   0  0  0  0  0  0  0  0  0  0  0  0
    9.9447   11.8298   21.3079 O   0  0  0  0  0  0  0  0  0  0  0  0
   10.2321   13.5968   22.7551 O   0  0  0  0  0  0  0  0  0  0  0  0
    7.1636   12.5415   26.2148 H   0  0  0  0  0  0  0  0  0  0  0  0
    8.3875   13.6093   24.3363 H   0  0  0  0  0  0  0  0  0  0  0  0
    7.1967   10.0474   26.3907 H   0  0  0  0  0  0  0  0  0  0  0  0
   12.3529    9.9212   22.4502 H   0  0  0  0  0  0  0  0  0  0  0  0
   11.9301   10.2386   24.1435 H   0  0  0  0  0  0  0  0  0  0  0  0
   12.8735    8.8047   23.7244 H   0  0  0  0  0  0  0  0  0  0  0  0
   11.2090    8.0052   21.1906 H   0  0  0  0  0  0  0  0  0  0  0  0
    9.9912    7.0176   22.0172 H   0  0  0  0  0  0  0  0  0  0  0  0
   11.7084    6.8474   22.4282 H   0  0  0  0  0  0  0  0  0  0  0  0
   11.2592   15.2880   22.1433 H   0  0  0  0  0  0  0  0  0  0  0  0
   10.3123   14.4548   20.8716 H   0  0  0  0  0  0  0  0  0  0  0  0
   11.8364   13.7437   21.4644 H   0  0  0  0  0  0  0  0  0  0  0  0
   10.4926    8.1869   24.1673 H   0  0  0  0  0  0  0  0  0  0  0  0
    9.4492    9.5700   21.8394 H   0  0  0  0  0  0  0  0  0  0  0  0
  1  2  2  0  0  0  0
  1  3  1  0  0  0  0
  2  4  1  0  0  0  0
  3 11  2  0  0  0  0
  4  5  2  0  0  0  0
  4  6  1  0  0  0  0
  5 11  1  0  0  0  0
  5 12  1  0  0  0  0
  6 13  2  0  0  0  0
  6 14  1  0  0  0  0
  7 10  1  0  0  0  0
  8 10  1  0  0  0  0
  9 14  1  0  0  0  0
 10 12  1  0  0  0  0
  1 15  1  0  0  0  0
  2 16  1  0  0  0  0
  3 17  1  0  0  0  0
  7 18  1  0  0  0  0
  7 19  1  0  0  0  0
  7 20  1  0  0  0  0
  8 21  1  0  0  0  0
  8 22  1  0  0  0  0
  8 23  1  0  0  0  0
  9 24  1  0  0  0  0
  9 25  1  0  0  0  0
  9 26  1  0  0  0  0
 10 27  1  0  0  0  0
 12 28  1  0  0  0  0
M  END
> <id>
EN300-4201159

> <smiles>
COC(=O)C=1C=CC=NC1NC(C)C

> <MDLNUMBER>
MFCD16153307

> <IUPAC Name>
methyl 2-[(propan-2-yl)amino]pyridine-3-carboxylate

> <CAS>
1249355-76-7

> <URL>
https://www.enaminestore.com/catalog/EN300-4201159

> <ROCS_ShapeQuery>
_x1140_x0812_0A_x1140_0A_x1097_0A_x0365_0A_x1097_0A_x0310_0A

> <ROCS_TanimotoCombo>
0.671 

> <ROCS_ShapeTanimoto>
0.228 

> <ROCS_ColorTanimoto>
0.442 

> <ROCS_RefTversky>
0.206 

> <ROCS_RefColorTversky>
0.508 

> <ROCS_RefTverskyCombo>
0.714 

> <ROCS_FitTversky>
1.891 

> <ROCS_FitColorTversky>
0.774 

> <ROCS_FitTverskyCombo>
2.665 

> <ROCS_ColorScore>
-3.986

> <ROCS_Overlap>
2114.220

> <ROCS_Rank>
5                   

$$$$
untitled-dbase-41543_1
  -OEChem-02092423213D

 21 21  0     0  0  0  0  0  0999 V2000
    8.7593   12.5024   24.6091 C   0  0  0  0  0  0  0  0  0  0  0  0
    9.5732   11.6234   23.9033 C   0  0  0  0  0  0  0  0  0  0  0  0
    7.6329   12.0217   25.2675 C   0  0  0  0  0  0  0  0  0  0  0  0
    9.2200   10.2837   23.8868 C   0  0  0  0  0  0  0  0  0  0  0  0
    7.3664   10.6642   25.1898 C   0  0  0  0  0  0  0  0  0  0  0  0
    9.8064    7.9997   23.0711 C   0  0  0  0  0  0  0  0  0  0  0  0
    5.7092   10.8041   27.0498 C   0  0  0  0  0  0  0  0  0  0  0  0
    8.1337    9.7796   24.5141 N   0  0  0  0  0  0  0  0  0  0  0  0
   10.0596    9.4006   23.1634 N   0  0  0  0  0  0  0  0  0  0  0  0
    6.2153   10.1894   25.8661 N   0  0  0  0  0  0  0  0  0  0  0  0
    9.0021   13.5601   24.6456 H   0  0  0  0  0  0  0  0  0  0  0  0
   10.4538   11.9901   23.3860 H   0  0  0  0  0  0  0  0  0  0  0  0
    6.9923   12.7007   25.8208 H   0  0  0  0  0  0  0  0  0  0  0  0
    8.8925    7.7541   23.6318 H   0  0  0  0  0  0  0  0  0  0  0  0
    9.6752    7.7198   22.0155 H   0  0  0  0  0  0  0  0  0  0  0  0
   10.6566    7.4449   23.4947 H   0  0  0  0  0  0  0  0  0  0  0  0
    6.3429   11.6625   27.3174 H   0  0  0  0  0  0  0  0  0  0  0  0
    4.6801   11.1494   26.8723 H   0  0  0  0  0  0  0  0  0  0  0  0
    5.7142   10.0742   27.8728 H   0  0  0  0  0  0  0  0  0  0  0  0
   10.8536    9.8068   22.7121 H   0  0  0  0  0  0  0  0  0  0  0  0
    5.7634    9.3891   25.4732 H   0  0  0  0  0  0  0  0  0  0  0  0
  1  2  2  0  0  0  0
  1  3  1  0  0  0  0
  2  4  1  0  0  0  0
  3  5  2  0  0  0  0
  4  8  2  0  0  0  0
  4  9  1  0  0  0  0
  5  8  1  0  0  0  0
  5 10  1  0  0  0  0
  6  9  1  0  0  0  0
  7 10  1  0  0  0  0
  1 11  1  0  0  0  0
  2 12  1  0  0  0  0
  3 13  1  0  0  0  0
  6 14  1  0  0  0  0
  6 15  1  0  0  0  0
  6 16  1  0  0  0  0
  7 17  1  0  0  0  0
  7 18  1  0  0  0  0
  7 19  1  0  0  0  0
  9 20  1  0  0  0  0
 10 21  1  0  0  0  0
M  END
> <id>
EN300-215415

> <smiles>
CNC=1C=CC=C(NC)N1

> <MDLNUMBER>
MFCD18384435

> <IUPAC Name>
N2,N6-dimethylpyridine-2,6-diamine

> <CAS>
40263-64-7

> <Purity>
95

> <URL>
https://www.enaminestore.com/catalog/EN300-215415

> <MP>
70-71

> <ROCS_ShapeQuery>
_x1140_x0812_0A_x1140_0A_x1097_0A_x0365_0A_x1097_0A_x0310_0A

> <ROCS_TanimotoCombo>
0.667 

> <ROCS_ShapeTanimoto>
0.194 

> <ROCS_ColorTanimoto>
0.473 

> <ROCS_RefTversky>
0.178 

> <ROCS_RefColorTversky>
0.494 

> <ROCS_RefTverskyCombo>
0.672 

> <ROCS_FitTversky>
1.924 

> <ROCS_FitColorTversky>
0.917 

> <ROCS_FitTverskyCombo>
2.841 

> <ROCS_ColorScore>
-3.852

> <ROCS_Overlap>
1821.251

> <ROCS_Rank>
6                   

$$$$
untitled-dbase-511495_5
  -OEChem-02092423213D

 28 28  0     0  0  0  0  0  0999 V2000
    8.0889   12.1437   23.9248 C   0  0  0  0  0  0  0  0  0  0  0  0
    8.5279   10.9148   23.4987 C   0  0  0  0  0  0  0  0  0  0  0  0
    7.2189   10.5919   25.1128 C   0  0  0  0  0  0  0  0  0  0  0  0
    9.4686   10.6448   22.3821 C   0  0  0  0  0  0  0  0  0  0  0  0
   11.5042    9.2516   23.8026 C   0  0  0  0  0  0  0  0  0  0  0  0
   11.0427    7.3546   22.2223 C   0  0  0  0  0  0  0  0  0  0  0  0
   11.8834    9.5476   21.3321 C   0  0  0  0  0  0  0  0  0  0  0  0
    6.2630    8.7036   26.4342 C   0  0  0  0  0  0  0  0  0  0  0  0
   11.0272    8.8711   22.4018 C   0  0  0  0  0  0  0  0  0  0  0  0
    7.9672    9.9243   24.2639 N   0  0  0  0  0  0  0  0  0  0  0  0
    6.4325   10.1186   26.1065 N   0  0  0  0  0  0  0  0  0  0  0  0
    9.9690   11.5256   21.7000 O   0  0  0  0  0  0  0  0  0  0  0  0
    7.2395   11.9456   24.9712 O   0  0  0  0  0  0  0  0  0  0  0  0
    9.6766    9.3088   22.2470 O   0  0  0  0  0  0  0  0  0  0  0  0
    8.2593   13.1685   23.6301 H   0  0  0  0  0  0  0  0  0  0  0  0
   11.4945   10.3394   23.9355 H   0  0  0  0  0  0  0  0  0  0  0  0
   10.8769    8.8009   24.5786 H   0  0  0  0  0  0  0  0  0  0  0  0
   12.5393    8.9297   23.9641 H   0  0  0  0  0  0  0  0  0  0  0  0
   10.7012    7.0770   21.2185 H   0  0  0  0  0  0  0  0  0  0  0  0
   10.3561    6.8711   22.9266 H   0  0  0  0  0  0  0  0  0  0  0  0
   12.0444    6.9400   22.3746 H   0  0  0  0  0  0  0  0  0  0  0  0
   11.5414    9.2748   20.3272 H   0  0  0  0  0  0  0  0  0  0  0  0
   11.8546   10.6383   21.4227 H   0  0  0  0  0  0  0  0  0  0  0  0
   12.9268    9.2197   21.4033 H   0  0  0  0  0  0  0  0  0  0  0  0
    6.8721    8.0930   25.7513 H   0  0  0  0  0  0  0  0  0  0  0  0
    6.5855    8.5263   27.4708 H   0  0  0  0  0  0  0  0  0  0  0  0
    5.2038    8.4269   26.3272 H   0  0  0  0  0  0  0  0  0  0  0  0
    5.8990   10.7750   26.6940 H   0  0  0  0  0  0  0  0  0  0  0  0
  1  2  2  0  0  0  0
  1 13  1  0  0  0  0
  2  4  1  0  0  0  0
  2 10  1  0  0  0  0
  3 10  2  0  0  0  0
  3 11  1  0  0  0  0
  3 13  1  0  0  0  0
  4 12  2  0  0  0  0
  4 14  1  0  0  0  0
  5  9  1  0  0  0  0
  6  9  1  0  0  0  0
  7  9  1  0  0  0  0
  8 11  1  0  0  0  0
  9 14  1  0  0  0  0
  1 15  1  0  0  0  0
  5 16  1  0  0  0  0
  5 17  1  0  0  0  0
  5 18  1  0  0  0  0
  6 19  1  0  0  0  0
  6 20  1  0  0  0  0
  6 21  1  0  0  0  0
  7 22  1  0  0  0  0
  7 23  1  0  0  0  0
  7 24  1  0  0  0  0
  8 25  1  0  0  0  0
  8 26  1  0  0  0  0
  8 27  1  0  0  0  0
 11 28  1  0  0  0  0
M  END
> <id>
EN300-6510739

> <smiles>
CNC1=NC(=CO1)C(=O)OC(C)(C)C

> <IUPAC Name>
tert-butyl 2-(methylamino)-1,3-oxazole-4-carboxylate

> <CAS>
2248417-94-7

> <URL>
https://www.enaminestore.com/catalog/EN300-6510739

> <ROCS_ShapeQuery>
_x1140_x0812_0A_x1140_0A_x1097_0A_x0365_0A_x1097_0A_x0310_0A

> <ROCS_TanimotoCombo>
0.666 

> <ROCS_ShapeTanimoto>
0.200 

> <ROCS_ColorTanimoto>
0.466 

> <ROCS_RefTversky>
0.185 

> <ROCS_RefColorTversky>
0.526 

> <ROCS_RefTverskyCombo>
0.711 

> <ROCS_FitTversky>
1.683 

> <ROCS_FitColorTversky>
0.802 

> <ROCS_FitTverskyCombo>
2.485 

> <ROCS_ColorScore>
-4.129

> <ROCS_Overlap>
1896.273

> <ROCS_Rank>
7                   

$$$$
untitled-dbase-98590_5
  -OEChem-02092423213D

 21 21  0     0  0  0  0  0  0999 V2000
    9.2188   12.0588   24.5076 C   0  0  0  0  0  0  0  0  0  0  0  0
    9.0456   10.8896   23.7970 C   0  0  0  0  0  0  0  0  0  0  0  0
    7.4252   10.6339   25.2527 C   0  0  0  0  0  0  0  0  0  0  0  0
    9.8802   10.4987   22.6457 C   0  0  0  0  0  0  0  0  0  0  0  0
   12.0761    9.4694   23.2678 C   0  0  0  0  0  0  0  0  0  0  0  0
   10.7844    8.5574   21.3205 C   0  0  0  0  0  0  0  0  0  0  0  0
   10.6832    9.1930   22.7090 C   0  0  0  0  0  0  0  0  0  0  0  0
    8.0179   10.0710   24.2231 N   0  0  0  0  0  0  0  0  0  0  0  0
    6.3702   10.0933   25.9184 N   0  0  0  0  0  0  0  0  0  0  0  0
    9.9598   11.2000   21.6333 O   0  0  0  0  0  0  0  0  0  0  0  0
    8.0518   12.1484   25.7612 S   0  0  0  0  0  0  0  0  0  0  0  0
    9.9465   12.8443   24.3579 H   0  0  0  0  0  0  0  0  0  0  0  0
   12.6154   10.1930   22.6462 H   0  0  0  0  0  0  0  0  0  0  0  0
   12.6682    8.5493   23.3102 H   0  0  0  0  0  0  0  0  0  0  0  0
   12.0268    9.8847   24.2793 H   0  0  0  0  0  0  0  0  0  0  0  0
   11.3009    9.2272   20.6248 H   0  0  0  0  0  0  0  0  0  0  0  0
    9.7957    8.3359   20.9036 H   0  0  0  0  0  0  0  0  0  0  0  0
   11.3443    7.6168   21.3645 H   0  0  0  0  0  0  0  0  0  0  0  0
   10.1595    8.4691   23.3416 H   0  0  0  0  0  0  0  0  0  0  0  0
    5.9368    9.2137   25.6175 H   0  0  0  0  0  0  0  0  0  0  0  0
    5.9077   10.5894   26.6880 H   0  0  0  0  0  0  0  0  0  0  0  0
  1  2  2  0  0  0  0
  1 11  1  0  0  0  0
  2  4  1  0  0  0  0
  2  8  1  0  0  0  0
  3  8  2  0  0  0  0
  3  9  1  0  0  0  0
  3 11  1  0  0  0  0
  4  7  1  0  0  0  0
  4 10  2  0  0  0  0
  5  7  1  0  0  0  0
  6  7  1  0  0  0  0
  1 12  1  0  0  0  0
  5 13  1  0  0  0  0
  5 14  1  0  0  0  0
  5 15  1  0  0  0  0
  6 16  1  0  0  0  0
  6 17  1  0  0  0  0
  6 18  1  0  0  0  0
  7 19  1  0  0  0  0
  9 20  1  0  0  0  0
  9 21  1  0  0  0  0
M  END
> <id>
EN300-796516

> <smiles>
CC(C)C(=O)C1=CSC(N)=N1

> <MDLNUMBER>
MFCD28130344

> <IUPAC Name>
1-(2-amino-1,3-thiazol-4-yl)-2-methylpropan-1-one

> <CAS>
876755-35-0

> <URL>
https://www.enaminestore.com/catalog/EN300-796516

> <ROCS_ShapeQuery>
_x1140_x0812_0A_x1140_0A_x1097_0A_x0365_0A_x1097_0A_x0310_0A

> <ROCS_TanimotoCombo>
0.662 

> <ROCS_ShapeTanimoto>
0.184 

> <ROCS_ColorTanimoto>
0.477 

> <ROCS_RefTversky>
0.171 

> <ROCS_RefColorTversky>
0.573 

> <ROCS_RefTverskyCombo>
0.743 

> <ROCS_FitTversky>
1.800 

> <ROCS_FitColorTversky>
0.741 

> <ROCS_FitTverskyCombo>
2.541 

> <ROCS_ColorScore>
-4.524

> <ROCS_Overlap>
1746.620

> <ROCS_Rank>
8                   

$$$$
untitled-dbase-394004_5
  -OEChem-02092423213D

 25 25  0     0  0  0  0  0  0999 V2000
    8.4465   12.5159   24.2031 C   0  0  0  0  0  0  0  0  0  0  0  0
    7.5473   12.0959   25.1769 C   0  0  0  0  0  0  0  0  0  0  0  0
    9.2247   11.5787   23.5328 C   0  0  0  0  0  0  0  0  0  0  0  0
    7.4647   10.7383   25.4412 C   0  0  0  0  0  0  0  0  0  0  0  0
    9.0672   10.2442   23.8708 C   0  0  0  0  0  0  0  0  0  0  0  0
   10.1625   12.0287   22.5135 C   0  0  0  0  0  0  0  0  0  0  0  0
    6.5104   10.2518   26.4802 C   0  0  0  0  0  0  0  0  0  0  0  0
   11.2833    9.2962   23.2258 C   0  0  0  0  0  0  0  0  0  0  0  0
   12.0704   13.4042   22.1233 C   0  0  0  0  0  0  0  0  0  0  0  0
    8.2042    9.7983   24.8110 N   0  0  0  0  0  0  0  0  0  0  0  0
    9.8575    9.2829   23.1917 N   0  0  0  0  0  0  0  0  0  0  0  0
   10.1257   11.6788   21.3275 O   0  0  0  0  0  0  0  0  0  0  0  0
   11.0904   12.8894   23.0312 O   0  0  0  0  0  0  0  0  0  0  0  0
    8.5318   13.5752   23.9755 H   0  0  0  0  0  0  0  0  0  0  0  0
    6.9337   12.8169   25.7062 H   0  0  0  0  0  0  0  0  0  0  0  0
    5.5352   10.0326   26.0291 H   0  0  0  0  0  0  0  0  0  0  0  0
    6.8823    9.3410   26.9664 H   0  0  0  0  0  0  0  0  0  0  0  0
    6.3687   10.9995   27.2710 H   0  0  0  0  0  0  0  0  0  0  0  0
   11.6280   10.1400   23.8416 H   0  0  0  0  0  0  0  0  0  0  0  0
   11.6484    8.3532   23.6588 H   0  0  0  0  0  0  0  0  0  0  0  0
   11.6734    9.4053   22.2031 H   0  0  0  0  0  0  0  0  0  0  0  0
   12.7473   14.0747   22.6584 H   0  0  0  0  0  0  0  0  0  0  0  0
   11.5712   13.9429   21.3139 H   0  0  0  0  0  0  0  0  0  0  0  0
   12.6410   12.5710   21.7062 H   0  0  0  0  0  0  0  0  0  0  0  0
    9.3649    8.5823   22.6769 H   0  0  0  0  0  0  0  0  0  0  0  0
  1  2  2  0  0  0  0
  1  3  1  0  0  0  0
  2  4  1  0  0  0  0
  3  5  2  0  0  0  0
  3  6  1  0  0  0  0
  4  7  1  0  0  0  0
  4 10  2  0  0  0  0
  5 10  1  0  0  0  0
  5 11  1  0  0  0  0
  6 12  2  0  0  0  0
  6 13  1  0  0  0  0
  8 11  1  0  0  0  0
  9 13  1  0  0  0  0
  1 14  1  0  0  0  0
  2 15  1  0  0  0  0
  7 16  1  0  0  0  0
  7 17  1  0  0  0  0
  7 18  1  0  0  0  0
  8 19  1  0  0  0  0
  8 20  1  0  0  0  0
  8 21  1  0  0  0  0
  9 22  1  0  0  0  0
  9 23  1  0  0  0  0
  9 24  1  0  0  0  0
 11 25  1  0  0  0  0
M  END
> <id>
EN300-6509679

> <smiles>
CNC=1N=C(C)C=CC1C(=O)OC

> <MDLNUMBER>
MFCD20542961

> <IUPAC Name>
methyl 6-methyl-2-(methylamino)pyridine-3-carboxylate

> <CAS>
76335-99-4

> <URL>
https://www.enaminestore.com/catalog/EN300-6509679

> <ROCS_ShapeQuery>
_x1140_x0812_0A_x1140_0A_x1097_0A_x0365_0A_x1097_0A_x0310_0A

> <ROCS_TanimotoCombo>
0.661 

> <ROCS_ShapeTanimoto>
0.245 

> <ROCS_ColorTanimoto>
0.416 

> <ROCS_RefTversky>
0.217 

> <ROCS_RefColorTversky>
0.452 

> <ROCS_RefTverskyCombo>
0.669 

> <ROCS_FitTversky>
2.063 

> <ROCS_FitColorTversky>
0.839 

> <ROCS_FitTverskyCombo>
2.902 

> <ROCS_ColorScore>
-3.524

> <ROCS_Overlap>
2228.498

> <ROCS_Rank>
9                   

$$$$
untitled-dbase-439924_0
  -OEChem-02092423213D

 30 31  0     0  0  0  0  0  0999 V2000
   12.1590   15.5318   22.5315 C   0  0  0  0  0  0  0  0  0  0  0  0
   11.7777   12.1959   20.9249 C   0  0  0  0  0  0  0  0  0  0  0  0
   12.2344   13.4859   21.1951 C   0  0  0  0  0  0  0  0  0  0  0  0
   10.7772   11.6303   21.7153 C   0  0  0  0  0  0  0  0  0  0  0  0
   10.6901   13.6447   23.0464 C   0  0  0  0  0  0  0  0  0  0  0  0
    8.2286   12.5580   24.2064 C   0  0  0  0  0  0  0  0  0  0  0  0
    9.1364   10.3980   23.7978 C   0  0  0  0  0  0  0  0  0  0  0  0
   11.6906   14.2102   22.2559 C   0  0  0  0  0  0  0  0  0  0  0  0
   10.2334   12.3547   22.7761 C   0  0  0  0  0  0  0  0  0  0  0  0
    9.1957   11.7674   23.5956 C   0  0  0  0  0  0  0  0  0  0  0  0
    7.2456   11.9633   24.9896 C   0  0  0  0  0  0  0  0  0  0  0  0
    7.2735   10.5851   25.1292 C   0  0  0  0  0  0  0  0  0  0  0  0
    6.2077    8.5640   26.1318 C   0  0  0  0  0  0  0  0  0  0  0  0
    6.2105   12.8138   25.6439 C   0  0  0  0  0  0  0  0  0  0  0  0
   12.5393   16.6051   22.7552 N   0  0  0  0  0  0  0  0  0  0  0  0
    8.1969    9.7842   24.5516 N   0  0  0  0  0  0  0  0  0  0  0  0
    6.2718    9.9738   25.9242 N   0  0  0  0  0  0  0  0  0  0  0  0
    6.3540   14.1477   25.3857 F   0  0  0  0  0  0  0  0  0  0  0  0
    4.9338   12.5132   25.2620 F   0  0  0  0  0  0  0  0  0  0  0  0
    6.2213   12.7017   27.0043 F   0  0  0  0  0  0  0  0  0  0  0  0
   12.2012   11.6318   20.0990 H   0  0  0  0  0  0  0  0  0  0  0  0
   13.0149   13.9130   20.5700 H   0  0  0  0  0  0  0  0  0  0  0  0
   10.4320   10.6236   21.4917 H   0  0  0  0  0  0  0  0  0  0  0  0
   10.2662   14.2099   23.8750 H   0  0  0  0  0  0  0  0  0  0  0  0
    8.2372   13.6379   24.0754 H   0  0  0  0  0  0  0  0  0  0  0  0
    9.8618    9.7258   23.3484 H   0  0  0  0  0  0  0  0  0  0  0  0
    7.0326    8.0756   25.5925 H   0  0  0  0  0  0  0  0  0  0  0  0
    6.2936    8.3476   27.2069 H   0  0  0  0  0  0  0  0  0  0  0  0
    5.2470    8.1816   25.7565 H   0  0  0  0  0  0  0  0  0  0  0  0
    5.5978   10.5828   26.3409 H   0  0  0  0  0  0  0  0  0  0  0  0
  1  8  1  0  0  0  0
  1 15  3  0  0  0  0
  2  3  1  0  0  0  0
  2  4  2  0  0  0  0
  3  8  2  0  0  0  0
  4  9  1  0  0  0  0
  5  8  1  0  0  0  0
  5  9  2  0  0  0  0
  6 10  2  0  0  0  0
  6 11  1  0  0  0  0
  7 10  1  0  0  0  0
  7 16  2  0  0  0  0
  9 10  1  0  0  0  0
 11 12  2  0  0  0  0
 11 14  1  0  0  0  0
 12 16  1  0  0  0  0
 12 17  1  0  0  0  0
 13 17  1  0  0  0  0
 14 18  1  0  0  0  0
 14 19  1  0  0  0  0
 14 20  1  0  0  0  0
  2 21  1  0  0  0  0
  3 22  1  0  0  0  0
  4 23  1  0  0  0  0
  5 24  1  0  0  0  0
  6 25  1  0  0  0  0
  7 26  1  0  0  0  0
 13 27  1  0  0  0  0
 13 28  1  0  0  0  0
 13 29  1  0  0  0  0
 17 30  1  0  0  0  0
M  END
> <id>
EN300-359524

> <smiles>
CNC=1N=CC(=CC1C(F)(F)F)C=2C=CC=C(C#N)C2

> <MDLNUMBER>
MFCD30538119

> <IUPAC Name>
3-[6-(methylamino)-5-(trifluoromethyl)pyridin-3-yl]benzonitrile

> <CAS>
2138148-04-4

> <URL>
https://www.enaminestore.com/catalog/EN300-359524

> <ROCS_ShapeQuery>
_x1140_x0812_0A_x1140_0A_x1097_0A_x0365_0A_x1097_0A_x0310_0A

> <ROCS_TanimotoCombo>
0.659 

> <ROCS_ShapeTanimoto>
0.265 

> <ROCS_ColorTanimoto>
0.395 

> <ROCS_RefTversky>
0.238 

> <ROCS_RefColorTversky>
0.469 

> <ROCS_RefTverskyCombo>
0.706 

> <ROCS_FitTversky>
1.738 

> <ROCS_FitColorTversky>
0.714 

> <ROCS_FitTverskyCombo>
2.452 

> <ROCS_ColorScore>
-3.678

> <ROCS_Overlap>
2441.609

> <ROCS_Rank>
10                  

$$$$
untitled-dbase-132610_6
  -OEChem-02092423213D

 24 24  0     0  0  0  0  0  0999 V2000
    8.6791   12.5373   24.3532 C   0  0  0  0  0  0  0  0  0  0  0  0
    7.7203   12.0339   25.2253 C   0  0  0  0  0  0  0  0  0  0  0  0
    9.3012   11.6863   23.4464 C   0  0  0  0  0  0  0  0  0  0  0  0
    7.4216   10.6830   25.1512 C   0  0  0  0  0  0  0  0  0  0  0  0
    8.9318   10.3509   23.4521 C   0  0  0  0  0  0  0  0  0  0  0  0
   11.2560    8.2344   23.6733 C   0  0  0  0  0  0  0  0  0  0  0  0
   11.4989    9.0242   21.2924 C   0  0  0  0  0  0  0  0  0  0  0  0
   10.9334    9.3317   22.6706 C   0  0  0  0  0  0  0  0  0  0  0  0
    8.0048    9.8254   24.2840 N   0  0  0  0  0  0  0  0  0  0  0  0
   10.2726   12.1817   22.5587 N   0  0  0  0  0  0  0  0  0  0  0  0
    6.4810   10.1630   26.0013 O   0  0  0  0  0  0  0  0  0  0  0  0
    9.5199    9.4790   22.5753 O   0  0  0  0  0  0  0  0  0  0  0  0
    8.9325   13.5935   24.3872 H   0  0  0  0  0  0  0  0  0  0  0  0
    7.2259   12.6844   25.9383 H   0  0  0  0  0  0  0  0  0  0  0  0
   10.8631    7.2676   23.3443 H   0  0  0  0  0  0  0  0  0  0  0  0
   12.3397    8.1453   23.8052 H   0  0  0  0  0  0  0  0  0  0  0  0
   10.8377    8.4656   24.6592 H   0  0  0  0  0  0  0  0  0  0  0  0
   11.1118    8.0762   20.9065 H   0  0  0  0  0  0  0  0  0  0  0  0
   12.5919    8.9652   21.3334 H   0  0  0  0  0  0  0  0  0  0  0  0
   11.2535    9.8190   20.5794 H   0  0  0  0  0  0  0  0  0  0  0  0
   11.3390   10.2839   23.0278 H   0  0  0  0  0  0  0  0  0  0  0  0
   10.4792   13.1622   22.5524 H   0  0  0  0  0  0  0  0  0  0  0  0
   10.6778   11.5663   21.8795 H   0  0  0  0  0  0  0  0  0  0  0  0
    6.1344   10.8622   26.5729 H   0  0  0  0  0  0  0  0  0  0  0  0
  1  2  2  0  0  0  0
  1  3  1  0  0  0  0
  2  4  1  0  0  0  0
  3  5  2  0  0  0  0
  3 10  1  0  0  0  0
  4  9  2  0  0  0  0
  4 11  1  0  0  0  0
  5  9  1  0  0  0  0
  5 12  1  0  0  0  0
  6  8  1  0  0  0  0
  7  8  1  0  0  0  0
  8 12  1  0  0  0  0
  1 13  1  0  0  0  0
  2 14  1  0  0  0  0
  6 15  1  0  0  0  0
  6 16  1  0  0  0  0
  6 17  1  0  0  0  0
  7 18  1  0  0  0  0
  7 19  1  0  0  0  0
  7 20  1  0  0  0  0
  8 21  1  0  0  0  0
 10 22  1  0  0  0  0
 10 23  1  0  0  0  0
 11 24  1  0  0  0  0
M  END
> <id>
EN300-1294793

> <smiles>
CC(C)OC=1N=C(O)C=CC1N

> <MDLNUMBER>
MFCD11622486

> <IUPAC Name>
5-amino-6-(propan-2-yloxy)pyridin-2-ol

> <CAS>
1094858-74-8

> <URL>
https://www.enaminestore.com/catalog/EN300-1294793

> <ROCS_ShapeQuery>
_x1140_x0812_0A_x1140_0A_x1097_0A_x0365_0A_x1097_0A_x0310_0A

> <ROCS_TanimotoCombo>
0.659 

> <ROCS_ShapeTanimoto>
0.221 

> <ROCS_ColorTanimoto>
0.438 

> <ROCS_RefTversky>
0.199 

> <ROCS_RefColorTversky>
0.610 

> <ROCS_RefTverskyCombo>
0.809 

> <ROCS_FitTversky>
1.975 

> <ROCS_FitColorTversky>
0.608 

> <ROCS_FitTverskyCombo>
2.583 

> <ROCS_ColorScore>
-4.879

> <ROCS_Overlap>
2042.203

> <ROCS_Rank>
11                  

$$$$
untitled-dbase-279569_5
  -OEChem-02092423213D

 28 28  0     0  0  0  0  0  0999 V2000
    8.4427   12.5147   24.2021 C   0  0  0  0  0  0  0  0  0  0  0  0
    7.5441   12.0932   25.1758 C   0  0  0  0  0  0  0  0  0  0  0  0
    9.2231   11.5789   23.5324 C   0  0  0  0  0  0  0  0  0  0  0  0
    7.4645   10.7355   25.4407 C   0  0  0  0  0  0  0  0  0  0  0  0
    9.0685   10.2442   23.8710 C   0  0  0  0  0  0  0  0  0  0  0  0
   10.1602   12.0305   22.5131 C   0  0  0  0  0  0  0  0  0  0  0  0
    6.5109   10.2475   26.4796 C   0  0  0  0  0  0  0  0  0  0  0  0
   13.2631   12.4842   22.1105 C   0  0  0  0  0  0  0  0  0  0  0  0
    9.7800    7.8871   23.4671 C   0  0  0  0  0  0  0  0  0  0  0  0
   12.0653   13.4099   22.1228 C   0  0  0  0  0  0  0  0  0  0  0  0
    8.2062    9.7968   24.8111 N   0  0  0  0  0  0  0  0  0  0  0  0
    9.8610    9.2843   23.1926 N   0  0  0  0  0  0  0  0  0  0  0  0
   10.1245   11.6799   21.3273 O   0  0  0  0  0  0  0  0  0  0  0  0
   11.0862   12.8934   23.0307 O   0  0  0  0  0  0  0  0  0  0  0  0
    8.5258   13.5741   23.9740 H   0  0  0  0  0  0  0  0  0  0  0  0
    6.9289   12.8131   25.7046 H   0  0  0  0  0  0  0  0  0  0  0  0
    5.5364   10.0259   26.0284 H   0  0  0  0  0  0  0  0  0  0  0  0
    6.8847    9.3377   26.9664 H   0  0  0  0  0  0  0  0  0  0  0  0
    6.3674   10.9952   27.2701 H   0  0  0  0  0  0  0  0  0  0  0  0
   13.7122   12.4140   23.1051 H   0  0  0  0  0  0  0  0  0  0  0  0
   12.9723   11.4810   21.7822 H   0  0  0  0  0  0  0  0  0  0  0  0
   14.0205   12.8427   21.4055 H   0  0  0  0  0  0  0  0  0  0  0  0
    9.0318    7.7102   24.2538 H   0  0  0  0  0  0  0  0  0  0  0  0
    9.4848    7.3505   22.5533 H   0  0  0  0  0  0  0  0  0  0  0  0
   10.7610    7.5225   23.8057 H   0  0  0  0  0  0  0  0  0  0  0  0
   11.6209   13.4757   21.1252 H   0  0  0  0  0  0  0  0  0  0  0  0
   12.3574   14.4116   22.4519 H   0  0  0  0  0  0  0  0  0  0  0  0
   10.4923    9.6337   22.5013 H   0  0  0  0  0  0  0  0  0  0  0  0
  1  2  2  0  0  0  0
  1  3  1  0  0  0  0
  2  4  1  0  0  0  0
  3  5  2  0  0  0  0
  3  6  1  0  0  0  0
  4  7  1  0  0  0  0
  4 11  2  0  0  0  0
  5 11  1  0  0  0  0
  5 12  1  0  0  0  0
  6 13  2  0  0  0  0
  6 14  1  0  0  0  0
  8 10  1  0  0  0  0
  9 12  1  0  0  0  0
 10 14  1  0  0  0  0
  1 15  1  0  0  0  0
  2 16  1  0  0  0  0
  7 17  1  0  0  0  0
  7 18  1  0  0  0  0
  7 19  1  0  0  0  0
  8 20  1  0  0  0  0
  8 21  1  0  0  0  0
  8 22  1  0  0  0  0
  9 23  1  0  0  0  0
  9 24  1  0  0  0  0
  9 25  1  0  0  0  0
 10 26  1  0  0  0  0
 10 27  1  0  0  0  0
 12 28  1  0  0  0  0
M  END
> <id>
EN300-6510878

> <smiles>
CCOC(=O)C=1C=CC(C)=NC1NC

> <IUPAC Name>
ethyl 6-methyl-2-(methylamino)pyridine-3-carboxylate

> <CAS>
1882650-38-5

> <URL>
https://www.enaminestore.com/catalog/EN300-6510878

> <ROCS_ShapeQuery>
_x1140_x0812_0A_x1140_0A_x1097_0A_x0365_0A_x1097_0A_x0310_0A

> <ROCS_TanimotoCombo>
0.657 

> <ROCS_ShapeTanimoto>
0.242 

> <ROCS_ColorTanimoto>
0.416 

> <ROCS_RefTversky>
0.216 

> <ROCS_RefColorTversky>
0.452 

> <ROCS_RefTverskyCombo>
0.668 

> <ROCS_FitTversky>
1.980 

> <ROCS_FitColorTversky>
0.839 

> <ROCS_FitTverskyCombo>
2.819 

> <ROCS_ColorScore>
-3.524

> <ROCS_Overlap>
2212.199

> <ROCS_Rank>
12                  

$$$$
untitled-dbase-424599_5
  -OEChem-02092423213D

 25 25  0     0  0  0  0  0  0999 V2000
    8.8980   12.5748   24.4514 C   0  0  0  0  0  0  0  0  0  0  0  0
    7.7409   10.7363   25.4197 C   0  0  0  0  0  0  0  0  0  0  0  0
    9.3480   11.7239   23.4480 C   0  0  0  0  0  0  0  0  0  0  0  0
    8.0788   12.0794   25.4598 C   0  0  0  0  0  0  0  0  0  0  0  0
    8.9534   10.3967   23.4980 C   0  0  0  0  0  0  0  0  0  0  0  0
   11.1571    7.7370   21.6717 C   0  0  0  0  0  0  0  0  0  0  0  0
   11.8381    9.7508   22.9925 C   0  0  0  0  0  0  0  0  0  0  0  0
    9.4089    9.4236   22.4380 C   0  0  0  0  0  0  0  0  0  0  0  0
   10.7348    8.7128   22.7730 C   0  0  0  0  0  0  0  0  0  0  0  0
    8.1586    9.8791   24.4614 N   0  0  0  0  0  0  0  0  0  0  0  0
   10.1772   12.2147   22.4235 N   0  0  0  0  0  0  0  0  0  0  0  0
    7.6323   12.8743   26.4384 F   0  0  0  0  0  0  0  0  0  0  0  0
    9.1799   13.6241   24.4594 H   0  0  0  0  0  0  0  0  0  0  0  0
    7.1049   10.3014   26.1836 H   0  0  0  0  0  0  0  0  0  0  0  0
   11.2863    8.2512   20.7132 H   0  0  0  0  0  0  0  0  0  0  0  0
   10.4149    6.9443   21.5359 H   0  0  0  0  0  0  0  0  0  0  0  0
   12.1068    7.2538   21.9256 H   0  0  0  0  0  0  0  0  0  0  0  0
   11.9949   10.3494   22.0888 H   0  0  0  0  0  0  0  0  0  0  0  0
   11.5851   10.4331   23.8113 H   0  0  0  0  0  0  0  0  0  0  0  0
   12.7878    9.2636   23.2376 H   0  0  0  0  0  0  0  0  0  0  0  0
    8.6230    8.6798   22.2516 H   0  0  0  0  0  0  0  0  0  0  0  0
    9.5142    9.9813   21.4976 H   0  0  0  0  0  0  0  0  0  0  0  0
   10.6209    8.1449   23.7052 H   0  0  0  0  0  0  0  0  0  0  0  0
   10.4015   13.1908   22.3975 H   0  0  0  0  0  0  0  0  0  0  0  0
   10.4559   11.6026   21.6809 H   0  0  0  0  0  0  0  0  0  0  0  0
  1  3  1  0  0  0  0
  1  4  2  0  0  0  0
  2  4  1  0  0  0  0
  2 10  2  0  0  0  0
  3  5  2  0  0  0  0
  3 11  1  0  0  0  0
  4 12  1  0  0  0  0
  5  8  1  0  0  0  0
  5 10  1  0  0  0  0
  6  9  1  0  0  0  0
  7  9  1  0  0  0  0
  8  9  1  0  0  0  0
  1 13  1  0  0  0  0
  2 14  1  0  0  0  0
  6 15  1  0  0  0  0
  6 16  1  0  0  0  0
  6 17  1  0  0  0  0
  7 18  1  0  0  0  0
  7 19  1  0  0  0  0
  7 20  1  0  0  0  0
  8 21  1  0  0  0  0
  8 22  1  0  0  0  0
  9 23  1  0  0  0  0
 11 24  1  0  0  0  0
 11 25  1  0  0  0  0
M  END
> <id>
EN300-1165738

> <smiles>
CC(C)CC=1N=CC(F)=CC1N

> <MDLNUMBER>
MFCD31591537

> <IUPAC Name>
5-fluoro-2-(2-methylpropyl)pyridin-3-amine

> <CAS>
2137861-97-1

> <URL>
https://www.enaminestore.com/catalog/EN300-1165738

> <ROCS_ShapeQuery>
_x1140_x0812_0A_x1140_0A_x1097_0A_x0365_0A_x1097_0A_x0310_0A

> <ROCS_TanimotoCombo>
0.657 

> <ROCS_ShapeTanimoto>
0.208 

> <ROCS_ColorTanimoto>
0.449 

> <ROCS_RefTversky>
0.190 

> <ROCS_RefColorTversky>
0.513 

> <ROCS_RefTverskyCombo>
0.703 

> <ROCS_FitTversky>
1.898 

> <ROCS_FitColorTversky>
0.782 

> <ROCS_FitTverskyCombo>
2.681 

> <ROCS_ColorScore>
-4.029

> <ROCS_Overlap>
1942.042

> <ROCS_Rank>
13                  

$$$$
untitled-dbase-344210_7
  -OEChem-02092423213D

 25 25  0     0  0  0  0  0  0999 V2000
    8.1828   12.0073   25.4785 C   0  0  0  0  0  0  0  0  0  0  0  0
    9.0396   12.3844   24.4503 C   0  0  0  0  0  0  0  0  0  0  0  0
    7.7351   10.6963   25.5016 C   0  0  0  0  0  0  0  0  0  0  0  0
    9.4171   11.4522   23.4903 C   0  0  0  0  0  0  0  0  0  0  0  0
    8.9143   10.1659   23.6025 C   0  0  0  0  0  0  0  0  0  0  0  0
   10.3253   11.8780   22.4136 C   0  0  0  0  0  0  0  0  0  0  0  0
   12.5131   12.7730   21.7162 C   0  0  0  0  0  0  0  0  0  0  0  0
   12.0855   12.4957   24.1326 C   0  0  0  0  0  0  0  0  0  0  0  0
   11.1348    8.8759   22.6443 C   0  0  0  0  0  0  0  0  0  0  0  0
    8.0800    9.7625   24.5868 N   0  0  0  0  0  0  0  0  0  0  0  0
   11.5901   12.3611   22.7644 N   0  0  0  0  0  0  0  0  0  0  0  0
    9.8997   11.7623   21.2649 O   0  0  0  0  0  0  0  0  0  0  0  0
    9.3446    8.8983   22.4151 S   0  0  0  0  0  0  0  0  0  0  0  0
    7.8749   12.7169   26.2375 H   0  0  0  0  0  0  0  0  0  0  0  0
    9.4054   13.4072   24.4097 H   0  0  0  0  0  0  0  0  0  0  0  0
    7.0646   10.3524   26.2822 H   0  0  0  0  0  0  0  0  0  0  0  0
   12.3656   13.8405   21.4957 H   0  0  0  0  0  0  0  0  0  0  0  0
   13.5472   12.6077   22.0526 H   0  0  0  0  0  0  0  0  0  0  0  0
   12.3239   12.1816   20.8081 H   0  0  0  0  0  0  0  0  0  0  0  0
   12.5900   11.5657   24.4336 H   0  0  0  0  0  0  0  0  0  0  0  0
   12.7979   13.3323   24.1838 H   0  0  0  0  0  0  0  0  0  0  0  0
   11.2415   12.6908   24.8105 H   0  0  0  0  0  0  0  0  0  0  0  0
   11.5856    8.1356   21.9789 H   0  0  0  0  0  0  0  0  0  0  0  0
   11.3733    8.6171   23.6789 H   0  0  0  0  0  0  0  0  0  0  0  0
   11.5504    9.8607   22.4173 H   0  0  0  0  0  0  0  0  0  0  0  0
  1  2  2  0  0  0  0
  1  3  1  0  0  0  0
  2  4  1  0  0  0  0
  3 10  2  0  0  0  0
  4  5  2  0  0  0  0
  4  6  1  0  0  0  0
  5 10  1  0  0  0  0
  5 13  1  0  0  0  0
  6 11  1  0  0  0  0
  6 12  2  0  0  0  0
  7 11  1  0  0  0  0
  8 11  1  0  0  0  0
  9 13  1  0  0  0  0
  1 14  1  0  0  0  0
  2 15  1  0  0  0  0
  3 16  1  0  0  0  0
  7 17  1  0  0  0  0
  7 18  1  0  0  0  0
  7 19  1  0  0  0  0
  8 20  1  0  0  0  0
  8 21  1  0  0  0  0
  8 22  1  0  0  0  0
  9 23  1  0  0  0  0
  9 24  1  0  0  0  0
  9 25  1  0  0  0  0
M  END
> <id>
EN300-8100685

> <smiles>
CSC=1N=CC=CC1C(=O)N(C)C

> <MDLNUMBER>
MFCD00177795

> <IUPAC Name>
N,N-dimethyl-2-(methylsulfanyl)pyridine-3-carboxamide

> <CAS>
150374-72-4

> <URL>
https://www.enaminestore.com/catalog/EN300-8100685

> <ROCS_ShapeQuery>
_x1140_x0812_0A_x1140_0A_x1097_0A_x0365_0A_x1097_0A_x0310_0A

> <ROCS_TanimotoCombo>
0.656 

> <ROCS_ShapeTanimoto>
0.215 

> <ROCS_ColorTanimoto>
0.441 

> <ROCS_RefTversky>
0.195 

> <ROCS_RefColorTversky>
0.471 

> <ROCS_RefTverskyCombo>
0.666 

> <ROCS_FitTversky>
1.891 

> <ROCS_FitColorTversky>
0.874 

> <ROCS_FitTverskyCombo>
2.765 

> <ROCS_ColorScore>
-3.672

> <ROCS_Overlap>
1998.092

> <ROCS_Rank>
14                  

$$$$
untitled-dbase-89649_2
  -OEChem-02092423213D

 22 22  0     0  0  0  0  0  0999 V2000
    8.0666   12.0943   25.2666 C   0  0  0  0  0  0  0  0  0  0  0  0
    7.7482   10.7491   25.3613 C   0  0  0  0  0  0  0  0  0  0  0  0
    8.9026   12.4939   24.2299 C   0  0  0  0  0  0  0  0  0  0  0  0
    9.3878   11.5494   23.3322 C   0  0  0  0  0  0  0  0  0  0  0  0
    9.0105   10.2286   23.5136 C   0  0  0  0  0  0  0  0  0  0  0  0
    9.2608   13.9386   24.1055 C   0  0  0  0  0  0  0  0  0  0  0  0
   11.0188    9.0925   22.5325 C   0  0  0  0  0  0  0  0  0  0  0  0
    9.4960    9.1661   22.5816 C   0  0  0  0  0  0  0  0  0  0  0  0
    8.2002    9.8026   24.5085 N   0  0  0  0  0  0  0  0  0  0  0  0
   10.2359   11.9262   22.2730 N   0  0  0  0  0  0  0  0  0  0  0  0
    7.6714   12.8056   25.9838 H   0  0  0  0  0  0  0  0  0  0  0  0
    7.0990   10.3869   26.1518 H   0  0  0  0  0  0  0  0  0  0  0  0
   10.1713   14.1545   24.6763 H   0  0  0  0  0  0  0  0  0  0  0  0
    9.4308   14.2158   23.0579 H   0  0  0  0  0  0  0  0  0  0  0  0
    8.4533   14.5805   24.4788 H   0  0  0  0  0  0  0  0  0  0  0  0
   11.4502   10.0551   22.2375 H   0  0  0  0  0  0  0  0  0  0  0  0
   11.3453    8.3388   21.8091 H   0  0  0  0  0  0  0  0  0  0  0  0
   11.4318    8.8250   23.5110 H   0  0  0  0  0  0  0  0  0  0  0  0
    9.0956    8.1851   22.8804 H   0  0  0  0  0  0  0  0  0  0  0  0
    9.1091    9.3439   21.5664 H   0  0  0  0  0  0  0  0  0  0  0  0
   10.4529   12.8943   22.1397 H   0  0  0  0  0  0  0  0  0  0  0  0
   10.5329   11.2342   21.6135 H   0  0  0  0  0  0  0  0  0  0  0  0
  1  2  1  0  0  0  0
  1  3  2  0  0  0  0
  2  9  2  0  0  0  0
  3  4  1  0  0  0  0
  3  6  1  0  0  0  0
  4  5  2  0  0  0  0
  4 10  1  0  0  0  0
  5  8  1  0  0  0  0
  5  9  1  0  0  0  0
  7  8  1  0  0  0  0
  1 11  1  0  0  0  0
  2 12  1  0  0  0  0
  6 13  1  0  0  0  0
  6 14  1  0  0  0  0
  6 15  1  0  0  0  0
  7 16  1  0  0  0  0
  7 17  1  0  0  0  0
  7 18  1  0  0  0  0
  8 19  1  0  0  0  0
  8 20  1  0  0  0  0
 10 21  1  0  0  0  0
 10 22  1  0  0  0  0
M  END
> <id>
EN300-651572

> <smiles>
CCC=1N=CC=C(C)C1N

> <MDLNUMBER>
MFCD30332233

> <IUPAC Name>
2-ethyl-4-methylpyridin-3-amine

> <CAS>
1849224-21-0

> <Purity>
95

> <URL>
https://www.enaminestore.com/catalog/EN300-651572

> <ROCS_ShapeQuery>
_x1140_x0812_0A_x1140_0A_x1097_0A_x0365_0A_x1097_0A_x0310_0A

> <ROCS_TanimotoCombo>
0.656 

> <ROCS_ShapeTanimoto>
0.198 

> <ROCS_ColorTanimoto>
0.458 

> <ROCS_RefTversky>
0.180 

> <ROCS_RefColorTversky>
0.520 

> <ROCS_RefTverskyCombo>
0.700 

> <ROCS_FitTversky>
1.957 

> <ROCS_FitColorTversky>
0.792 

> <ROCS_FitTverskyCombo>
2.749 

> <ROCS_ColorScore>
-4.081

> <ROCS_Overlap>
1848.499

> <ROCS_Rank>
15                  

$$$$
untitled-dbase-394320_4
  -OEChem-02092423213D

 28 28  0     0  0  0  0  0  0999 V2000
    8.2566   12.3644   23.8315 C   0  0  0  0  0  0  0  0  0  0  0  0
    8.5722   11.0656   23.4915 C   0  0  0  0  0  0  0  0  0  0  0  0
    7.2237   10.6486   25.1701 C   0  0  0  0  0  0  0  0  0  0  0  0
    9.4832   10.7024   22.3768 C   0  0  0  0  0  0  0  0  0  0  0  0
   11.7038    9.7621   23.3716 C   0  0  0  0  0  0  0  0  0  0  0  0
   10.8034    7.4394   23.0492 C   0  0  0  0  0  0  0  0  0  0  0  0
   11.5884    8.7632   21.0643 C   0  0  0  0  0  0  0  0  0  0  0  0
    6.4518    8.5131   26.2043 C   0  0  0  0  0  0  0  0  0  0  0  0
   10.9260    8.8342   22.4395 C   0  0  0  0  0  0  0  0  0  0  0  0
    7.9811   10.0804   24.2582 N   0  0  0  0  0  0  0  0  0  0  0  0
    6.4963    9.9667   26.0944 N   0  0  0  0  0  0  0  0  0  0  0  0
   10.0320   11.5284   21.6641 O   0  0  0  0  0  0  0  0  0  0  0  0
    9.6046    9.3523   22.2815 O   0  0  0  0  0  0  0  0  0  0  0  0
    7.1751   12.3640   25.1627 S   0  0  0  0  0  0  0  0  0  0  0  0
    8.5921   13.2868   23.3784 H   0  0  0  0  0  0  0  0  0  0  0  0
   11.7940   10.7643   22.9376 H   0  0  0  0  0  0  0  0  0  0  0  0
   11.2200    9.8491   24.3500 H   0  0  0  0  0  0  0  0  0  0  0  0
   12.7263    9.3974   23.5224 H   0  0  0  0  0  0  0  0  0  0  0  0
   10.2460    6.7704   22.3837 H   0  0  0  0  0  0  0  0  0  0  0  0
   10.2448    7.4731   23.9915 H   0  0  0  0  0  0  0  0  0  0  0  0
   11.7852    6.9959   23.2438 H   0  0  0  0  0  0  0  0  0  0  0  0
   11.0306    8.0978   20.3955 H   0  0  0  0  0  0  0  0  0  0  0  0
   11.6514    9.7506   20.5956 H   0  0  0  0  0  0  0  0  0  0  0  0
   12.6000    8.3485   21.1401 H   0  0  0  0  0  0  0  0  0  0  0  0
    7.0936    8.0666   25.4306 H   0  0  0  0  0  0  0  0  0  0  0  0
    6.8110    8.2095   27.1987 H   0  0  0  0  0  0  0  0  0  0  0  0
    5.4168    8.1667   26.0669 H   0  0  0  0  0  0  0  0  0  0  0  0
    5.9287   10.4861   26.7740 H   0  0  0  0  0  0  0  0  0  0  0  0
  1  2  2  0  0  0  0
  1 14  1  0  0  0  0
  2  4  1  0  0  0  0
  2 10  1  0  0  0  0
  3 10  2  0  0  0  0
  3 11  1  0  0  0  0
  3 14  1  0  0  0  0
  4 12  2  0  0  0  0
  4 13  1  0  0  0  0
  5  9  1  0  0  0  0
  6  9  1  0  0  0  0
  7  9  1  0  0  0  0
  8 11  1  0  0  0  0
  9 13  1  0  0  0  0
  1 15  1  0  0  0  0
  5 16  1  0  0  0  0
  5 17  1  0  0  0  0
  5 18  1  0  0  0  0
  6 19  1  0  0  0  0
  6 20  1  0  0  0  0
  6 21  1  0  0  0  0
  7 22  1  0  0  0  0
  7 23  1  0  0  0  0
  7 24  1  0  0  0  0
  8 25  1  0  0  0  0
  8 26  1  0  0  0  0
  8 27  1  0  0  0  0
 11 28  1  0  0  0  0
M  END
> <id>
EN300-6268650

> <smiles>
CNC1=NC(=CS1)C(=O)OC(C)(C)C

> <IUPAC Name>
tert-butyl 2-(methylamino)-1,3-thiazole-4-carboxylate

> <CAS>
1867028-77-0

> <URL>
https://www.enaminestore.com/catalog/EN300-6268650

> <ROCS_ShapeQuery>
_x1140_x0812_0A_x1140_0A_x1097_0A_x0365_0A_x1097_0A_x0310_0A

> <ROCS_TanimotoCombo>
0.655 

> <ROCS_ShapeTanimoto>
0.199 

> <ROCS_ColorTanimoto>
0.456 

> <ROCS_RefTversky>
0.184 

> <ROCS_RefColorTversky>
0.519 

> <ROCS_RefTverskyCombo>
0.703 

> <ROCS_FitTversky>
1.707 

> <ROCS_FitColorTversky>
0.791 

> <ROCS_FitTverskyCombo>
2.498 

> <ROCS_ColorScore>
-4.073

> <ROCS_Overlap>
1884.424

> <ROCS_Rank>
16                  

$$$$
untitled-dbase-316189_0
  -OEChem-02092423213D

 19 19  0     0  0  0  0  0  0999 V2000
    9.2763   11.6237   23.4379 C   0  0  0  0  0  0  0  0  0  0  0  0
    9.1323   10.2802   23.7183 C   0  0  0  0  0  0  0  0  0  0  0  0
    8.3650   12.4618   24.0473 C   0  0  0  0  0  0  0  0  0  0  0  0
    7.3488   10.7005   25.0635 C   0  0  0  0  0  0  0  0  0  0  0  0
    9.9692    7.9581   23.3535 C   0  0  0  0  0  0  0  0  0  0  0  0
    8.1763    9.7820   24.5296 N   0  0  0  0  0  0  0  0  0  0  0  0
    7.3846   12.0326   24.8689 N   0  0  0  0  0  0  0  0  0  0  0  0
   10.2839   12.1062   22.5882 N   0  0  0  0  0  0  0  0  0  0  0  0
    6.3356   10.2150   25.9186 N   0  0  0  0  0  0  0  0  0  0  0  0
   10.0357    9.3645   23.1238 N   0  0  0  0  0  0  0  0  0  0  0  0
    8.3786   14.1680   23.8248 Cl  0  0  0  0  0  0  0  0  0  0  0  0
    9.1348    7.7364   24.0352 H   0  0  0  0  0  0  0  0  0  0  0  0
    9.8097    7.4377   22.3976 H   0  0  0  0  0  0  0  0  0  0  0  0
   10.9121    7.6154   23.8047 H   0  0  0  0  0  0  0  0  0  0  0  0
   10.9546   11.4668   22.2034 H   0  0  0  0  0  0  0  0  0  0  0  0
   10.3818   13.0949   22.4490 H   0  0  0  0  0  0  0  0  0  0  0  0
    6.2438    9.2292   26.0530 H   0  0  0  0  0  0  0  0  0  0  0  0
    5.6711   10.8573   26.2985 H   0  0  0  0  0  0  0  0  0  0  0  0
   10.7368    9.7516   22.5257 H   0  0  0  0  0  0  0  0  0  0  0  0
  1  2  2  0  0  0  0
  1  3  1  0  0  0  0
  1  8  1  0  0  0  0
  2  6  1  0  0  0  0
  2 10  1  0  0  0  0
  3  7  2  0  0  0  0
  3 11  1  0  0  0  0
  4  6  2  0  0  0  0
  4  7  1  0  0  0  0
  4  9  1  0  0  0  0
  5 10  1  0  0  0  0
  5 12  1  0  0  0  0
  5 13  1  0  0  0  0
  5 14  1  0  0  0  0
  8 15  1  0  0  0  0
  8 16  1  0  0  0  0
  9 17  1  0  0  0  0
  9 18  1  0  0  0  0
 10 19  1  0  0  0  0
M  END
> <id>
EN300-1653399

> <smiles>
CNC=1N=C(N)N=C(Cl)C1N

> <MDLNUMBER>
MFCD14708233

> <IUPAC Name>
6-chloro-N4-methylpyrimidine-2,4,5-triamine

> <CAS>
330433-43-7

> <URL>
https://www.enaminestore.com/catalog/EN300-1653399

> <ROCS_ShapeQuery>
_x1140_x0812_0A_x1140_0A_x1097_0A_x0365_0A_x1097_0A_x0310_0A

> <ROCS_TanimotoCombo>
0.655 

> <ROCS_ShapeTanimoto>
0.219 

> <ROCS_ColorTanimoto>
0.437 

> <ROCS_RefTversky>
0.197 

> <ROCS_RefColorTversky>
0.609 

> <ROCS_RefTverskyCombo>
0.805 

> <ROCS_FitTversky>
2.034 

> <ROCS_FitColorTversky>
0.607 

> <ROCS_FitTverskyCombo>
2.641 

> <ROCS_ColorScore>
-4.869

> <ROCS_Overlap>
2016.227

> <ROCS_Rank>
17                  

$$$$
untitled-dbase-75264_7
  -OEChem-02092423213D

 28 28  0     0  0  0  0  0  0999 V2000
    8.7904   11.0056   23.6615 C   0  0  0  0  0  0  0  0  0  0  0  0
    8.9193   12.2139   24.3137 C   0  0  0  0  0  0  0  0  0  0  0  0
    7.3363   10.6697   25.2686 C   0  0  0  0  0  0  0  0  0  0  0  0
    9.5538   10.6289   22.4450 C   0  0  0  0  0  0  0  0  0  0  0  0
    9.7803   13.3757   24.0112 C   0  0  0  0  0  0  0  0  0  0  0  0
   11.9524    9.8832   23.1490 C   0  0  0  0  0  0  0  0  0  0  0  0
   11.1726    7.4963   23.0841 C   0  0  0  0  0  0  0  0  0  0  0  0
   11.5733    8.7399   20.9391 C   0  0  0  0  0  0  0  0  0  0  0  0
   11.1124    8.8560   22.3913 C   0  0  0  0  0  0  0  0  0  0  0  0
    7.8834   10.1186   24.2078 N   0  0  0  0  0  0  0  0  0  0  0  0
    6.3981   10.0674   26.0467 N   0  0  0  0  0  0  0  0  0  0  0  0
    9.9378   11.4405   21.6171 O   0  0  0  0  0  0  0  0  0  0  0  0
    9.7504    9.2850   22.4032 O   0  0  0  0  0  0  0  0  0  0  0  0
    7.8655   12.2529   25.6662 S   0  0  0  0  0  0  0  0  0  0  0  0
    9.2680   14.0844   23.3409 H   0  0  0  0  0  0  0  0  0  0  0  0
   10.0685   13.9243   24.9236 H   0  0  0  0  0  0  0  0  0  0  0  0
   10.7234   13.0746   23.5248 H   0  0  0  0  0  0  0  0  0  0  0  0
   11.9118   10.8605   22.6549 H   0  0  0  0  0  0  0  0  0  0  0  0
   11.6096   10.0014   24.1821 H   0  0  0  0  0  0  0  0  0  0  0  0
   13.0080    9.5890   23.1661 H   0  0  0  0  0  0  0  0  0  0  0  0
   10.5713    6.7562   22.5438 H   0  0  0  0  0  0  0  0  0  0  0  0
   10.7544    7.5548   24.0955 H   0  0  0  0  0  0  0  0  0  0  0  0
   12.1997    7.1239   23.1546 H   0  0  0  0  0  0  0  0  0  0  0  0
   10.9710    8.0031   20.3954 H   0  0  0  0  0  0  0  0  0  0  0  0
   11.5020    9.6987   20.4154 H   0  0  0  0  0  0  0  0  0  0  0  0
   12.6108    8.3906   20.8863 H   0  0  0  0  0  0  0  0  0  0  0  0
    6.0209    9.1417   25.8166 H   0  0  0  0  0  0  0  0  0  0  0  0
    5.9631   10.5527   26.8387 H   0  0  0  0  0  0  0  0  0  0  0  0
  1  2  2  0  0  0  0
  1  4  1  0  0  0  0
  1 10  1  0  0  0  0
  2  5  1  0  0  0  0
  2 14  1  0  0  0  0
  3 10  2  0  0  0  0
  3 11  1  0  0  0  0
  3 14  1  0  0  0  0
  4 12  2  0  0  0  0
  4 13  1  0  0  0  0
  6  9  1  0  0  0  0
  7  9  1  0  0  0  0
  8  9  1  0  0  0  0
  9 13  1  0  0  0  0
  5 15  1  0  0  0  0
  5 16  1  0  0  0  0
  5 17  1  0  0  0  0
  6 18  1  0  0  0  0
  6 19  1  0  0  0  0
  6 20  1  0  0  0  0
  7 21  1  0  0  0  0
  7 22  1  0  0  0  0
  7 23  1  0  0  0  0
  8 24  1  0  0  0  0
  8 25  1  0  0  0  0
  8 26  1  0  0  0  0
 11 27  1  0  0  0  0
 11 28  1  0  0  0  0
M  END
> <id>
EN300-360075

> <smiles>
CC=1SC(N)=NC1C(=O)OC(C)(C)C

> <MDLNUMBER>
MFCD30538406

> <IUPAC Name>
tert-butyl 2-amino-5-methyl-1,3-thiazole-4-carboxylate

> <CAS>
2092700-10-0

> <URL>
https://www.enaminestore.com/catalog/EN300-360075

> <ROCS_ShapeQuery>
_x1140_x0812_0A_x1140_0A_x1097_0A_x0365_0A_x1097_0A_x0310_0A

> <ROCS_TanimotoCombo>
0.655 

> <ROCS_ShapeTanimoto>
0.213 

> <ROCS_ColorTanimoto>
0.442 

> <ROCS_RefTversky>
0.194 

> <ROCS_RefColorTversky>
0.543 

> <ROCS_RefTverskyCombo>
0.738 

> <ROCS_FitTversky>
1.804 

> <ROCS_FitColorTversky>
0.703 

> <ROCS_FitTverskyCombo>
2.507 

> <ROCS_ColorScore>
-4.293

> <ROCS_Overlap>
1993.462

> <ROCS_Rank>
18                  

$$$$
untitled-dbase-426263_5
  -OEChem-02092423213D

 31 32  0     1  0  0  0  0  0999 V2000
   10.0228   10.6922   22.5489 C   0  0  0  0  0  0  0  0  0  0  0  0
    8.4474   11.7205   26.3733 C   0  0  0  0  0  0  0  0  0  0  0  0
    8.7114   12.4053   23.8863 C   0  0  0  0  0  0  0  0  0  0  0  0
    8.5193   10.0316   24.4095 C   0  0  0  0  0  0  0  0  0  0  0  0
    7.8369   12.2609   25.1014 C   0  0  1  0  0  0  0  0  0  0  0  0
    7.7159   10.7992   25.4227 C   0  0  2  0  0  0  0  0  0  0  0  0
   10.0905    8.2223   22.3176 C   0  0  0  0  0  0  0  0  0  0  0  0
   12.2041    9.5691   22.1240 C   0  0  0  0  0  0  0  0  0  0  0  0
   10.8446    9.4533   22.8008 C   0  0  0  0  0  0  0  0  0  0  0  0
    6.6718   13.1956   25.2057 C   0  0  0  0  0  0  0  0  0  0  0  0
    9.1438   11.0443   23.5609 N   0  0  0  0  0  0  0  0  0  0  0  0
    6.4517   10.1954   25.8636 N   0  0  0  0  0  0  0  0  0  0  0  0
   10.1508   11.3221   21.4975 O   0  0  0  0  0  0  0  0  0  0  0  0
    6.9978   14.3089   25.9005 F   0  0  0  0  0  0  0  0  0  0  0  0
    6.2457   13.5852   23.9830 F   0  0  0  0  0  0  0  0  0  0  0  0
    5.6289   12.6096   25.8360 F   0  0  0  0  0  0  0  0  0  0  0  0
    9.5271   11.6472   26.4400 H   0  0  0  0  0  0  0  0  0  0  0  0
    7.9759   11.9674   27.3181 H   0  0  0  0  0  0  0  0  0  0  0  0
    8.1618   12.8033   23.0270 H   0  0  0  0  0  0  0  0  0  0  0  0
    9.5845   13.0356   24.0811 H   0  0  0  0  0  0  0  0  0  0  0  0
    9.2962    9.4141   24.8726 H   0  0  0  0  0  0  0  0  0  0  0  0
    7.8950    9.3962   23.7714 H   0  0  0  0  0  0  0  0  0  0  0  0
    9.9124    8.2542   21.2368 H   0  0  0  0  0  0  0  0  0  0  0  0
    9.1187    8.1319   22.8156 H   0  0  0  0  0  0  0  0  0  0  0  0
   10.6628    7.3146   22.5375 H   0  0  0  0  0  0  0  0  0  0  0  0
   12.0996    9.6495   21.0362 H   0  0  0  0  0  0  0  0  0  0  0  0
   12.8395    8.7019   22.3373 H   0  0  0  0  0  0  0  0  0  0  0  0
   12.7282   10.4644   22.4752 H   0  0  0  0  0  0  0  0  0  0  0  0
   10.9978    9.3757   23.8807 H   0  0  0  0  0  0  0  0  0  0  0  0
    5.7427   10.4870   25.2373 H   0  0  0  0  0  0  0  0  0  0  0  0
    6.5637    9.2120   25.8430 H   0  0  0  0  0  0  0  0  0  0  0  0
  1  9  1  0  0  0  0
  1 11  1  0  0  0  0
  1 13  2  0  0  0  0
  2  5  1  0  0  0  0
  2  6  1  0  0  0  0
  3  5  1  0  0  0  0
  3 11  1  0  0  0  0
  4  6  1  0  0  0  0
  4 11  1  0  0  0  0
  5  6  1  0  0  0  0
  5 10  1  6  0  0  0
  6 12  1  6  0  0  0
  7  9  1  0  0  0  0
  8  9  1  0  0  0  0
 10 14  1  0  0  0  0
 10 15  1  0  0  0  0
 10 16  1  0  0  0  0
  2 17  1  0  0  0  0
  2 18  1  0  0  0  0
  3 19  1  0  0  0  0
  3 20  1  0  0  0  0
  4 21  1  0  0  0  0
  4 22  1  0  0  0  0
  7 23  1  0  0  0  0
  7 24  1  0  0  0  0
  7 25  1  0  0  0  0
  8 26  1  0  0  0  0
  8 27  1  0  0  0  0
  8 28  1  0  0  0  0
  9 29  1  0  0  0  0
 12 30  1  0  0  0  0
 12 31  1  0  0  0  0
M  END
> <id>
EN300-1154637

> <smiles>
CC(C)C(=O)N1C[C@@]2(N)C[C@]2(C1)C(F)(F)F |&1:7,10,r|

> <IUPAC Name>
rac-1-[(1R,5R)-1-amino-5-(trifluoromethyl)-3-azabicyclo[3.1.0]hexan-3-yl]-2-methylpropan-1-one

> <CAS>
2138043-87-3

> <URL>
https://www.enaminestore.com/catalog/EN300-1154637

> <ROCS_ShapeQuery>
_x1140_x0812_0A_x1140_0A_x1097_0A_x0365_0A_x1097_0A_x0310_0A

> <ROCS_TanimotoCombo>
0.655 

> <ROCS_ShapeTanimoto>
0.239 

> <ROCS_ColorTanimoto>
0.416 

> <ROCS_RefTversky>
0.215 

> <ROCS_RefColorTversky>
0.581 

> <ROCS_RefTverskyCombo>
0.797 

> <ROCS_FitTversky>
1.814 

> <ROCS_FitColorTversky>
0.594 

> <ROCS_FitTverskyCombo>
2.409 

> <ROCS_ColorScore>
-4.644

> <ROCS_Overlap>
2209.979

> <ROCS_Rank>
19                  

$$$$
untitled-dbase-396863_8
  -OEChem-02092423213D

 31 31  0     0  0  0  0  0  0999 V2000
    8.4719   12.8151   25.3325 C   0  0  0  0  0  0  0  0  0  0  0  0
    7.5451   11.9600   25.9184 C   0  0  0  0  0  0  0  0  0  0  0  0
    9.1478   12.4173   24.1844 C   0  0  0  0  0  0  0  0  0  0  0  0
    8.8632   11.1645   23.6655 C   0  0  0  0  0  0  0  0  0  0  0  0
    7.3322   10.7278   25.3218 C   0  0  0  0  0  0  0  0  0  0  0  0
    9.5415   10.6656   22.4426 C   0  0  0  0  0  0  0  0  0  0  0  0
   10.1413   13.3302   23.5528 C   0  0  0  0  0  0  0  0  0  0  0  0
   11.7522    9.3289   23.6379 C   0  0  0  0  0  0  0  0  0  0  0  0
   10.8840    7.2708   22.4892 C   0  0  0  0  0  0  0  0  0  0  0  0
   11.6334    9.2421   21.1253 C   0  0  0  0  0  0  0  0  0  0  0  0
   10.9810    8.7938   22.4323 C   0  0  0  0  0  0  0  0  0  0  0  0
    7.9696   10.3064   24.2066 N   0  0  0  0  0  0  0  0  0  0  0  0
    6.3846    9.8678   25.9306 N   0  0  0  0  0  0  0  0  0  0  0  0
    9.9354   11.3986   21.5488 O   0  0  0  0  0  0  0  0  0  0  0  0
    9.6508    9.3115   22.4774 O   0  0  0  0  0  0  0  0  0  0  0  0
    8.6603   13.7888   25.7771 H   0  0  0  0  0  0  0  0  0  0  0  0
    7.0132   12.2628   26.8142 H   0  0  0  0  0  0  0  0  0  0  0  0
   11.1414   13.1564   23.9700 H   0  0  0  0  0  0  0  0  0  0  0  0
   10.1884   13.1799   22.4658 H   0  0  0  0  0  0  0  0  0  0  0  0
    9.8763   14.3838   23.7151 H   0  0  0  0  0  0  0  0  0  0  0  0
   11.8241   10.4218   23.6007 H   0  0  0  0  0  0  0  0  0  0  0  0
   11.2749    9.0437   24.5811 H   0  0  0  0  0  0  0  0  0  0  0  0
   12.7812    8.9515   23.6427 H   0  0  0  0  0  0  0  0  0  0  0  0
   10.3314    6.8824   21.6261 H   0  0  0  0  0  0  0  0  0  0  0  0
   10.3324    6.9478   23.3796 H   0  0  0  0  0  0  0  0  0  0  0  0
   11.8738    6.8032   22.5061 H   0  0  0  0  0  0  0  0  0  0  0  0
   11.0804    8.8584   20.2604 H   0  0  0  0  0  0  0  0  0  0  0  0
   11.6781   10.3335   21.0505 H   0  0  0  0  0  0  0  0  0  0  0  0
   12.6518    8.8454   21.0420 H   0  0  0  0  0  0  0  0  0  0  0  0
    5.9481   10.1563   26.7789 H   0  0  0  0  0  0  0  0  0  0  0  0
    6.2467    8.9572   25.5493 H   0  0  0  0  0  0  0  0  0  0  0  0
  1  2  2  0  0  0  0
  1  3  1  0  0  0  0
  2  5  1  0  0  0  0
  3  4  2  0  0  0  0
  3  7  1  0  0  0  0
  4  6  1  0  0  0  0
  4 12  1  0  0  0  0
  5 12  2  0  0  0  0
  5 13  1  0  0  0  0
  6 14  2  0  0  0  0
  6 15  1  0  0  0  0
  8 11  1  0  0  0  0
  9 11  1  0  0  0  0
 10 11  1  0  0  0  0
 11 15  1  0  0  0  0
  1 16  1  0  0  0  0
  2 17  1  0  0  0  0
  7 18  1  0  0  0  0
  7 19  1  0  0  0  0
  7 20  1  0  0  0  0
  8 21  1  0  0  0  0
  8 22  1  0  0  0  0
  8 23  1  0  0  0  0
  9 24  1  0  0  0  0
  9 25  1  0  0  0  0
  9 26  1  0  0  0  0
 10 27  1  0  0  0  0
 10 28  1  0  0  0  0
 10 29  1  0  0  0  0
 13 30  1  0  0  0  0
 13 31  1  0  0  0  0
M  END
> <id>
EN300-6510229

> <smiles>
CC=1C=CC(N)=NC1C(=O)OC(C)(C)C

> <IUPAC Name>
tert-butyl 6-amino-3-methylpyridine-2-carboxylate

> <CAS>
2248316-92-7

> <URL>
https://www.enaminestore.com/catalog/EN300-6510229

> <ROCS_ShapeQuery>
_x1140_x0812_0A_x1140_0A_x1097_0A_x0365_0A_x1097_0A_x0310_0A

> <ROCS_TanimotoCombo>
0.655 

> <ROCS_ShapeTanimoto>
0.231 

> <ROCS_ColorTanimoto>
0.424 

> <ROCS_RefTversky>
0.209 

> <ROCS_RefColorTversky>
0.528 

> <ROCS_RefTverskyCombo>
0.736 

> <ROCS_FitTversky>
1.837 

> <ROCS_FitColorTversky>
0.683 

> <ROCS_FitTverskyCombo>
2.519 

> <ROCS_ColorScore>
-4.169

> <ROCS_Overlap>
2141.258

> <ROCS_Rank>
20                  

$$$$
untitled-dbase-291237_8
  -OEChem-02092423213D

 38 38  0     0  0  0  0  0  0999 V2000
    9.9668   11.2630   22.8271 C   0  0  0  0  0  0  0  0  0  0  0  0
    9.7168   11.8162   25.2483 C   0  0  0  0  0  0  0  0  0  0  0  0
    8.0103   12.6219   23.5286 C   0  0  0  0  0  0  0  0  0  0  0  0
    8.7201   10.7533   25.7198 C   0  0  0  0  0  0  0  0  0  0  0  0
    7.0391   11.5411   24.0110 C   0  0  0  0  0  0  0  0  0  0  0  0
    9.4747   12.2838   23.8123 C   0  0  0  0  0  0  0  0  0  0  0  0
    7.2518   11.1535   25.4861 C   0  0  0  0  0  0  0  0  0  0  0  0
   12.1004    9.6635   21.8341 C   0  0  0  0  0  0  0  0  0  0  0  0
   11.4349    8.0067   23.6009 C   0  0  0  0  0  0  0  0  0  0  0  0
    9.8132    8.6143   21.7818 C   0  0  0  0  0  0  0  0  0  0  0  0
    6.8267   12.2913   26.4305 C   0  0  0  0  0  0  0  0  0  0  0  0
   10.9465    9.1181   22.6743 C   0  0  0  0  0  0  0  0  0  0  0  0
    6.4047    9.9880   25.7819 N   0  0  0  0  0  0  0  0  0  0  0  0
    9.9333   11.4108   21.6129 O   0  0  0  0  0  0  0  0  0  0  0  0
   10.4430   10.1752   23.4971 O   0  0  0  0  0  0  0  0  0  0  0  0
    7.5980   13.3639   26.2177 F   0  0  0  0  0  0  0  0  0  0  0  0
    5.5483   12.6125   26.2005 F   0  0  0  0  0  0  0  0  0  0  0  0
    6.9617   11.8944   27.7014 F   0  0  0  0  0  0  0  0  0  0  0  0
    9.6591   12.6830   25.9178 H   0  0  0  0  0  0  0  0  0  0  0  0
   10.7340   11.4181   25.3515 H   0  0  0  0  0  0  0  0  0  0  0  0
    7.8604   12.7782   22.4531 H   0  0  0  0  0  0  0  0  0  0  0  0
    7.7627   13.5732   24.0145 H   0  0  0  0  0  0  0  0  0  0  0  0
    8.9391    9.8184   25.1857 H   0  0  0  0  0  0  0  0  0  0  0  0
    8.8971   10.5444   26.7829 H   0  0  0  0  0  0  0  0  0  0  0  0
    6.0108   11.8918   23.8521 H   0  0  0  0  0  0  0  0  0  0  0  0
    7.1578   10.6552   23.3729 H   0  0  0  0  0  0  0  0  0  0  0  0
   10.0777   13.1820   23.6283 H   0  0  0  0  0  0  0  0  0  0  0  0
   11.7539   10.4615   21.1676 H   0  0  0  0  0  0  0  0  0  0  0  0
   12.9047   10.0599   22.4623 H   0  0  0  0  0  0  0  0  0  0  0  0
   12.5181    8.8819   21.1892 H   0  0  0  0  0  0  0  0  0  0  0  0
   10.6103    7.6125   24.2057 H   0  0  0  0  0  0  0  0  0  0  0  0
   12.1813    8.3875   24.3074 H   0  0  0  0  0  0  0  0  0  0  0  0
   11.8797    7.1788   23.0393 H   0  0  0  0  0  0  0  0  0  0  0  0
    8.9854    8.2231   22.3843 H   0  0  0  0  0  0  0  0  0  0  0  0
    9.4251    9.4085   21.1358 H   0  0  0  0  0  0  0  0  0  0  0  0
   10.1538    7.7864   21.1496 H   0  0  0  0  0  0  0  0  0  0  0  0
    5.7892   10.2423   26.5134 H   0  0  0  0  0  0  0  0  0  0  0  0
    5.9072    9.7624   24.9571 H   0  0  0  0  0  0  0  0  0  0  0  0
  1  6  1  0  0  0  0
  1 14  2  0  0  0  0
  1 15  1  0  0  0  0
  2  4  1  0  0  0  0
  2  6  1  0  0  0  0
  3  5  1  0  0  0  0
  3  6  1  0  0  0  0
  4  7  1  0  0  0  0
  5  7  1  0  0  0  0
  7 11  1  0  0  0  0
  7 13  1  0  0  0  0
  8 12  1  0  0  0  0
  9 12  1  0  0  0  0
 10 12  1  0  0  0  0
 11 16  1  0  0  0  0
 11 17  1  0  0  0  0
 11 18  1  0  0  0  0
 12 15  1  0  0  0  0
  2 19  1  0  0  0  0
  2 20  1  0  0  0  0
  3 21  1  0  0  0  0
  3 22  1  0  0  0  0
  4 23  1  0  0  0  0
  4 24  1  0  0  0  0
  5 25  1  0  0  0  0
  5 26  1  0  0  0  0
  6 27  1  0  0  0  0
  8 28  1  0  0  0  0
  8 29  1  0  0  0  0
  8 30  1  0  0  0  0
  9 31  1  0  0  0  0
  9 32  1  0  0  0  0
  9 33  1  0  0  0  0
 10 34  1  0  0  0  0
 10 35  1  0  0  0  0
 10 36  1  0  0  0  0
 13 37  1  0  0  0  0
 13 38  1  0  0  0  0
M  END
> <id>
EN300-6510266

> <smiles>
CC(C)(C)OC(=O)C1CCC(N)(CC1)C(F)(F)F

> <IUPAC Name>
tert-butyl 4-amino-4-(trifluoromethyl)cyclohexane-1-carboxylate

> <CAS>
2248272-73-1

> <URL>
https://www.enaminestore.com/catalog/EN300-6510266

> <ROCS_ShapeQuery>
_x1140_x0812_0A_x1140_0A_x1097_0A_x0365_0A_x1097_0A_x0310_0A

> <ROCS_TanimotoCombo>
0.654 

> <ROCS_ShapeTanimoto>
0.245 

> <ROCS_ColorTanimoto>
0.409 

> <ROCS_RefTversky>
0.222 

> <ROCS_RefColorTversky>
0.481 

> <ROCS_RefTverskyCombo>
0.702 

> <ROCS_FitTversky>
1.772 

> <ROCS_FitColorTversky>
0.733 

> <ROCS_FitTverskyCombo>
2.504 

> <ROCS_ColorScore>
-3.774

> <ROCS_Overlap>
2274.478

> <ROCS_Rank>
21                  

$$$$
untitled-dbase-559649_6
  -OEChem-02092423213D

 28 28  0     0  0  0  0  0  0999 V2000
    7.3897   10.7057   25.1994 C   0  0  0  0  0  0  0  0  0  0  0  0
    9.1179   10.1357   23.8858 C   0  0  0  0  0  0  0  0  0  0  0  0
    8.8641   12.2660   24.5447 C   0  0  0  0  0  0  0  0  0  0  0  0
    4.2866   10.6294   27.3142 C   0  0  0  0  0  0  0  0  0  0  0  0
   11.2741    8.4241   21.3831 C   0  0  0  0  0  0  0  0  0  0  0  0
   12.2111    9.6259   23.3890 C   0  0  0  0  0  0  0  0  0  0  0  0
    5.4520   11.2891   26.6590 C   0  0  0  0  0  0  0  0  0  0  0  0
   11.0404    9.5094   22.4239 C   0  0  0  0  0  0  0  0  0  0  0  0
    8.0224    9.7204   24.5417 N   0  0  0  0  0  0  0  0  0  0  0  0
    7.7510   11.9982   25.2463 N   0  0  0  0  0  0  0  0  0  0  0  0
    9.5984   11.3887   23.8418 N   0  0  0  0  0  0  0  0  0  0  0  0
    6.2266   10.3465   25.9139 N   0  0  0  0  0  0  0  0  0  0  0  0
    9.8138    9.1884   23.1935 N   0  0  0  0  0  0  0  0  0  0  0  0
    9.3994   13.8883   24.5456 Cl  0  0  0  0  0  0  0  0  0  0  0  0
    4.6449    9.8455   27.9977 H   0  0  0  0  0  0  0  0  0  0  0  0
    3.7138   11.3772   27.8822 H   0  0  0  0  0  0  0  0  0  0  0  0
    3.6409   10.1789   26.5460 H   0  0  0  0  0  0  0  0  0  0  0  0
   11.4336    7.4525   21.8619 H   0  0  0  0  0  0  0  0  0  0  0  0
   10.4208    8.3329   20.7018 H   0  0  0  0  0  0  0  0  0  0  0  0
   12.1570    8.6518   20.7758 H   0  0  0  0  0  0  0  0  0  0  0  0
   12.3870    8.6744   23.9026 H   0  0  0  0  0  0  0  0  0  0  0  0
   12.0158   10.3900   24.1485 H   0  0  0  0  0  0  0  0  0  0  0  0
   13.1362    9.8933   22.8659 H   0  0  0  0  0  0  0  0  0  0  0  0
    5.0856   12.0711   25.9777 H   0  0  0  0  0  0  0  0  0  0  0  0
    6.0880   11.7450   27.4322 H   0  0  0  0  0  0  0  0  0  0  0  0
   10.8835   10.4709   21.9229 H   0  0  0  0  0  0  0  0  0  0  0  0
    5.9546    9.3826   25.8821 H   0  0  0  0  0  0  0  0  0  0  0  0
    9.5226    8.2361   23.1761 H   0  0  0  0  0  0  0  0  0  0  0  0
  1  9  2  0  0  0  0
  1 10  1  0  0  0  0
  1 12  1  0  0  0  0
  2  9  1  0  0  0  0
  2 11  2  0  0  0  0
  2 13  1  0  0  0  0
  3 10  2  0  0  0  0
  3 11  1  0  0  0  0
  3 14  1  0  0  0  0
  4  7  1  0  0  0  0
  5  8  1  0  0  0  0
  6  8  1  0  0  0  0
  7 12  1  0  0  0  0
  8 13  1  0  0  0  0
  4 15  1  0  0  0  0
  4 16  1  0  0  0  0
  4 17  1  0  0  0  0
  5 18  1  0  0  0  0
  5 19  1  0  0  0  0
  5 20  1  0  0  0  0
  6 21  1  0  0  0  0
  6 22  1  0  0  0  0
  6 23  1  0  0  0  0
  7 24  1  0  0  0  0
  7 25  1  0  0  0  0
  8 26  1  0  0  0  0
 12 27  1  0  0  0  0
 13 28  1  0  0  0  0
M  END
> <id>
EN300-4252673

> <smiles>
CCNC=1N=C(Cl)N=C(NC(C)C)N1

> <MDLNUMBER>
MFCD00041810

> <IUPAC Name>
6-chloro-N2-ethyl-N4-(propan-2-yl)-1,3,5-triazine-2,4-diamine

> <CAS>
1912-24-9

> <Purity>
95

> <URL>
https://www.enaminestore.com/catalog/EN300-4252673

> <MP>
177-178

> <ROCS_ShapeQuery>
_x1140_x0812_0A_x1140_0A_x1097_0A_x0365_0A_x1097_0A_x0310_0A

> <ROCS_TanimotoCombo>
0.653 

> <ROCS_ShapeTanimoto>
0.220 

> <ROCS_ColorTanimoto>
0.432 

> <ROCS_RefTversky>
0.200 

> <ROCS_RefColorTversky>
0.570 

> <ROCS_RefTverskyCombo>
0.770 

> <ROCS_FitTversky>
1.853 

> <ROCS_FitColorTversky>
0.641 

> <ROCS_FitTverskyCombo>
2.495 

> <ROCS_ColorScore>
-4.533

> <ROCS_Overlap>
2051.622

> <ROCS_Rank>
22                  

$$$$
untitled-dbase-476967_8
  -OEChem-02092423213D

 23 23  0     0  0  0  0  0  0999 V2000
    8.6965   12.6850   25.5270 C   0  0  0  0  0  0  0  0  0  0  0  0
    9.4166   12.2271   24.4292 C   0  0  0  0  0  0  0  0  0  0  0  0
    7.6277   11.9386   26.0107 C   0  0  0  0  0  0  0  0  0  0  0  0
    9.0309   11.0263   23.8556 C   0  0  0  0  0  0  0  0  0  0  0  0
    7.3220   10.7508   25.3661 C   0  0  0  0  0  0  0  0  0  0  0  0
    9.7496   10.4992   22.7084 C   0  0  0  0  0  0  0  0  0  0  0  0
    5.8558   10.0173   27.2471 C   0  0  0  0  0  0  0  0  0  0  0  0
   11.1196    8.5971   21.8160 C   0  0  0  0  0  0  0  0  0  0  0  0
    7.9985   10.2737   24.2973 N   0  0  0  0  0  0  0  0  0  0  0  0
    6.2302   10.0014   25.8706 N   0  0  0  0  0  0  0  0  0  0  0  0
   10.3518    9.2435   22.8559 N   0  0  0  0  0  0  0  0  0  0  0  0
    9.8332   11.1588   21.6562 O   0  0  0  0  0  0  0  0  0  0  0  0
    8.9668   13.6221   26.0043 H   0  0  0  0  0  0  0  0  0  0  0  0
   10.2529   12.8009   24.0439 H   0  0  0  0  0  0  0  0  0  0  0  0
    7.0607   12.2878   26.8673 H   0  0  0  0  0  0  0  0  0  0  0  0
    6.5330   10.6814   27.8042 H   0  0  0  0  0  0  0  0  0  0  0  0
    4.8230   10.3838   27.3418 H   0  0  0  0  0  0  0  0  0  0  0  0
    5.9224    8.9986   27.6568 H   0  0  0  0  0  0  0  0  0  0  0  0
   10.4668    7.9216   21.2436 H   0  0  0  0  0  0  0  0  0  0  0  0
   11.5391    9.3591   21.1427 H   0  0  0  0  0  0  0  0  0  0  0  0
   11.9376    8.0186   22.2701 H   0  0  0  0  0  0  0  0  0  0  0  0
    5.7232    9.4487   25.2099 H   0  0  0  0  0  0  0  0  0  0  0  0
   10.3072    8.7755   23.7552 H   0  0  0  0  0  0  0  0  0  0  0  0
  1  2  2  0  0  0  0
  1  3  1  0  0  0  0
  2  4  1  0  0  0  0
  3  5  2  0  0  0  0
  4  6  1  0  0  0  0
  4  9  2  0  0  0  0
  5  9  1  0  0  0  0
  5 10  1  0  0  0  0
  6 11  1  0  0  0  0
  6 12  2  0  0  0  0
  7 10  1  0  0  0  0
  8 11  1  0  0  0  0
  1 13  1  0  0  0  0
  2 14  1  0  0  0  0
  3 15  1  0  0  0  0
  7 16  1  0  0  0  0
  7 17  1  0  0  0  0
  7 18  1  0  0  0  0
  8 19  1  0  0  0  0
  8 20  1  0  0  0  0
  8 21  1  0  0  0  0
 10 22  1  0  0  0  0
 11 23  1  0  0  0  0
M  END
> <id>
EN300-1232759

> <smiles>
CNC(=O)C=1C=CC=C(NC)N1

> <MDLNUMBER>
MFCD16698079

> <IUPAC Name>
N-methyl-6-(methylamino)pyridine-2-carboxamide

> <CAS>
1250317-57-7

> <Purity>
95

> <URL>
https://www.enaminestore.com/catalog/EN300-1232759

> <MP>
69-70

> <ROCS_ShapeQuery>
_x1140_x0812_0A_x1140_0A_x1097_0A_x0365_0A_x1097_0A_x0310_0A

> <ROCS_TanimotoCombo>
0.653 

> <ROCS_ShapeTanimoto>
0.205 

> <ROCS_ColorTanimoto>
0.448 

> <ROCS_RefTversky>
0.187 

> <ROCS_RefColorTversky>
0.512 

> <ROCS_RefTverskyCombo>
0.699 

> <ROCS_FitTversky>
1.856 

> <ROCS_FitColorTversky>
0.781 

> <ROCS_FitTverskyCombo>
2.636 

> <ROCS_ColorScore>
-4.020

> <ROCS_Overlap>
1920.240

> <ROCS_Rank>
23                  

$$$$
untitled-dbase-566931_7
  -OEChem-02092423213D

 33 33  0     0  0  0  0  0  0999 V2000
   10.9864    8.8153   22.5931 C   0  0  0  0  0  0  0  0  0  0  0  0
   10.2190    9.5514   23.1508 C   0  0  0  0  0  0  0  0  0  0  0  0
    7.4739   11.9407   25.1560 C   0  0  0  0  0  0  0  0  0  0  0  0
    7.4859   10.5563   25.2106 C   0  0  0  0  0  0  0  0  0  0  0  0
    9.3060   10.4278   23.8146 C   0  0  0  0  0  0  0  0  0  0  0  0
    8.4419   12.5699   24.3812 C   0  0  0  0  0  0  0  0  0  0  0  0
    9.3791   11.8062   23.6944 C   0  0  0  0  0  0  0  0  0  0  0  0
   10.5896   12.2755   21.5437 C   0  0  0  0  0  0  0  0  0  0  0  0
    8.4499   14.0618   24.3070 C   0  0  0  0  0  0  0  0  0  0  0  0
    9.9341   14.5098   20.3384 C   0  0  0  0  0  0  0  0  0  0  0  0
   12.3372   15.2298   20.4645 C   0  0  0  0  0  0  0  0  0  0  0  0
   11.6439   13.4702   18.8118 C   0  0  0  0  0  0  0  0  0  0  0  0
   11.3886   14.0634   20.1966 C   0  0  0  0  0  0  0  0  0  0  0  0
    8.3802    9.7808   24.5575 N   0  0  0  0  0  0  0  0  0  0  0  0
   10.3700   12.4258   22.8992 N   0  0  0  0  0  0  0  0  0  0  0  0
    9.9678   11.5722   20.7568 O   0  0  0  0  0  0  0  0  0  0  0  0
   11.6534   13.0595   21.1772 O   0  0  0  0  0  0  0  0  0  0  0  0
   11.6672    8.1628   22.0982 H   0  0  0  0  0  0  0  0  0  0  0  0
    6.7287   12.5074   25.7038 H   0  0  0  0  0  0  0  0  0  0  0  0
    6.7524   10.0170   25.8006 H   0  0  0  0  0  0  0  0  0  0  0  0
    9.0793   14.4780   25.1020 H   0  0  0  0  0  0  0  0  0  0  0  0
    8.8336   14.4082   23.3396 H   0  0  0  0  0  0  0  0  0  0  0  0
    7.4369   14.4691   24.4133 H   0  0  0  0  0  0  0  0  0  0  0  0
    9.2500   13.6753   20.1469 H   0  0  0  0  0  0  0  0  0  0  0  0
    9.7291   14.9049   21.3387 H   0  0  0  0  0  0  0  0  0  0  0  0
    9.6896   15.2850   19.6032 H   0  0  0  0  0  0  0  0  0  0  0  0
   13.3819   14.9140   20.3639 H   0  0  0  0  0  0  0  0  0  0  0  0
   12.2234   15.5977   21.4906 H   0  0  0  0  0  0  0  0  0  0  0  0
   12.1587   16.0620   19.7760 H   0  0  0  0  0  0  0  0  0  0  0  0
   12.6871   13.1499   18.7099 H   0  0  0  0  0  0  0  0  0  0  0  0
   10.9973   12.6086   18.6166 H   0  0  0  0  0  0  0  0  0  0  0  0
   11.4724   14.2186   18.0297 H   0  0  0  0  0  0  0  0  0  0  0  0
   10.9989   13.0606   23.3851 H   0  0  0  0  0  0  0  0  0  0  0  0
  1  2  3  0  0  0  0
  2  5  1  0  0  0  0
  3  4  2  0  0  0  0
  3  6  1  0  0  0  0
  4 14  1  0  0  0  0
  5  7  1  0  0  0  0
  5 14  2  0  0  0  0
  6  7  2  0  0  0  0
  6  9  1  0  0  0  0
  7 15  1  0  0  0  0
  8 15  1  0  0  0  0
  8 16  2  0  0  0  0
  8 17  1  0  0  0  0
 10 13  1  0  0  0  0
 11 13  1  0  0  0  0
 12 13  1  0  0  0  0
 13 17  1  0  0  0  0
  1 18  1  0  0  0  0
  3 19  1  0  0  0  0
  4 20  1  0  0  0  0
  9 21  1  0  0  0  0
  9 22  1  0  0  0  0
  9 23  1  0  0  0  0
 10 24  1  0  0  0  0
 10 25  1  0  0  0  0
 10 26  1  0  0  0  0
 11 27  1  0  0  0  0
 11 28  1  0  0  0  0
 11 29  1  0  0  0  0
 12 30  1  0  0  0  0
 12 31  1  0  0  0  0
 12 32  1  0  0  0  0
 15 33  1  0  0  0  0
M  END
> <id>
EN300-37397010

> <smiles>
CC=1C=CN=C(C#C)C1NC(=O)OC(C)(C)C

> <IUPAC Name>
tert-butyl N-(2-ethynyl-4-methylpyridin-3-yl)carbamate

> <CAS>
2770487-65-3

> <URL>
https://www.enaminestore.com/catalog/EN300-37397010

> <ROCS_ShapeQuery>
_x1140_x0812_0A_x1140_0A_x1097_0A_x0365_0A_x1097_0A_x0310_0A

> <ROCS_TanimotoCombo>
0.652 

> <ROCS_ShapeTanimoto>
0.233 

> <ROCS_ColorTanimoto>
0.419 

> <ROCS_RefTversky>
0.212 

> <ROCS_RefColorTversky>
0.524 

> <ROCS_RefTverskyCombo>
0.736 

> <ROCS_FitTversky>
1.741 

> <ROCS_FitColorTversky>
0.678 

> <ROCS_FitTverskyCombo>
2.419 

> <ROCS_ColorScore>
-4.136

> <ROCS_Overlap>
2174.429

> <ROCS_Rank>
24                  

$$$$
untitled-dbase-495871_3
  -OEChem-02092423213D

 29 29  0     0  0  0  0  0  0999 V2000
    7.8096   12.8410   24.9605 C   0  0  0  0  0  0  0  0  0  0  0  0
    8.2330   10.5704   24.5741 C   0  0  0  0  0  0  0  0  0  0  0  0
    7.1234   13.9357   25.3064 C   0  0  0  0  0  0  0  0  0  0  0  0
    9.5148   10.8658   22.4140 C   0  0  0  0  0  0  0  0  0  0  0  0
    8.7313   12.7583   23.7960 C   0  0  0  0  0  0  0  0  0  0  0  0
    7.6655   11.5067   25.6082 C   0  0  0  0  0  0  0  0  0  0  0  0
   11.8077    9.8154   23.1254 C   0  0  0  0  0  0  0  0  0  0  0  0
   10.7441    7.5420   23.0280 C   0  0  0  0  0  0  0  0  0  0  0  0
   11.3104    8.7500   20.9001 C   0  0  0  0  0  0  0  0  0  0  0  0
   10.8553    8.9060   22.3504 C   0  0  0  0  0  0  0  0  0  0  0  0
    8.8394   11.3347   23.5521 N   0  0  0  0  0  0  0  0  0  0  0  0
    8.1653    9.3515   24.6640 O   0  0  0  0  0  0  0  0  0  0  0  0
   10.0191   11.5973   21.5641 O   0  0  0  0  0  0  0  0  0  0  0  0
    9.5519    9.4990   22.3579 O   0  0  0  0  0  0  0  0  0  0  0  0
    8.3655   11.4325   26.7696 F   0  0  0  0  0  0  0  0  0  0  0  0
    6.3753   11.2034   25.9019 F   0  0  0  0  0  0  0  0  0  0  0  0
    6.4688   13.9262   26.1684 H   0  0  0  0  0  0  0  0  0  0  0  0
    7.2125   14.8472   24.7295 H   0  0  0  0  0  0  0  0  0  0  0  0
    8.3477   13.2574   22.9005 H   0  0  0  0  0  0  0  0  0  0  0  0
    9.7289   13.1419   24.0339 H   0  0  0  0  0  0  0  0  0  0  0  0
   11.8903   10.7955   22.6422 H   0  0  0  0  0  0  0  0  0  0  0  0
   11.4735    9.9636   24.1575 H   0  0  0  0  0  0  0  0  0  0  0  0
   12.8196    9.3949   23.1463 H   0  0  0  0  0  0  0  0  0  0  0  0
   10.0617    6.8862   22.4753 H   0  0  0  0  0  0  0  0  0  0  0  0
   10.3280    7.6403   24.0372 H   0  0  0  0  0  0  0  0  0  0  0  0
   11.7177    7.0466   23.1012 H   0  0  0  0  0  0  0  0  0  0  0  0
   10.6274    8.0977   20.3439 H   0  0  0  0  0  0  0  0  0  0  0  0
   11.3604    9.7158   20.3869 H   0  0  0  0  0  0  0  0  0  0  0  0
   12.2982    8.2777   20.8503 H   0  0  0  0  0  0  0  0  0  0  0  0
  1  3  2  0  0  0  0
  1  5  1  0  0  0  0
  1  6  1  0  0  0  0
  2  6  1  0  0  0  0
  2 11  1  0  0  0  0
  2 12  2  0  0  0  0
  4 11  1  0  0  0  0
  4 13  2  0  0  0  0
  4 14  1  0  0  0  0
  5 11  1  0  0  0  0
  6 15  1  0  0  0  0
  6 16  1  0  0  0  0
  7 10  1  0  0  0  0
  8 10  1  0  0  0  0
  9 10  1  0  0  0  0
 10 14  1  0  0  0  0
  3 17  1  0  0  0  0
  3 18  1  0  0  0  0
  5 19  1  0  0  0  0
  5 20  1  0  0  0  0
  7 21  1  0  0  0  0
  7 22  1  0  0  0  0
  7 23  1  0  0  0  0
  8 24  1  0  0  0  0
  8 25  1  0  0  0  0
  8 26  1  0  0  0  0
  9 27  1  0  0  0  0
  9 28  1  0  0  0  0
  9 29  1  0  0  0  0
M  END
> <id>
EN300-22934047

> <smiles>
CC(C)(C)OC(=O)N1CC(=C)C(F)(F)C1=O

> <MDLNUMBER>
MFCD31744761

> <IUPAC Name>
tert-butyl 3,3-difluoro-4-methylidene-2-oxopyrrolidine-1-carboxylate

> <CAS>
1055306-64-3

> <Purity>
95

> <URL>
https://www.enaminestore.com/catalog/EN300-22934047

> <ROCS_ShapeQuery>
_x1140_x0812_0A_x1140_0A_x1097_0A_x0365_0A_x1097_0A_x0310_0A

> <ROCS_TanimotoCombo>
0.652 

> <ROCS_ShapeTanimoto>
0.239 

> <ROCS_ColorTanimoto>
0.413 

> <ROCS_RefTversky>
0.216 

> <ROCS_RefColorTversky>
0.450 

> <ROCS_RefTverskyCombo>
0.666 

> <ROCS_FitTversky>
1.815 

> <ROCS_FitColorTversky>
0.835 

> <ROCS_FitTverskyCombo>
2.650 

> <ROCS_ColorScore>
-3.508

> <ROCS_Overlap>
2213.836

> <ROCS_Rank>
25                  

$$$$
untitled-dbase-67799_2
  -OEChem-02092423213D

 26 27  0     0  0  0  0  0  0999 V2000
    6.9339   12.6226   27.3779 C   0  0  0  0  0  0  0  0  0  0  0  0
    6.5240   11.2974   27.4571 C   0  0  0  0  0  0  0  0  0  0  0  0
    7.7500   13.0276   26.3256 C   0  0  0  0  0  0  0  0  0  0  0  0
    6.9309   10.3807   26.4844 C   0  0  0  0  0  0  0  0  0  0  0  0
    8.1590   12.1054   25.3474 C   0  0  0  0  0  0  0  0  0  0  0  0
    8.9804   12.4860   24.2776 C   0  0  0  0  0  0  0  0  0  0  0  0
    7.7466   10.7584   25.4214 C   0  0  0  0  0  0  0  0  0  0  0  0
    9.3670   11.5516   23.3277 C   0  0  0  0  0  0  0  0  0  0  0  0
    8.9134   10.2575   23.4841 C   0  0  0  0  0  0  0  0  0  0  0  0
    9.4566   13.9016   24.1360 C   0  0  0  0  0  0  0  0  0  0  0  0
   11.1441    9.0089   22.4952 C   0  0  0  0  0  0  0  0  0  0  0  0
    8.1202    9.8493   24.5011 N   0  0  0  0  0  0  0  0  0  0  0  0
   10.1921   11.9285   22.2492 N   0  0  0  0  0  0  0  0  0  0  0  0
    9.3483    8.9695   22.3192 S   0  0  0  0  0  0  0  0  0  0  0  0
    6.6206   13.3371   28.1325 H   0  0  0  0  0  0  0  0  0  0  0  0
    5.8877   10.9730   28.2753 H   0  0  0  0  0  0  0  0  0  0  0  0
    8.0540   14.0708   26.2888 H   0  0  0  0  0  0  0  0  0  0  0  0
    6.5971    9.3481   26.5700 H   0  0  0  0  0  0  0  0  0  0  0  0
   10.4079   14.0294   24.6605 H   0  0  0  0  0  0  0  0  0  0  0  0
    9.5942   14.1628   23.0820 H   0  0  0  0  0  0  0  0  0  0  0  0
    8.7250   14.6021   24.5514 H   0  0  0  0  0  0  0  0  0  0  0  0
   11.5986    8.2641   21.8373 H   0  0  0  0  0  0  0  0  0  0  0  0
   11.4206    8.7873   23.5290 H   0  0  0  0  0  0  0  0  0  0  0  0
   11.5215    9.9991   22.2286 H   0  0  0  0  0  0  0  0  0  0  0  0
   10.4582   12.8878   22.1491 H   0  0  0  0  0  0  0  0  0  0  0  0
   10.4213   11.2514   21.5493 H   0  0  0  0  0  0  0  0  0  0  0  0
  1  2  1  0  0  0  0
  1  3  2  0  0  0  0
  2  4  2  0  0  0  0
  3  5  1  0  0  0  0
  4  7  1  0  0  0  0
  5  6  2  0  0  0  0
  5  7  1  0  0  0  0
  6  8  1  0  0  0  0
  6 10  1  0  0  0  0
  7 12  2  0  0  0  0
  8  9  2  0  0  0  0
  8 13  1  0  0  0  0
  9 12  1  0  0  0  0
  9 14  1  0  0  0  0
 11 14  1  0  0  0  0
  1 15  1  0  0  0  0
  2 16  1  0  0  0  0
  3 17  1  0  0  0  0
  4 18  1  0  0  0  0
 10 19  1  0  0  0  0
 10 20  1  0  0  0  0
 10 21  1  0  0  0  0
 11 22  1  0  0  0  0
 11 23  1  0  0  0  0
 11 24  1  0  0  0  0
 13 25  1  0  0  0  0
 13 26  1  0  0  0  0
M  END
> <id>
EN300-306892

> <smiles>
CSC=1N=C2C=CC=CC2=C(C)C1N

> <MDLNUMBER>
MFCD24628440

> <IUPAC Name>
4-methyl-2-(methylsulfanyl)quinolin-3-amine

> <CAS>
59163-18-7

> <Purity>
95

> <URL>
https://www.enaminestore.com/catalog/EN300-306892

> <ROCS_ShapeQuery>
_x1140_x0812_0A_x1140_0A_x1097_0A_x0365_0A_x1097_0A_x0310_0A

> <ROCS_TanimotoCombo>
0.651 

> <ROCS_ShapeTanimoto>
0.234 

> <ROCS_ColorTanimoto>
0.417 

> <ROCS_RefTversky>
0.210 

> <ROCS_RefColorTversky>
0.522 

> <ROCS_RefTverskyCombo>
0.732 

> <ROCS_FitTversky>
1.917 

> <ROCS_FitColorTversky>
0.675 

> <ROCS_FitTverskyCombo>
2.593 

> <ROCS_ColorScore>
-4.123

> <ROCS_Overlap>
2155.378

> <ROCS_Rank>
26                  

$$$$
untitled-dbase-139615_8
  -OEChem-02092423213D

 31 31  0     0  0  0  0  0  0999 V2000
    8.7479   11.0338   23.7400 C   0  0  0  0  0  0  0  0  0  0  0  0
    8.4731   12.3474   24.0579 C   0  0  0  0  0  0  0  0  0  0  0  0
    7.1724   10.6907   25.2266 C   0  0  0  0  0  0  0  0  0  0  0  0
    9.7695   10.6119   22.7486 C   0  0  0  0  0  0  0  0  0  0  0  0
   12.4551    9.8704   22.1654 C   0  0  0  0  0  0  0  0  0  0  0  0
   11.7379    7.5371   22.7576 C   0  0  0  0  0  0  0  0  0  0  0  0
   10.6709    8.7184   20.8149 C   0  0  0  0  0  0  0  0  0  0  0  0
    9.0674   13.5989   23.5450 C   0  0  0  0  0  0  0  0  0  0  0  0
   11.2866    8.8866   22.2032 C   0  0  0  0  0  0  0  0  0  0  0  0
   10.5700   13.6925   23.8001 C   0  0  0  0  0  0  0  0  0  0  0  0
    8.0033   10.0824   24.4094 N   0  0  0  0  0  0  0  0  0  0  0  0
    6.2912   10.0497   26.0398 N   0  0  0  0  0  0  0  0  0  0  0  0
   10.0785   11.2848   21.7775 O   0  0  0  0  0  0  0  0  0  0  0  0
   10.2875    9.4013   23.0843 O   0  0  0  0  0  0  0  0  0  0  0  0
    8.8932   13.7705   22.1893 F   0  0  0  0  0  0  0  0  0  0  0  0
    8.5102   14.7331   24.0936 F   0  0  0  0  0  0  0  0  0  0  0  0
   11.2366   12.6765   23.2071 F   0  0  0  0  0  0  0  0  0  0  0  0
   10.8433   13.6413   25.1214 F   0  0  0  0  0  0  0  0  0  0  0  0
   11.0747   14.8472   23.3151 F   0  0  0  0  0  0  0  0  0  0  0  0
    7.2324   12.4056   25.2406 S   0  0  0  0  0  0  0  0  0  0  0  0
   12.1352   10.8403   21.7680 H   0  0  0  0  0  0  0  0  0  0  0  0
   12.8833   10.0266   23.1609 H   0  0  0  0  0  0  0  0  0  0  0  0
   13.2482    9.5101   21.5002 H   0  0  0  0  0  0  0  0  0  0  0  0
   10.9026    6.8281   22.7865 H   0  0  0  0  0  0  0  0  0  0  0  0
   12.0928    7.6381   23.7896 H   0  0  0  0  0  0  0  0  0  0  0  0
   12.5418    7.1014   22.1556 H   0  0  0  0  0  0  0  0  0  0  0  0
    9.8327    8.0127   20.8417 H   0  0  0  0  0  0  0  0  0  0  0  0
   10.3078    9.6713   20.4165 H   0  0  0  0  0  0  0  0  0  0  0  0
   11.4022    8.3032   20.1120 H   0  0  0  0  0  0  0  0  0  0  0  0
    6.1909    9.0290   26.0271 H   0  0  0  0  0  0  0  0  0  0  0  0
    5.6277   10.5657   26.6277 H   0  0  0  0  0  0  0  0  0  0  0  0
  1  2  2  0  0  0  0
  1  4  1  0  0  0  0
  1 11  1  0  0  0  0
  2  8  1  0  0  0  0
  2 20  1  0  0  0  0
  3 11  2  0  0  0  0
  3 12  1  0  0  0  0
  3 20  1  0  0  0  0
  4 13  2  0  0  0  0
  4 14  1  0  0  0  0
  5  9  1  0  0  0  0
  6  9  1  0  0  0  0
  7  9  1  0  0  0  0
  8 10  1  0  0  0  0
  8 15  1  0  0  0  0
  8 16  1  0  0  0  0
  9 14  1  0  0  0  0
 10 17  1  0  0  0  0
 10 18  1  0  0  0  0
 10 19  1  0  0  0  0
  5 21  1  0  0  0  0
  5 22  1  0  0  0  0
  5 23  1  0  0  0  0
  6 24  1  0  0  0  0
  6 25  1  0  0  0  0
  6 26  1  0  0  0  0
  7 27  1  0  0  0  0
  7 28  1  0  0  0  0
  7 29  1  0  0  0  0
 12 30  1  0  0  0  0
 12 31  1  0  0  0  0
M  END
> <id>
EN300-1458447

> <smiles>
CC(C)(C)OC(=O)C=1N=C(N)SC1C(F)(F)C(F)(F)F

> <IUPAC Name>
tert-butyl 2-amino-5-(pentafluoroethyl)-1,3-thiazole-4-carboxylate

> <CAS>
2172465-17-5

> <URL>
https://www.enaminestore.com/catalog/EN300-1458447

> <ROCS_ShapeQuery>
_x1140_x0812_0A_x1140_0A_x1097_0A_x0365_0A_x1097_0A_x0310_0A

> <ROCS_TanimotoCombo>
0.650 

> <ROCS_ShapeTanimoto>
0.264 

> <ROCS_ColorTanimoto>
0.386 

> <ROCS_RefTversky>
0.237 

> <ROCS_RefColorTversky>
0.494 

> <ROCS_RefTverskyCombo>
0.731 

> <ROCS_FitTversky>
1.746 

> <ROCS_FitColorTversky>
0.639 

> <ROCS_FitTverskyCombo>
2.385 

> <ROCS_ColorScore>
-3.902

> <ROCS_Overlap>
2432.175

> <ROCS_Rank>
27                  

$$$$
untitled-dbase-135842_8
  -OEChem-02092423213D

 29 29  0     0  0  0  0  0  0999 V2000
    8.3462   12.0580   24.0445 C   0  0  0  0  0  0  0  0  0  0  0  0
    7.7853   10.9634   24.7294 C   0  0  0  0  0  0  0  0  0  0  0  0
    9.3760   11.5157   23.3153 C   0  0  0  0  0  0  0  0  0  0  0  0
   11.7282    9.4053   23.4814 C   0  0  0  0  0  0  0  0  0  0  0  0
   10.1445    9.0057   21.5479 C   0  0  0  0  0  0  0  0  0  0  0  0
   10.2774    9.1565   23.0645 C   0  0  0  0  0  0  0  0  0  0  0  0
    7.9239   13.4690   24.0952 C   0  0  0  0  0  0  0  0  0  0  0  0
    6.6434   10.9691   25.6609 C   0  0  0  0  0  0  0  0  0  0  0  0
    7.0083   10.4703   27.0587 C   0  0  0  0  0  0  0  0  0  0  0  0
    8.4072    9.8126   24.4593 N   0  0  0  0  0  0  0  0  0  0  0  0
    9.3694   10.1811   23.5965 N   0  0  0  0  0  0  0  0  0  0  0  0
   10.2760   12.0580   22.4681 N   0  0  0  0  0  0  0  0  0  0  0  0
    6.8520   13.7090   24.9191 F   0  0  0  0  0  0  0  0  0  0  0  0
    8.8942   14.3330   24.5397 F   0  0  0  0  0  0  0  0  0  0  0  0
    7.5451   13.9664   22.8741 F   0  0  0  0  0  0  0  0  0  0  0  0
    6.0805   12.2162   25.8327 F   0  0  0  0  0  0  0  0  0  0  0  0
    5.5860   10.1907   25.2392 F   0  0  0  0  0  0  0  0  0  0  0  0
    7.9688   11.2353   27.6248 F   0  0  0  0  0  0  0  0  0  0  0  0
    7.4713    9.2026   27.0159 F   0  0  0  0  0  0  0  0  0  0  0  0
    5.9350   10.4941   27.8777 F   0  0  0  0  0  0  0  0  0  0  0  0
   12.1156   10.3445   23.0725 H   0  0  0  0  0  0  0  0  0  0  0  0
   12.3746    8.5957   23.1258 H   0  0  0  0  0  0  0  0  0  0  0  0
   11.8181    9.4540   24.5723 H   0  0  0  0  0  0  0  0  0  0  0  0
   10.4379    9.9292   21.0366 H   0  0  0  0  0  0  0  0  0  0  0  0
    9.1080    8.7829   21.2731 H   0  0  0  0  0  0  0  0  0  0  0  0
   10.7728    8.1963   21.1610 H   0  0  0  0  0  0  0  0  0  0  0  0
    9.9702    8.2029   23.5132 H   0  0  0  0  0  0  0  0  0  0  0  0
   10.2577   13.0570   22.2143 H   0  0  0  0  0  0  0  0  0  0  0  0
   10.9661   11.4844   21.9605 H   0  0  0  0  0  0  0  0  0  0  0  0
  1  2  1  0  0  0  0
  1  3  2  0  0  0  0
  1  7  1  0  0  0  0
  2  8  1  0  0  0  0
  2 10  2  0  0  0  0
  3 11  1  0  0  0  0
  3 12  1  0  0  0  0
  4  6  1  0  0  0  0
  5  6  1  0  0  0  0
  6 11  1  0  0  0  0
  7 13  1  0  0  0  0
  7 14  1  0  0  0  0
  7 15  1  0  0  0  0
  8  9  1  0  0  0  0
  8 16  1  0  0  0  0
  8 17  1  0  0  0  0
  9 18  1  0  0  0  0
  9 19  1  0  0  0  0
  9 20  1  0  0  0  0
 10 11  1  0  0  0  0
  4 21  1  0  0  0  0
  4 22  1  0  0  0  0
  4 23  1  0  0  0  0
  5 24  1  0  0  0  0
  5 25  1  0  0  0  0
  5 26  1  0  0  0  0
  6 27  1  0  0  0  0
 12 28  1  0  0  0  0
 12 29  1  0  0  0  0
M  END
> <id>
EN300-1277692

> <smiles>
CC(C)N1N=C(C(=C1N)C(F)(F)F)C(F)(F)C(F)(F)F

> <IUPAC Name>
3-(pentafluoroethyl)-1-(propan-2-yl)-4-(trifluoromethyl)-1H-pyrazol-5-amine

> <CAS>
2172123-34-9

> <URL>
https://www.enaminestore.com/catalog/EN300-1277692

> <ROCS_ShapeQuery>
_x1140_x0812_0A_x1140_0A_x1097_0A_x0365_0A_x1097_0A_x0310_0A

> <ROCS_TanimotoCombo>
0.649 

> <ROCS_ShapeTanimoto>
0.284 

> <ROCS_ColorTanimoto>
0.365 

> <ROCS_RefTversky>
0.252 

> <ROCS_RefColorTversky>
0.443 

> <ROCS_RefTverskyCombo>
0.695 

> <ROCS_FitTversky>
1.817 

> <ROCS_FitColorTversky>
0.676 

> <ROCS_FitTverskyCombo>
2.493 

> <ROCS_ColorScore>
-3.479

> <ROCS_Overlap>
2584.890

> <ROCS_Rank>
28                  

$$$$
untitled-dbase-119641_3
  -OEChem-02092423213D

 33 34  0     0  0  0  0  0  0999 V2000
    6.8657   12.3855   27.5034 C   0  0  0  0  0  0  0  0  0  0  0  0
    7.6793   12.8988   26.4974 C   0  0  0  0  0  0  0  0  0  0  0  0
    6.4965   11.0466   27.4704 C   0  0  0  0  0  0  0  0  0  0  0  0
    8.9463   12.5622   24.4279 C   0  0  0  0  0  0  0  0  0  0  0  0
    8.1266   12.0716   25.4532 C   0  0  0  0  0  0  0  0  0  0  0  0
    7.7555   10.7112   25.4133 C   0  0  0  0  0  0  0  0  0  0  0  0
    9.3713   11.7198   23.4107 C   0  0  0  0  0  0  0  0  0  0  0  0
    6.9413   10.2243   26.4322 C   0  0  0  0  0  0  0  0  0  0  0  0
    8.9566   10.4042   23.4567 C   0  0  0  0  0  0  0  0  0  0  0  0
   11.7626    9.7809   21.6426 C   0  0  0  0  0  0  0  0  0  0  0  0
   11.3487    8.9207   23.9474 C   0  0  0  0  0  0  0  0  0  0  0  0
   10.9299    7.4507   21.9599 C   0  0  0  0  0  0  0  0  0  0  0  0
    9.3808    9.4484   22.3903 C   0  0  0  0  0  0  0  0  0  0  0  0
   10.8366    8.8894   22.4970 C   0  0  0  0  0  0  0  0  0  0  0  0
    8.1664    9.8913   24.4274 N   0  0  0  0  0  0  0  0  0  0  0  0
   10.1648   12.1910   22.4163 O   0  0  0  0  0  0  0  0  0  0  0  0
    6.5689    8.9352   26.4261 F   0  0  0  0  0  0  0  0  0  0  0  0
    6.5221   13.0277   28.3085 H   0  0  0  0  0  0  0  0  0  0  0  0
    7.9626   13.9485   26.5328 H   0  0  0  0  0  0  0  0  0  0  0  0
    5.8620   10.6374   28.2511 H   0  0  0  0  0  0  0  0  0  0  0  0
    9.2549   13.6057   24.4223 H   0  0  0  0  0  0  0  0  0  0  0  0
   11.4420    9.7949   20.5948 H   0  0  0  0  0  0  0  0  0  0  0  0
   11.7627   10.8159   22.0028 H   0  0  0  0  0  0  0  0  0  0  0  0
   12.7969    9.4197   21.6715 H   0  0  0  0  0  0  0  0  0  0  0  0
   10.7245    8.3012   24.6009 H   0  0  0  0  0  0  0  0  0  0  0  0
   12.3803    8.5617   24.0218 H   0  0  0  0  0  0  0  0  0  0  0  0
   11.3349    9.9414   24.3473 H   0  0  0  0  0  0  0  0  0  0  0  0
   10.2876    6.7737   22.5352 H   0  0  0  0  0  0  0  0  0  0  0  0
   10.6092    7.3852   20.9151 H   0  0  0  0  0  0  0  0  0  0  0  0
   11.9548    7.0693   22.0260 H   0  0  0  0  0  0  0  0  0  0  0  0
    9.2650    9.9255   21.3994 H   0  0  0  0  0  0  0  0  0  0  0  0
    8.6820    8.5918   22.3629 H   0  0  0  0  0  0  0  0  0  0  0  0
   10.3531   13.1354   22.5492 H   0  0  0  0  0  0  0  0  0  0  0  0
  1  2  2  0  0  0  0
  1  3  1  0  0  0  0
  2  5  1  0  0  0  0
  3  8  2  0  0  0  0
  4  5  2  0  0  0  0
  4  7  1  0  0  0  0
  5  6  1  0  0  0  0
  6  8  1  0  0  0  0
  6 15  2  0  0  0  0
  7  9  2  0  0  0  0
  7 16  1  0  0  0  0
  8 17  1  0  0  0  0
  9 13  1  0  0  0  0
  9 15  1  0  0  0  0
 10 14  1  0  0  0  0
 11 14  1  0  0  0  0
 12 14  1  0  0  0  0
 13 14  1  0  0  0  0
  1 18  1  0  0  0  0
  2 19  1  0  0  0  0
  3 20  1  0  0  0  0
  4 21  1  0  0  0  0
 10 22  1  0  0  0  0
 10 23  1  0  0  0  0
 10 24  1  0  0  0  0
 11 25  1  0  0  0  0
 11 26  1  0  0  0  0
 11 27  1  0  0  0  0
 12 28  1  0  0  0  0
 12 29  1  0  0  0  0
 12 30  1  0  0  0  0
 13 31  1  0  0  0  0
 13 32  1  0  0  0  0
 16 33  1  0  0  0  0
M  END
> <id>
EN300-801243

> <smiles>
CC(C)(C)CC=1N=C2C(F)=CC=CC2=CC1O

> <MDLNUMBER>
MFCD31601613

> <IUPAC Name>
2-(2,2-dimethylpropyl)-8-fluoroquinolin-3-ol

> <CAS>
2138232-93-4

> <URL>
https://www.enaminestore.com/catalog/EN300-801243

> <ROCS_ShapeQuery>
_x1140_x0812_0A_x1140_0A_x1097_0A_x0365_0A_x1097_0A_x0310_0A

> <ROCS_TanimotoCombo>
0.649 

> <ROCS_ShapeTanimoto>
0.243 

> <ROCS_ColorTanimoto>
0.406 

> <ROCS_RefTversky>
0.220 

> <ROCS_RefColorTversky>
0.512 

> <ROCS_RefTverskyCombo>
0.732 

> <ROCS_FitTversky>
1.786 

> <ROCS_FitColorTversky>
0.663 

> <ROCS_FitTverskyCombo>
2.448 

> <ROCS_ColorScore>
-4.046

> <ROCS_Overlap>
2252.302

> <ROCS_Rank>
29                  

$$$$
untitled-dbase-111689_3
  -OEChem-02092423213D

 36 37  0     0  0  0  0  0  0999 V2000
    6.7972   12.2257   27.5918 C   0  0  0  0  0  0  0  0  0  0  0  0
    7.6371   12.7730   26.6262 C   0  0  0  0  0  0  0  0  0  0  0  0
    6.4127   10.8944   27.4913 C   0  0  0  0  0  0  0  0  0  0  0  0
    8.9419   12.5129   24.5691 C   0  0  0  0  0  0  0  0  0  0  0  0
    8.0956   11.9876   25.5549 C   0  0  0  0  0  0  0  0  0  0  0  0
    7.7092   10.6352   25.4465 C   0  0  0  0  0  0  0  0  0  0  0  0
    9.3773   11.7115   23.5237 C   0  0  0  0  0  0  0  0  0  0  0  0
    6.8687   10.1138   26.4262 C   0  0  0  0  0  0  0  0  0  0  0  0
    8.9461   10.4006   23.5022 C   0  0  0  0  0  0  0  0  0  0  0  0
   11.5896    9.2549   21.2286 C   0  0  0  0  0  0  0  0  0  0  0  0
   11.5822    9.4934   23.7118 C   0  0  0  0  0  0  0  0  0  0  0  0
   10.7996    7.3618   22.6485 C   0  0  0  0  0  0  0  0  0  0  0  0
    9.3755    9.4804   22.4058 C   0  0  0  0  0  0  0  0  0  0  0  0
   10.8199    8.8946   22.5170 C   0  0  0  0  0  0  0  0  0  0  0  0
    8.1302    9.8550   24.4331 N   0  0  0  0  0  0  0  0  0  0  0  0
   10.8781   13.4382   22.6941 N   0  0  0  0  0  0  0  0  0  0  0  0
   10.2260   12.2352   22.5333 N   0  0  0  0  0  0  0  0  0  0  0  0
    6.4815    8.8310   26.3548 F   0  0  0  0  0  0  0  0  0  0  0  0
    6.4444   12.8358   28.4176 H   0  0  0  0  0  0  0  0  0  0  0  0
    7.9318   13.8164   26.7145 H   0  0  0  0  0  0  0  0  0  0  0  0
    5.7580   10.4588   28.2403 H   0  0  0  0  0  0  0  0  0  0  0  0
    9.2605   13.5528   24.6203 H   0  0  0  0  0  0  0  0  0  0  0  0
   11.0880    8.8510   20.3420 H   0  0  0  0  0  0  0  0  0  0  0  0
   11.6658   10.3406   21.1003 H   0  0  0  0  0  0  0  0  0  0  0  0
   12.6083    8.8513   21.2500 H   0  0  0  0  0  0  0  0  0  0  0  0
   11.0770    9.2667   24.6573 H   0  0  0  0  0  0  0  0  0  0  0  0
   12.6064    9.1113   23.7731 H   0  0  0  0  0  0  0  0  0  0  0  0
   11.6516   10.5842   23.6271 H   0  0  0  0  0  0  0  0  0  0  0  0
   10.2620    7.0517   23.5522 H   0  0  0  0  0  0  0  0  0  0  0  0
   10.2975    6.8876   21.7990 H   0  0  0  0  0  0  0  0  0  0  0  0
   11.8154    6.9567   22.7131 H   0  0  0  0  0  0  0  0  0  0  0  0
    9.2854    9.9987   21.4334 H   0  0  0  0  0  0  0  0  0  0  0  0
    8.6640    8.6375   22.3323 H   0  0  0  0  0  0  0  0  0  0  0  0
   10.8048   13.9631   21.8239 H   0  0  0  0  0  0  0  0  0  0  0  0
   11.8714   13.2531   22.8278 H   0  0  0  0  0  0  0  0  0  0  0  0
   10.5247   11.6227   21.7846 H   0  0  0  0  0  0  0  0  0  0  0  0
  1  2  2  0  0  0  0
  1  3  1  0  0  0  0
  2  5  1  0  0  0  0
  3  8  2  0  0  0  0
  4  5  2  0  0  0  0
  4  7  1  0  0  0  0
  5  6  1  0  0  0  0
  6  8  1  0  0  0  0
  6 15  2  0  0  0  0
  7  9  2  0  0  0  0
  7 17  1  0  0  0  0
  8 18  1  0  0  0  0
  9 13  1  0  0  0  0
  9 15  1  0  0  0  0
 10 14  1  0  0  0  0
 11 14  1  0  0  0  0
 12 14  1  0  0  0  0
 13 14  1  0  0  0  0
 16 17  1  0  0  0  0
  1 19  1  0  0  0  0
  2 20  1  0  0  0  0
  3 21  1  0  0  0  0
  4 22  1  0  0  0  0
 10 23  1  0  0  0  0
 10 24  1  0  0  0  0
 10 25  1  0  0  0  0
 11 26  1  0  0  0  0
 11 27  1  0  0  0  0
 11 28  1  0  0  0  0
 12 29  1  0  0  0  0
 12 30  1  0  0  0  0
 12 31  1  0  0  0  0
 13 32  1  0  0  0  0
 13 33  1  0  0  0  0
 16 34  1  0  0  0  0
 16 35  1  0  0  0  0
 17 36  1  0  0  0  0
M  END
> <id>
EN300-801783

> <smiles>
CC(C)(C)CC=1N=C2C(F)=CC=CC2=CC1NN

> <IUPAC Name>
2-(2,2-dimethylpropyl)-8-fluoro-3-hydrazinylquinoline

> <CAS>
2138007-82-4

> <URL>
https://www.enaminestore.com/catalog/EN300-801783

> <ROCS_ShapeQuery>
_x1140_x0812_0A_x1140_0A_x1097_0A_x0365_0A_x1097_0A_x0310_0A

> <ROCS_TanimotoCombo>
0.649 

> <ROCS_ShapeTanimoto>
0.256 

> <ROCS_ColorTanimoto>
0.392 

> <ROCS_RefTversky>
0.230 

> <ROCS_RefColorTversky>
0.509 

> <ROCS_RefTverskyCombo>
0.739 

> <ROCS_FitTversky>
1.814 

> <ROCS_FitColorTversky>
0.631 

> <ROCS_FitTverskyCombo>
2.445 

> <ROCS_ColorScore>
-4.031

> <ROCS_Overlap>
2358.990

> <ROCS_Rank>
30                  

$$$$
untitled-dbase-543503_3
  -OEChem-02092423213D

 36 37  0     0  0  0  0  0  0999 V2000
    6.8642   12.3861   27.5012 C   0  0  0  0  0  0  0  0  0  0  0  0
    7.6778   12.8991   26.4952 C   0  0  0  0  0  0  0  0  0  0  0  0
    6.4954   11.0469   27.4689 C   0  0  0  0  0  0  0  0  0  0  0  0
    8.9455   12.5618   24.4262 C   0  0  0  0  0  0  0  0  0  0  0  0
    8.1257   12.0715   25.4515 C   0  0  0  0  0  0  0  0  0  0  0  0
    6.9408   10.2243   26.4312 C   0  0  0  0  0  0  0  0  0  0  0  0
    7.7551   10.7109   25.4122 C   0  0  0  0  0  0  0  0  0  0  0  0
    9.3710   11.7190   23.4095 C   0  0  0  0  0  0  0  0  0  0  0  0
    8.9567   10.4033   23.4561 C   0  0  0  0  0  0  0  0  0  0  0  0
    6.5175    8.7880   26.4406 C   0  0  0  0  0  0  0  0  0  0  0  0
   11.7619    9.7808   21.6403 C   0  0  0  0  0  0  0  0  0  0  0  0
   11.3498    8.9208   23.9455 C   0  0  0  0  0  0  0  0  0  0  0  0
   10.9302    7.4503   21.9585 C   0  0  0  0  0  0  0  0  0  0  0  0
    9.3807    9.4475   22.3896 C   0  0  0  0  0  0  0  0  0  0  0  0
   10.8367    8.8891   22.4954 C   0  0  0  0  0  0  0  0  0  0  0  0
    8.1665    9.8906   24.4269 N   0  0  0  0  0  0  0  0  0  0  0  0
   10.1638   12.1901   22.4145 O   0  0  0  0  0  0  0  0  0  0  0  0
    6.5206   13.0279   28.3067 H   0  0  0  0  0  0  0  0  0  0  0  0
    7.9620   13.9483   26.5309 H   0  0  0  0  0  0  0  0  0  0  0  0
    5.8588   10.6488   28.2548 H   0  0  0  0  0  0  0  0  0  0  0  0
    9.2548   13.6051   24.4208 H   0  0  0  0  0  0  0  0  0  0  0  0
    5.5770    8.6697   25.8928 H   0  0  0  0  0  0  0  0  0  0  0  0
    7.2788    8.1515   25.9762 H   0  0  0  0  0  0  0  0  0  0  0  0
    6.3768    8.4271   27.4655 H   0  0  0  0  0  0  0  0  0  0  0  0
   11.4406    9.7945   20.5927 H   0  0  0  0  0  0  0  0  0  0  0  0
   11.7618   10.8159   22.0003 H   0  0  0  0  0  0  0  0  0  0  0  0
   12.7963    9.4200   21.6686 H   0  0  0  0  0  0  0  0  0  0  0  0
   10.7262    8.3012   24.5995 H   0  0  0  0  0  0  0  0  0  0  0  0
   12.3816    8.5622   24.0193 H   0  0  0  0  0  0  0  0  0  0  0  0
   11.3359    9.9416   24.3452 H   0  0  0  0  0  0  0  0  0  0  0  0
   10.2885    6.7732   22.5343 H   0  0  0  0  0  0  0  0  0  0  0  0
   10.6089    7.3846   20.9139 H   0  0  0  0  0  0  0  0  0  0  0  0
   11.9553    7.0694   22.0240 H   0  0  0  0  0  0  0  0  0  0  0  0
    9.2640    9.9245   21.3987 H   0  0  0  0  0  0  0  0  0  0  0  0
    8.6822    8.5906   22.3627 H   0  0  0  0  0  0  0  0  0  0  0  0
   10.3511   13.1347   22.5464 H   0  0  0  0  0  0  0  0  0  0  0  0
  1  2  1  0  0  0  0
  1  3  2  0  0  0  0
  2  5  2  0  0  0  0
  3  6  1  0  0  0  0
  4  5  1  0  0  0  0
  4  8  2  0  0  0  0
  5  7  1  0  0  0  0
  6  7  2  0  0  0  0
  6 10  1  0  0  0  0
  7 16  1  0  0  0  0
  8  9  1  0  0  0  0
  8 17  1  0  0  0  0
  9 14  1  0  0  0  0
  9 16  2  0  0  0  0
 11 15  1  0  0  0  0
 12 15  1  0  0  0  0
 13 15  1  0  0  0  0
 14 15  1  0  0  0  0
  1 18  1  0  0  0  0
  2 19  1  0  0  0  0
  3 20  1  0  0  0  0
  4 21  1  0  0  0  0
 10 22  1  0  0  0  0
 10 23  1  0  0  0  0
 10 24  1  0  0  0  0
 11 25  1  0  0  0  0
 11 26  1  0  0  0  0
 11 27  1  0  0  0  0
 12 28  1  0  0  0  0
 12 29  1  0  0  0  0
 12 30  1  0  0  0  0
 13 31  1  0  0  0  0
 13 32  1  0  0  0  0
 13 33  1  0  0  0  0
 14 34  1  0  0  0  0
 14 35  1  0  0  0  0
 17 36  1  0  0  0  0
M  END
> <id>
EN300-801116

> <smiles>
CC=1C=CC=C2C=C(O)C(CC(C)(C)C)=NC12

> <MDLNUMBER>
MFCD31601227

> <IUPAC Name>
2-(2,2-dimethylpropyl)-8-methylquinolin-3-ol

> <CAS>
2138252-01-2

> <URL>
https://www.enaminestore.com/catalog/EN300-801116

> <ROCS_ShapeQuery>
_x1140_x0812_0A_x1140_0A_x1097_0A_x0365_0A_x1097_0A_x0310_0A

> <ROCS_TanimotoCombo>
0.648 

> <ROCS_ShapeTanimoto>
0.242 

> <ROCS_ColorTanimoto>
0.406 

> <ROCS_RefTversky>
0.219 

> <ROCS_RefColorTversky>
0.512 

> <ROCS_RefTverskyCombo>
0.731 

> <ROCS_FitTversky>
1.787 

> <ROCS_FitColorTversky>
0.663 

> <ROCS_FitTverskyCombo>
2.450 

> <ROCS_ColorScore>
-4.046

> <ROCS_Overlap>
2245.210

> <ROCS_Rank>
31                  

$$$$
untitled-dbase-490529_9
  -OEChem-02092423213D

 33 35  0     0  0  0  0  0  0999 V2000
    8.4585   12.5432   24.1966 C   0  0  0  0  0  0  0  0  0  0  0  0
    9.2262   11.5897   23.5319 C   0  0  0  0  0  0  0  0  0  0  0  0
    7.5678   12.1031   25.1542 C   0  0  0  0  0  0  0  0  0  0  0  0
    7.4835   10.7415   25.4245 C   0  0  0  0  0  0  0  0  0  0  0  0
    9.0660   10.2462   23.8721 C   0  0  0  0  0  0  0  0  0  0  0  0
   10.1684   12.0298   22.5115 C   0  0  0  0  0  0  0  0  0  0  0  0
    6.6559   12.8902   26.0339 C   0  0  0  0  0  0  0  0  0  0  0  0
    6.5011   10.4792   26.5298 C   0  0  0  0  0  0  0  0  0  0  0  0
    5.7007   11.7902   26.5256 C   0  0  0  0  0  0  0  0  0  0  0  0
   11.6712    7.4867   23.1004 C   0  0  0  0  0  0  0  0  0  0  0  0
   12.2555    8.6712   23.8132 C   0  0  0  0  0  0  0  0  0  0  0  0
   10.7724    8.4258   23.8564 C   0  0  0  0  0  0  0  0  0  0  0  0
   12.0879   13.3877   22.1195 C   0  0  0  0  0  0  0  0  0  0  0  0
    8.2088    9.7886   24.8162 N   0  0  0  0  0  0  0  0  0  0  0  0
    9.8574    9.2892   23.1858 N   0  0  0  0  0  0  0  0  0  0  0  0
   10.1284   11.6777   21.3266 O   0  0  0  0  0  0  0  0  0  0  0  0
   11.1033   12.8832   23.0282 O   0  0  0  0  0  0  0  0  0  0  0  0
    8.5548   13.6011   23.9737 H   0  0  0  0  0  0  0  0  0  0  0  0
    7.2167   13.3278   26.8661 H   0  0  0  0  0  0  0  0  0  0  0  0
    6.1180   13.6718   25.4904 H   0  0  0  0  0  0  0  0  0  0  0  0
    5.8673    9.6126   26.3254 H   0  0  0  0  0  0  0  0  0  0  0  0
    7.0340   10.3421   27.4760 H   0  0  0  0  0  0  0  0  0  0  0  0
    5.2685   12.0194   27.5046 H   0  0  0  0  0  0  0  0  0  0  0  0
    4.8651   11.6983   25.8175 H   0  0  0  0  0  0  0  0  0  0  0  0
   11.6498    7.5113   22.0179 H   0  0  0  0  0  0  0  0  0  0  0  0
   11.8462    6.5056   23.5244 H   0  0  0  0  0  0  0  0  0  0  0  0
   12.8236    8.4872   24.7167 H   0  0  0  0  0  0  0  0  0  0  0  0
   12.6249    9.4901   23.2083 H   0  0  0  0  0  0  0  0  0  0  0  0
   10.3646    8.0626   24.7934 H   0  0  0  0  0  0  0  0  0  0  0  0
   12.7705   14.0534   22.6534 H   0  0  0  0  0  0  0  0  0  0  0  0
   11.5935   13.9292   21.3090 H   0  0  0  0  0  0  0  0  0  0  0  0
   12.6513   12.5488   21.7041 H   0  0  0  0  0  0  0  0  0  0  0  0
    9.7451    9.2462   22.1944 H   0  0  0  0  0  0  0  0  0  0  0  0
  1  2  1  0  0  0  0
  1  3  2  0  0  0  0
  2  5  2  0  0  0  0
  2  6  1  0  0  0  0
  3  4  1  0  0  0  0
  3  7  1  0  0  0  0
  4  8  1  0  0  0  0
  4 14  2  0  0  0  0
  5 14  1  0  0  0  0
  5 15  1  0  0  0  0
  6 16  2  0  0  0  0
  6 17  1  0  0  0  0
  7  9  1  0  0  0  0
  8  9  1  0  0  0  0
 10 11  1  0  0  0  0
 10 12  1  0  0  0  0
 11 12  1  0  0  0  0
 12 15  1  0  0  0  0
 13 17  1  0  0  0  0
  1 18  1  0  0  0  0
  7 19  1  0  0  0  0
  7 20  1  0  0  0  0
  8 21  1  0  0  0  0
  8 22  1  0  0  0  0
  9 23  1  0  0  0  0
  9 24  1  0  0  0  0
 10 25  1  0  0  0  0
 10 26  1  0  0  0  0
 11 27  1  0  0  0  0
 11 28  1  0  0  0  0
 12 29  1  0  0  0  0
 13 30  1  0  0  0  0
 13 31  1  0  0  0  0
 13 32  1  0  0  0  0
 15 33  1  0  0  0  0
M  END
> <id>
EN300-27782536

> <smiles>
COC(=O)C=1C=C2CCCC2=NC1NC3CC3

> <IUPAC Name>
methyl 2-(cyclopropylamino)-5H,6H,7H-cyclopenta[b]pyridine-3-carboxylate

> <CAS>
2639426-63-2

> <URL>
https://www.enaminestore.com/catalog/EN300-27782536

> <ROCS_ShapeQuery>
_x1140_x0812_0A_x1140_0A_x1097_0A_x0365_0A_x1097_0A_x0310_0A

> <ROCS_TanimotoCombo>
0.648 

> <ROCS_ShapeTanimoto>
0.276 

> <ROCS_ColorTanimoto>
0.373 

> <ROCS_RefTversky>
0.243 

> <ROCS_RefColorTversky>
0.450 

> <ROCS_RefTverskyCombo>
0.693 

> <ROCS_FitTversky>
1.964 

> <ROCS_FitColorTversky>
0.684 

> <ROCS_FitTverskyCombo>
2.648 

> <ROCS_ColorScore>
-3.534

> <ROCS_Overlap>
2490.115

> <ROCS_Rank>
32                  

$$$$
untitled-dbase-120492_3
  -OEChem-02092423213D

 39 40  0     0  0  0  0  0  0999 V2000
    6.7937   12.2281   27.5890 C   0  0  0  0  0  0  0  0  0  0  0  0
    7.6338   12.7750   26.6234 C   0  0  0  0  0  0  0  0  0  0  0  0
    6.4101   10.8965   27.4897 C   0  0  0  0  0  0  0  0  0  0  0  0
    8.9400   12.5137   24.5673 C   0  0  0  0  0  0  0  0  0  0  0  0
    8.0935   11.9888   25.5532 C   0  0  0  0  0  0  0  0  0  0  0  0
    6.8672   10.1151   26.4256 C   0  0  0  0  0  0  0  0  0  0  0  0
    7.7080   10.6361   25.4459 C   0  0  0  0  0  0  0  0  0  0  0  0
    9.3765   11.7114   23.5230 C   0  0  0  0  0  0  0  0  0  0  0  0
    8.9462   10.4003   23.5026 C   0  0  0  0  0  0  0  0  0  0  0  0
    6.4267    8.6853   26.3625 C   0  0  0  0  0  0  0  0  0  0  0  0
   11.5887    9.2548   21.2276 C   0  0  0  0  0  0  0  0  0  0  0  0
   11.5831    9.4950   23.7107 C   0  0  0  0  0  0  0  0  0  0  0  0
   10.8009    7.3622   22.6494 C   0  0  0  0  0  0  0  0  0  0  0  0
    9.3754    9.4798   22.4065 C   0  0  0  0  0  0  0  0  0  0  0  0
   10.8203    8.8950   22.5169 C   0  0  0  0  0  0  0  0  0  0  0  0
    8.1301    9.8551   24.4335 N   0  0  0  0  0  0  0  0  0  0  0  0
   10.8773   13.4380   22.6929 N   0  0  0  0  0  0  0  0  0  0  0  0
   10.2257   12.2345   22.5329 N   0  0  0  0  0  0  0  0  0  0  0  0
    6.4413   12.8383   28.4151 H   0  0  0  0  0  0  0  0  0  0  0  0
    7.9290   13.8179   26.7112 H   0  0  0  0  0  0  0  0  0  0  0  0
    5.7537   10.4712   28.2445 H   0  0  0  0  0  0  0  0  0  0  0  0
    9.2570   13.5539   24.6177 H   0  0  0  0  0  0  0  0  0  0  0  0
    5.4965    8.6034   25.7911 H   0  0  0  0  0  0  0  0  0  0  0  0
    7.1898    8.0602   25.8858 H   0  0  0  0  0  0  0  0  0  0  0  0
    6.2604    8.2812   27.3673 H   0  0  0  0  0  0  0  0  0  0  0  0
   11.0866    8.8500   20.3416 H   0  0  0  0  0  0  0  0  0  0  0  0
   11.6641   10.3405   21.0985 H   0  0  0  0  0  0  0  0  0  0  0  0
   12.6076    8.8518   21.2484 H   0  0  0  0  0  0  0  0  0  0  0  0
   11.0788    9.2686   24.6566 H   0  0  0  0  0  0  0  0  0  0  0  0
   12.6076    9.1135   23.7713 H   0  0  0  0  0  0  0  0  0  0  0  0
   11.6518   10.5858   23.6252 H   0  0  0  0  0  0  0  0  0  0  0  0
   10.2642    7.0524   23.5537 H   0  0  0  0  0  0  0  0  0  0  0  0
   10.2984    6.8872   21.8006 H   0  0  0  0  0  0  0  0  0  0  0  0
   11.8170    6.9577   22.7135 H   0  0  0  0  0  0  0  0  0  0  0  0
    9.2842    9.9974   21.4338 H   0  0  0  0  0  0  0  0  0  0  0  0
    8.6643    8.6363   22.3339 H   0  0  0  0  0  0  0  0  0  0  0  0
   10.8044   13.9620   21.8221 H   0  0  0  0  0  0  0  0  0  0  0  0
   11.8705   13.2534   22.8275 H   0  0  0  0  0  0  0  0  0  0  0  0
   10.5253   11.6215   21.7849 H   0  0  0  0  0  0  0  0  0  0  0  0
  1  2  1  0  0  0  0
  1  3  2  0  0  0  0
  2  5  2  0  0  0  0
  3  6  1  0  0  0  0
  4  5  1  0  0  0  0
  4  8  2  0  0  0  0
  5  7  1  0  0  0  0
  6  7  2  0  0  0  0
  6 10  1  0  0  0  0
  7 16  1  0  0  0  0
  8  9  1  0  0  0  0
  8 18  1  0  0  0  0
  9 14  1  0  0  0  0
  9 16  2  0  0  0  0
 11 15  1  0  0  0  0
 12 15  1  0  0  0  0
 13 15  1  0  0  0  0
 14 15  1  0  0  0  0
 17 18  1  0  0  0  0
  1 19  1  0  0  0  0
  2 20  1  0  0  0  0
  3 21  1  0  0  0  0
  4 22  1  0  0  0  0
 10 23  1  0  0  0  0
 10 24  1  0  0  0  0
 10 25  1  0  0  0  0
 11 26  1  0  0  0  0
 11 27  1  0  0  0  0
 11 28  1  0  0  0  0
 12 29  1  0  0  0  0
 12 30  1  0  0  0  0
 12 31  1  0  0  0  0
 13 32  1  0  0  0  0
 13 33  1  0  0  0  0
 13 34  1  0  0  0  0
 14 35  1  0  0  0  0
 14 36  1  0  0  0  0
 17 37  1  0  0  0  0
 17 38  1  0  0  0  0
 18 39  1  0  0  0  0
M  END
> <id>
EN300-801681

> <smiles>
CC=1C=CC=C2C=C(NN)C(CC(C)(C)C)=NC12

> <IUPAC Name>
2-(2,2-dimethylpropyl)-3-hydrazinyl-8-methylquinoline

> <CAS>
2138263-80-4

> <URL>
https://www.enaminestore.com/catalog/EN300-801681

> <ROCS_ShapeQuery>
_x1140_x0812_0A_x1140_0A_x1097_0A_x0365_0A_x1097_0A_x0310_0A

> <ROCS_TanimotoCombo>
0.648 

> <ROCS_ShapeTanimoto>
0.256 

> <ROCS_ColorTanimoto>
0.392 

> <ROCS_RefTversky>
0.229 

> <ROCS_RefColorTversky>
0.509 

> <ROCS_RefTverskyCombo>
0.739 

> <ROCS_FitTversky>
1.817 

> <ROCS_FitColorTversky>
0.631 

> <ROCS_FitTverskyCombo>
2.448 

> <ROCS_ColorScore>
-4.031

> <ROCS_Overlap>
2353.298

> <ROCS_Rank>
33                  

$$$$
untitled-dbase-267840_6
  -OEChem-02092423213D

 26 27  0     0  0  0  0  0  0999 V2000
    7.5284   11.9940   25.2416 C   0  0  0  0  0  0  0  0  0  0  0  0
    8.6444   12.5165   24.5905 C   0  0  0  0  0  0  0  0  0  0  0  0
    7.2997   10.6259   25.1811 C   0  0  0  0  0  0  0  0  0  0  0  0
   11.0130   10.4583   22.7212 C   0  0  0  0  0  0  0  0  0  0  0  0
    9.4816   11.6221   23.9041 C   0  0  0  0  0  0  0  0  0  0  0  0
   10.6732   11.7270   23.1390 C   0  0  0  0  0  0  0  0  0  0  0  0
    9.1333   10.2746   23.9250 C   0  0  0  0  0  0  0  0  0  0  0  0
   11.6327   15.8911   21.9799 C   0  0  0  0  0  0  0  0  0  0  0  0
   11.4202   12.9649   22.8389 C   0  0  0  0  0  0  0  0  0  0  0  0
   11.9916   14.7259   21.0895 C   0  0  0  0  0  0  0  0  0  0  0  0
   11.1784   13.4746   21.4045 C   0  0  0  0  0  0  0  0  0  0  0  0
    8.0701    9.7191   24.5364 N   0  0  0  0  0  0  0  0  0  0  0  0
   10.0721    9.5856   23.2032 N   0  0  0  0  0  0  0  0  0  0  0  0
   12.4068   16.4449   22.7531 O   0  0  0  0  0  0  0  0  0  0  0  0
    6.8520   12.6451   25.7850 H   0  0  0  0  0  0  0  0  0  0  0  0
    8.8524   13.5811   24.6188 H   0  0  0  0  0  0  0  0  0  0  0  0
    6.4348   10.2008   25.6837 H   0  0  0  0  0  0  0  0  0  0  0  0
   11.8394   10.0970   22.1249 H   0  0  0  0  0  0  0  0  0  0  0  0
   10.5875   16.2354   21.8952 H   0  0  0  0  0  0  0  0  0  0  0  0
   12.5084   12.8149   22.9846 H   0  0  0  0  0  0  0  0  0  0  0  0
   11.1535   13.7694   23.5528 H   0  0  0  0  0  0  0  0  0  0  0  0
   11.8249   15.0398   20.0536 H   0  0  0  0  0  0  0  0  0  0  0  0
   13.0613   14.5298   21.2197 H   0  0  0  0  0  0  0  0  0  0  0  0
   10.1100   13.6853   21.2669 H   0  0  0  0  0  0  0  0  0  0  0  0
   11.4292   12.6815   20.6882 H   0  0  0  0  0  0  0  0  0  0  0  0
   10.0698    8.5869   23.0490 H   0  0  0  0  0  0  0  0  0  0  0  0
  1  2  2  0  0  0  0
  1  3  1  0  0  0  0
  2  5  1  0  0  0  0
  3 12  2  0  0  0  0
  4  6  2  0  0  0  0
  4 13  1  0  0  0  0
  5  6  1  0  0  0  0
  5  7  2  0  0  0  0
  6  9  1  0  0  0  0
  7 12  1  0  0  0  0
  7 13  1  0  0  0  0
  8 10  1  0  0  0  0
  8 14  2  0  0  0  0
  9 11  1  0  0  0  0
 10 11  1  0  0  0  0
  1 15  1  0  0  0  0
  2 16  1  0  0  0  0
  3 17  1  0  0  0  0
  4 18  1  0  0  0  0
  8 19  1  0  0  0  0
  9 20  1  0  0  0  0
  9 21  1  0  0  0  0
 10 22  1  0  0  0  0
 10 23  1  0  0  0  0
 11 24  1  0  0  0  0
 11 25  1  0  0  0  0
 13 26  1  0  0  0  0
M  END
> <id>
EN300-1760639

> <smiles>
O=CCCCC1=CNC=2N=CC=CC12

> <IUPAC Name>
4-{1H-pyrrolo[2,3-b]pyridin-3-yl}butanal

> <CAS>
2229613-81-2

> <URL>
https://www.enaminestore.com/catalog/EN300-1760639

> <ROCS_ShapeQuery>
_x1140_x0812_0A_x1140_0A_x1097_0A_x0365_0A_x1097_0A_x0310_0A

> <ROCS_TanimotoCombo>
0.648 

> <ROCS_ShapeTanimoto>
0.234 

> <ROCS_ColorTanimoto>
0.415 

> <ROCS_RefTversky>
0.210 

> <ROCS_RefColorTversky>
0.486 

> <ROCS_RefTverskyCombo>
0.696 

> <ROCS_FitTversky>
1.907 

> <ROCS_FitColorTversky>
0.738 

> <ROCS_FitTverskyCombo>
2.645 

> <ROCS_ColorScore>
-3.816

> <ROCS_Overlap>
2154.577

> <ROCS_Rank>
34                  

$$$$
untitled-dbase-311920_3
  -OEChem-02092423213D

 36 37  0     0  0  0  0  0  0999 V2000
    6.4051   10.8905   27.4874 C   0  0  0  0  0  0  0  0  0  0  0  0
    6.8647   10.1097   26.4239 C   0  0  0  0  0  0  0  0  0  0  0  0
    6.7863   12.2228   27.5870 C   0  0  0  0  0  0  0  0  0  0  0  0
    8.9356   12.5115   24.5677 C   0  0  0  0  0  0  0  0  0  0  0  0
    8.0888   11.9853   25.5526 C   0  0  0  0  0  0  0  0  0  0  0  0
    7.7057   10.6319   25.4451 C   0  0  0  0  0  0  0  0  0  0  0  0
    9.3746   11.7098   23.5239 C   0  0  0  0  0  0  0  0  0  0  0  0
    7.6267   12.7709   26.6222 C   0  0  0  0  0  0  0  0  0  0  0  0
    8.9465   10.3979   23.5032 C   0  0  0  0  0  0  0  0  0  0  0  0
   11.5893    9.2555   21.2271 C   0  0  0  0  0  0  0  0  0  0  0  0
   11.5846    9.4961   23.7101 C   0  0  0  0  0  0  0  0  0  0  0  0
   10.8048    7.3621   22.6496 C   0  0  0  0  0  0  0  0  0  0  0  0
    9.3763    9.4778   22.4071 C   0  0  0  0  0  0  0  0  0  0  0  0
   10.8220    8.8949   22.5168 C   0  0  0  0  0  0  0  0  0  0  0  0
    8.1303    9.8515   24.4333 N   0  0  0  0  0  0  0  0  0  0  0  0
   10.8747   13.4371   22.6943 N   0  0  0  0  0  0  0  0  0  0  0  0
   10.2245   12.2330   22.5342 N   0  0  0  0  0  0  0  0  0  0  0  0
    8.0497   14.4405   26.8260 Cl  0  0  0  0  0  0  0  0  0  0  0  0
    5.7502   10.4543   28.2360 H   0  0  0  0  0  0  0  0  0  0  0  0
    6.5540    9.0678   26.3705 H   0  0  0  0  0  0  0  0  0  0  0  0
    6.4213   12.8164   28.4209 H   0  0  0  0  0  0  0  0  0  0  0  0
    9.2676   13.5464   24.5934 H   0  0  0  0  0  0  0  0  0  0  0  0
   11.0873    8.8499   20.3414 H   0  0  0  0  0  0  0  0  0  0  0  0
   11.6632   10.3413   21.0977 H   0  0  0  0  0  0  0  0  0  0  0  0
   12.6087    8.8539   21.2474 H   0  0  0  0  0  0  0  0  0  0  0  0
   11.0812    9.2692   24.6564 H   0  0  0  0  0  0  0  0  0  0  0  0
   12.6097    9.1161   23.7703 H   0  0  0  0  0  0  0  0  0  0  0  0
   11.6519   10.5870   23.6244 H   0  0  0  0  0  0  0  0  0  0  0  0
   10.2690    7.0518   23.5543 H   0  0  0  0  0  0  0  0  0  0  0  0
   10.3025    6.8862   21.8011 H   0  0  0  0  0  0  0  0  0  0  0  0
   11.8215    6.9590   22.7132 H   0  0  0  0  0  0  0  0  0  0  0  0
    9.2839    9.9950   21.4343 H   0  0  0  0  0  0  0  0  0  0  0  0
    8.6663    8.6334   22.3351 H   0  0  0  0  0  0  0  0  0  0  0  0
   10.8023   13.9605   21.8230 H   0  0  0  0  0  0  0  0  0  0  0  0
   11.8680   13.2535   22.8301 H   0  0  0  0  0  0  0  0  0  0  0  0
   10.5254   11.6196   21.7872 H   0  0  0  0  0  0  0  0  0  0  0  0
  1  2  2  0  0  0  0
  1  3  1  0  0  0  0
  2  6  1  0  0  0  0
  3  8  2  0  0  0  0
  4  5  2  0  0  0  0
  4  7  1  0  0  0  0
  5  6  1  0  0  0  0
  5  8  1  0  0  0  0
  6 15  2  0  0  0  0
  7  9  2  0  0  0  0
  7 17  1  0  0  0  0
  8 18  1  0  0  0  0
  9 13  1  0  0  0  0
  9 15  1  0  0  0  0
 10 14  1  0  0  0  0
 11 14  1  0  0  0  0
 12 14  1  0  0  0  0
 13 14  1  0  0  0  0
 16 17  1  0  0  0  0
  1 19  1  0  0  0  0
  2 20  1  0  0  0  0
  3 21  1  0  0  0  0
  4 22  1  0  0  0  0
 10 23  1  0  0  0  0
 10 24  1  0  0  0  0
 10 25  1  0  0  0  0
 11 26  1  0  0  0  0
 11 27  1  0  0  0  0
 11 28  1  0  0  0  0
 12 29  1  0  0  0  0
 12 30  1  0  0  0  0
 12 31  1  0  0  0  0
 13 32  1  0  0  0  0
 13 33  1  0  0  0  0
 16 34  1  0  0  0  0
 16 35  1  0  0  0  0
 17 36  1  0  0  0  0
M  END
> <id>
EN300-801850

> <smiles>
CC(C)(C)CC=1N=C2C=CC=C(Cl)C2=CC1NN

> <IUPAC Name>
5-chloro-2-(2,2-dimethylpropyl)-3-hydrazinylquinoline

> <CAS>
2137695-38-4

> <URL>
https://www.enaminestore.com/catalog/EN300-801850

> <ROCS_ShapeQuery>
_x1140_x0812_0A_x1140_0A_x1097_0A_x0365_0A_x1097_0A_x0310_0A

> <ROCS_TanimotoCombo>
0.648 

> <ROCS_ShapeTanimoto>
0.255 

> <ROCS_ColorTanimoto>
0.392 

> <ROCS_RefTversky>
0.229 

> <ROCS_RefColorTversky>
0.509 

> <ROCS_RefTverskyCombo>
0.738 

> <ROCS_FitTversky>
1.822 

> <ROCS_FitColorTversky>
0.631 

> <ROCS_FitTverskyCombo>
2.453 

> <ROCS_ColorScore>
-4.032

> <ROCS_Overlap>
2347.348

> <ROCS_Rank>
35                  

$$$$
untitled-dbase-111245_3
  -OEChem-02092423213D

 33 34  0     0  0  0  0  0  0999 V2000
    6.4909   11.0402   27.4680 C   0  0  0  0  0  0  0  0  0  0  0  0
    6.9388   10.2185   26.4307 C   0  0  0  0  0  0  0  0  0  0  0  0
    6.8571   12.3800   27.5008 C   0  0  0  0  0  0  0  0  0  0  0  0
    8.9409   12.5599   24.4277 C   0  0  0  0  0  0  0  0  0  0  0  0
    8.1211   12.0680   25.4523 C   0  0  0  0  0  0  0  0  0  0  0  0
    7.7531   10.7067   25.4125 C   0  0  0  0  0  0  0  0  0  0  0  0
    9.3689   11.7180   23.4114 C   0  0  0  0  0  0  0  0  0  0  0  0
    7.6707   12.8947   26.4956 C   0  0  0  0  0  0  0  0  0  0  0  0
    8.9571   10.4015   23.4575 C   0  0  0  0  0  0  0  0  0  0  0  0
   11.7620    9.7828   21.6401 C   0  0  0  0  0  0  0  0  0  0  0  0
   11.3526    8.9225   23.9456 C   0  0  0  0  0  0  0  0  0  0  0  0
   10.9339    7.4512   21.9590 C   0  0  0  0  0  0  0  0  0  0  0  0
    9.3818    9.4462   22.3909 C   0  0  0  0  0  0  0  0  0  0  0  0
   10.8387    8.8899   22.4958 C   0  0  0  0  0  0  0  0  0  0  0  0
    8.1669    9.8873   24.4275 N   0  0  0  0  0  0  0  0  0  0  0  0
   10.1639   12.1887   22.4180 O   0  0  0  0  0  0  0  0  0  0  0  0
    8.0783   14.5760   26.6177 Cl  0  0  0  0  0  0  0  0  0  0  0  0
    5.8575   10.6292   28.2487 H   0  0  0  0  0  0  0  0  0  0  0  0
    6.6390    9.1720   26.4291 H   0  0  0  0  0  0  0  0  0  0  0  0
    6.5007   13.0065   28.3142 H   0  0  0  0  0  0  0  0  0  0  0  0
    9.2625   13.5976   24.3968 H   0  0  0  0  0  0  0  0  0  0  0  0
   11.4401    9.7959   20.5926 H   0  0  0  0  0  0  0  0  0  0  0  0
   11.7607   10.8180   21.9999 H   0  0  0  0  0  0  0  0  0  0  0  0
   12.7970    9.4234   21.6677 H   0  0  0  0  0  0  0  0  0  0  0  0
   10.7303    8.3021   24.6001 H   0  0  0  0  0  0  0  0  0  0  0  0
   12.3849    8.5654   24.0188 H   0  0  0  0  0  0  0  0  0  0  0  0
   11.3375    9.9433   24.3452 H   0  0  0  0  0  0  0  0  0  0  0  0
   10.2935    6.7732   22.5353 H   0  0  0  0  0  0  0  0  0  0  0  0
   10.6120    7.3849   20.9146 H   0  0  0  0  0  0  0  0  0  0  0  0
   11.9596    7.0717   22.0240 H   0  0  0  0  0  0  0  0  0  0  0  0
    9.2639    9.9229   21.3999 H   0  0  0  0  0  0  0  0  0  0  0  0
    8.6845    8.5883   22.3645 H   0  0  0  0  0  0  0  0  0  0  0  0
   10.3514   13.1332   22.5502 H   0  0  0  0  0  0  0  0  0  0  0  0
  1  2  2  0  0  0  0
  1  3  1  0  0  0  0
  2  6  1  0  0  0  0
  3  8  2  0  0  0  0
  4  5  2  0  0  0  0
  4  7  1  0  0  0  0
  5  6  1  0  0  0  0
  5  8  1  0  0  0  0
  6 15  2  0  0  0  0
  7  9  2  0  0  0  0
  7 16  1  0  0  0  0
  8 17  1  0  0  0  0
  9 13  1  0  0  0  0
  9 15  1  0  0  0  0
 10 14  1  0  0  0  0
 11 14  1  0  0  0  0
 12 14  1  0  0  0  0
 13 14  1  0  0  0  0
  1 18  1  0  0  0  0
  2 19  1  0  0  0  0
  3 20  1  0  0  0  0
  4 21  1  0  0  0  0
 10 22  1  0  0  0  0
 10 23  1  0  0  0  0
 10 24  1  0  0  0  0
 11 25  1  0  0  0  0
 11 26  1  0  0  0  0
 11 27  1  0  0  0  0
 12 28  1  0  0  0  0
 12 29  1  0  0  0  0
 12 30  1  0  0  0  0
 13 31  1  0  0  0  0
 13 32  1  0  0  0  0
 16 33  1  0  0  0  0
M  END
> <id>
EN300-801333

> <smiles>
CC(C)(C)CC=1N=C2C=CC=C(Cl)C2=CC1O

> <MDLNUMBER>
MFCD31590732

> <IUPAC Name>
5-chloro-2-(2,2-dimethylpropyl)quinolin-3-ol

> <CAS>
2137886-35-0

> <URL>
https://www.enaminestore.com/catalog/EN300-801333

> <ROCS_ShapeQuery>
_x1140_x0812_0A_x1140_0A_x1097_0A_x0365_0A_x1097_0A_x0310_0A

> <ROCS_TanimotoCombo>
0.647 

> <ROCS_ShapeTanimoto>
0.241 

> <ROCS_ColorTanimoto>
0.406 

> <ROCS_RefTversky>
0.218 

> <ROCS_RefColorTversky>
0.512 

> <ROCS_RefTverskyCombo>
0.730 

> <ROCS_FitTversky>
1.790 

> <ROCS_FitColorTversky>
0.663 

> <ROCS_FitTverskyCombo>
2.453 

> <ROCS_ColorScore>
-4.047

> <ROCS_Overlap>
2235.560

> <ROCS_Rank>
36                  

$$$$
untitled-dbase-111239_3
  -OEChem-02092423213D

 33 34  0     0  0  0  0  0  0999 V2000
    6.8670   12.3818   27.5053 C   0  0  0  0  0  0  0  0  0  0  0  0
    7.6804   12.8958   26.4995 C   0  0  0  0  0  0  0  0  0  0  0  0
    6.4979   11.0428   27.4716 C   0  0  0  0  0  0  0  0  0  0  0  0
    8.9473   12.5604   24.4297 C   0  0  0  0  0  0  0  0  0  0  0  0
    8.1277   12.0692   25.4549 C   0  0  0  0  0  0  0  0  0  0  0  0
    7.7568   10.7087   25.4142 C   0  0  0  0  0  0  0  0  0  0  0  0
    9.3723   11.7186   23.4120 C   0  0  0  0  0  0  0  0  0  0  0  0
    6.9428   10.2212   26.4329 C   0  0  0  0  0  0  0  0  0  0  0  0
    8.9578   10.4030   23.4573 C   0  0  0  0  0  0  0  0  0  0  0  0
   11.7635    9.7811   21.6423 C   0  0  0  0  0  0  0  0  0  0  0  0
   11.3502    8.9195   23.9467 C   0  0  0  0  0  0  0  0  0  0  0  0
   10.9311    7.4506   21.9583 C   0  0  0  0  0  0  0  0  0  0  0  0
    9.3819    9.4479   22.3903 C   0  0  0  0  0  0  0  0  0  0  0  0
   10.8377    8.8890   22.4963 C   0  0  0  0  0  0  0  0  0  0  0  0
    8.1677    9.8894   24.4279 N   0  0  0  0  0  0  0  0  0  0  0  0
   10.1651   12.1901   22.4173 O   0  0  0  0  0  0  0  0  0  0  0  0
    6.4448    8.5617   26.4518 Cl  0  0  0  0  0  0  0  0  0  0  0  0
    6.5234   13.0230   28.3114 H   0  0  0  0  0  0  0  0  0  0  0  0
    7.9646   13.9450   26.5355 H   0  0  0  0  0  0  0  0  0  0  0  0
    5.8622   10.6499   28.2612 H   0  0  0  0  0  0  0  0  0  0  0  0
    9.2547   13.6043   24.4245 H   0  0  0  0  0  0  0  0  0  0  0  0
   11.4427    9.7957   20.5945 H   0  0  0  0  0  0  0  0  0  0  0  0
   11.7636   10.8159   22.0031 H   0  0  0  0  0  0  0  0  0  0  0  0
   12.7978    9.4199   21.6707 H   0  0  0  0  0  0  0  0  0  0  0  0
   10.7262    8.2995   24.5999 H   0  0  0  0  0  0  0  0  0  0  0  0
   12.3819    8.5605   24.0206 H   0  0  0  0  0  0  0  0  0  0  0  0
   11.3364    9.9399   24.3471 H   0  0  0  0  0  0  0  0  0  0  0  0
   10.2890    6.7732   22.5334 H   0  0  0  0  0  0  0  0  0  0  0  0
   10.6102    7.3857   20.9136 H   0  0  0  0  0  0  0  0  0  0  0  0
   11.9561    7.0693   22.0240 H   0  0  0  0  0  0  0  0  0  0  0  0
    9.2658    9.9256   21.3997 H   0  0  0  0  0  0  0  0  0  0  0  0
    8.6832    8.5912   22.3625 H   0  0  0  0  0  0  0  0  0  0  0  0
   10.3532   13.1345   22.5501 H   0  0  0  0  0  0  0  0  0  0  0  0
  1  2  2  0  0  0  0
  1  3  1  0  0  0  0
  2  5  1  0  0  0  0
  3  8  2  0  0  0  0
  4  5  2  0  0  0  0
  4  7  1  0  0  0  0
  5  6  1  0  0  0  0
  6  8  1  0  0  0  0
  6 15  2  0  0  0  0
  7  9  2  0  0  0  0
  7 16  1  0  0  0  0
  8 17  1  0  0  0  0
  9 13  1  0  0  0  0
  9 15  1  0  0  0  0
 10 14  1  0  0  0  0
 11 14  1  0  0  0  0
 12 14  1  0  0  0  0
 13 14  1  0  0  0  0
  1 18  1  0  0  0  0
  2 19  1  0  0  0  0
  3 20  1  0  0  0  0
  4 21  1  0  0  0  0
 10 22  1  0  0  0  0
 10 23  1  0  0  0  0
 10 24  1  0  0  0  0
 11 25  1  0  0  0  0
 11 26  1  0  0  0  0
 11 27  1  0  0  0  0
 12 28  1  0  0  0  0
 12 29  1  0  0  0  0
 12 30  1  0  0  0  0
 13 31  1  0  0  0  0
 13 32  1  0  0  0  0
 16 33  1  0  0  0  0
M  END
> <id>
EN300-801273

> <smiles>
CC(C)(C)CC=1N=C2C(Cl)=CC=CC2=CC1O

> <MDLNUMBER>
MFCD31590723

> <IUPAC Name>
8-chloro-2-(2,2-dimethylpropyl)quinolin-3-ol

> <CAS>
2137778-53-9

> <URL>
https://www.enaminestore.com/catalog/EN300-801273

> <ROCS_ShapeQuery>
_x1140_x0812_0A_x1140_0A_x1097_0A_x0365_0A_x1097_0A_x0310_0A

> <ROCS_TanimotoCombo>
0.647 

> <ROCS_ShapeTanimoto>
0.241 

> <ROCS_ColorTanimoto>
0.406 

> <ROCS_RefTversky>
0.218 

> <ROCS_RefColorTversky>
0.512 

> <ROCS_RefTverskyCombo>
0.730 

> <ROCS_FitTversky>
1.788 

> <ROCS_FitColorTversky>
0.663 

> <ROCS_FitTverskyCombo>
2.451 

> <ROCS_ColorScore>
-4.047

> <ROCS_Overlap>
2234.339

> <ROCS_Rank>
37                  

$$$$
untitled-dbase-120098_3
  -OEChem-02092423213D

 36 37  0     0  0  0  0  0  0999 V2000
    6.7951   12.2243   27.5911 C   0  0  0  0  0  0  0  0  0  0  0  0
    7.6351   12.7719   26.6258 C   0  0  0  0  0  0  0  0  0  0  0  0
    6.4113   10.8928   27.4906 C   0  0  0  0  0  0  0  0  0  0  0  0
    8.9407   12.5123   24.5692 C   0  0  0  0  0  0  0  0  0  0  0  0
    8.0944   11.9866   25.5547 C   0  0  0  0  0  0  0  0  0  0  0  0
    7.7086   10.6341   25.4463 C   0  0  0  0  0  0  0  0  0  0  0  0
    9.3769   11.7109   23.5239 C   0  0  0  0  0  0  0  0  0  0  0  0
    6.8680   10.1123   26.4257 C   0  0  0  0  0  0  0  0  0  0  0  0
    8.9463   10.3999   23.5024 C   0  0  0  0  0  0  0  0  0  0  0  0
   11.5896    9.2549   21.2281 C   0  0  0  0  0  0  0  0  0  0  0  0
   11.5829    9.4937   23.7113 C   0  0  0  0  0  0  0  0  0  0  0  0
   10.8006    7.3618   22.6485 C   0  0  0  0  0  0  0  0  0  0  0  0
    9.3758    9.4798   22.4061 C   0  0  0  0  0  0  0  0  0  0  0  0
   10.8204    8.8945   22.5168 C   0  0  0  0  0  0  0  0  0  0  0  0
    8.1304    9.8539   24.4331 N   0  0  0  0  0  0  0  0  0  0  0  0
   10.8770   13.4383   22.6943 N   0  0  0  0  0  0  0  0  0  0  0  0
   10.2256   12.2349   22.5337 N   0  0  0  0  0  0  0  0  0  0  0  0
    6.3504    8.4600   26.3611 Cl  0  0  0  0  0  0  0  0  0  0  0  0
    6.4421   12.8344   28.4169 H   0  0  0  0  0  0  0  0  0  0  0  0
    7.9297   13.8151   26.7137 H   0  0  0  0  0  0  0  0  0  0  0  0
    5.7552   10.4729   28.2491 H   0  0  0  0  0  0  0  0  0  0  0  0
    9.2585   13.5523   24.6212 H   0  0  0  0  0  0  0  0  0  0  0  0
   11.0878    8.8507   20.3416 H   0  0  0  0  0  0  0  0  0  0  0  0
   11.6653   10.3406   21.0996 H   0  0  0  0  0  0  0  0  0  0  0  0
   12.6083    8.8516   21.2492 H   0  0  0  0  0  0  0  0  0  0  0  0
   11.0781    9.2670   24.6569 H   0  0  0  0  0  0  0  0  0  0  0  0
   12.6072    9.1120   23.7722 H   0  0  0  0  0  0  0  0  0  0  0  0
   11.6519   10.5846   23.6264 H   0  0  0  0  0  0  0  0  0  0  0  0
   10.2634    7.0516   23.5524 H   0  0  0  0  0  0  0  0  0  0  0  0
   10.2984    6.8873   21.7992 H   0  0  0  0  0  0  0  0  0  0  0  0
   11.8166    6.9569   22.7129 H   0  0  0  0  0  0  0  0  0  0  0  0
    9.2852    9.9980   21.4336 H   0  0  0  0  0  0  0  0  0  0  0  0
    8.6645    8.6366   22.3328 H   0  0  0  0  0  0  0  0  0  0  0  0
   10.8036   13.9629   21.8240 H   0  0  0  0  0  0  0  0  0  0  0  0
   11.8704   13.2537   22.8283 H   0  0  0  0  0  0  0  0  0  0  0  0
   10.5248   11.6224   21.7852 H   0  0  0  0  0  0  0  0  0  0  0  0
  1  2  2  0  0  0  0
  1  3  1  0  0  0  0
  2  5  1  0  0  0  0
  3  8  2  0  0  0  0
  4  5  2  0  0  0  0
  4  7  1  0  0  0  0
  5  6  1  0  0  0  0
  6  8  1  0  0  0  0
  6 15  2  0  0  0  0
  7  9  2  0  0  0  0
  7 17  1  0  0  0  0
  8 18  1  0  0  0  0
  9 13  1  0  0  0  0
  9 15  1  0  0  0  0
 10 14  1  0  0  0  0
 11 14  1  0  0  0  0
 12 14  1  0  0  0  0
 13 14  1  0  0  0  0
 16 17  1  0  0  0  0
  1 19  1  0  0  0  0
  2 20  1  0  0  0  0
  3 21  1  0  0  0  0
  4 22  1  0  0  0  0
 10 23  1  0  0  0  0
 10 24  1  0  0  0  0
 10 25  1  0  0  0  0
 11 26  1  0  0  0  0
 11 27  1  0  0  0  0
 11 28  1  0  0  0  0
 12 29  1  0  0  0  0
 12 30  1  0  0  0  0
 12 31  1  0  0  0  0
 13 32  1  0  0  0  0
 13 33  1  0  0  0  0
 16 34  1  0  0  0  0
 16 35  1  0  0  0  0
 17 36  1  0  0  0  0
M  END
> <id>
EN300-801805

> <smiles>
CC(C)(C)CC=1N=C2C(Cl)=CC=CC2=CC1NN

> <IUPAC Name>
8-chloro-2-(2,2-dimethylpropyl)-3-hydrazinylquinoline

> <CAS>
2137773-12-5

> <URL>
https://www.enaminestore.com/catalog/EN300-801805

> <ROCS_ShapeQuery>
_x1140_x0812_0A_x1140_0A_x1097_0A_x0365_0A_x1097_0A_x0310_0A

> <ROCS_TanimotoCombo>
0.647 

> <ROCS_ShapeTanimoto>
0.255 

> <ROCS_ColorTanimoto>
0.392 

> <ROCS_RefTversky>
0.228 

> <ROCS_RefColorTversky>
0.509 

> <ROCS_RefTverskyCombo>
0.738 

> <ROCS_FitTversky>
1.819 

> <ROCS_FitColorTversky>
0.631 

> <ROCS_FitTverskyCombo>
2.449 

> <ROCS_ColorScore>
-4.031

> <ROCS_Overlap>
2343.677

> <ROCS_Rank>
38                  

$$$$
untitled-dbase-119413_3
  -OEChem-02092423213D

 33 34  0     0  0  0  0  0  0999 V2000
    7.6745   12.8960   26.4962 C   0  0  0  0  0  0  0  0  0  0  0  0
    6.8607   12.3820   27.5016 C   0  0  0  0  0  0  0  0  0  0  0  0
    8.9435   12.5603   24.4277 C   0  0  0  0  0  0  0  0  0  0  0  0
    6.9396   10.2206   26.4310 C   0  0  0  0  0  0  0  0  0  0  0  0
    8.1235   12.0690   25.4525 C   0  0  0  0  0  0  0  0  0  0  0  0
    7.7540   10.7082   25.4126 C   0  0  0  0  0  0  0  0  0  0  0  0
    9.3701   11.7181   23.4110 C   0  0  0  0  0  0  0  0  0  0  0  0
    6.4930   11.0426   27.4687 C   0  0  0  0  0  0  0  0  0  0  0  0
    8.9568   10.4021   23.4569 C   0  0  0  0  0  0  0  0  0  0  0  0
   11.7617    9.7825   21.6398 C   0  0  0  0  0  0  0  0  0  0  0  0
   11.3510    8.9210   23.9447 C   0  0  0  0  0  0  0  0  0  0  0  0
   10.9318    7.4513   21.9571 C   0  0  0  0  0  0  0  0  0  0  0  0
    9.3810    9.4471   22.3898 C   0  0  0  0  0  0  0  0  0  0  0  0
   10.8375    8.8897   22.4948 C   0  0  0  0  0  0  0  0  0  0  0  0
    8.1665    9.8885   24.4272 N   0  0  0  0  0  0  0  0  0  0  0  0
   10.1653   12.1899   22.4182 O   0  0  0  0  0  0  0  0  0  0  0  0
    5.7109   10.5374   28.4318 F   0  0  0  0  0  0  0  0  0  0  0  0
    7.9565   13.9459   26.5315 H   0  0  0  0  0  0  0  0  0  0  0  0
    6.5158   13.0237   28.3063 H   0  0  0  0  0  0  0  0  0  0  0  0
    9.2514   13.6041   24.4220 H   0  0  0  0  0  0  0  0  0  0  0  0
    6.6387    9.1746   26.4294 H   0  0  0  0  0  0  0  0  0  0  0  0
   11.4400    9.7965   20.5923 H   0  0  0  0  0  0  0  0  0  0  0  0
   11.7610   10.8174   22.0004 H   0  0  0  0  0  0  0  0  0  0  0  0
   12.7963    9.4223   21.6675 H   0  0  0  0  0  0  0  0  0  0  0  0
   10.7282    8.3006   24.5986 H   0  0  0  0  0  0  0  0  0  0  0  0
   12.3832    8.5631   24.0179 H   0  0  0  0  0  0  0  0  0  0  0  0
   11.3366    9.9415   24.3450 H   0  0  0  0  0  0  0  0  0  0  0  0
   10.2908    6.7733   22.5327 H   0  0  0  0  0  0  0  0  0  0  0  0
   10.6101    7.3858   20.9126 H   0  0  0  0  0  0  0  0  0  0  0  0
   11.9572    7.0710   22.0220 H   0  0  0  0  0  0  0  0  0  0  0  0
    9.2637    9.9245   21.3992 H   0  0  0  0  0  0  0  0  0  0  0  0
    8.6831    8.5898   22.3628 H   0  0  0  0  0  0  0  0  0  0  0  0
   10.3532   13.1342   22.5518 H   0  0  0  0  0  0  0  0  0  0  0  0
  1  2  2  0  0  0  0
  1  5  1  0  0  0  0
  2  8  1  0  0  0  0
  3  5  2  0  0  0  0
  3  7  1  0  0  0  0
  4  6  1  0  0  0  0
  4  8  2  0  0  0  0
  5  6  1  0  0  0  0
  6 15  2  0  0  0  0
  7  9  2  0  0  0  0
  7 16  1  0  0  0  0
  8 17  1  0  0  0  0
  9 13  1  0  0  0  0
  9 15  1  0  0  0  0
 10 14  1  0  0  0  0
 11 14  1  0  0  0  0
 12 14  1  0  0  0  0
 13 14  1  0  0  0  0
  1 18  1  0  0  0  0
  2 19  1  0  0  0  0
  3 20  1  0  0  0  0
  4 21  1  0  0  0  0
 10 22  1  0  0  0  0
 10 23  1  0  0  0  0
 10 24  1  0  0  0  0
 11 25  1  0  0  0  0
 11 26  1  0  0  0  0
 11 27  1  0  0  0  0
 12 28  1  0  0  0  0
 12 29  1  0  0  0  0
 12 30  1  0  0  0  0
 13 31  1  0  0  0  0
 13 32  1  0  0  0  0
 16 33  1  0  0  0  0
M  END
> <id>
EN300-801186

> <smiles>
CC(C)(C)CC=1N=C2C=C(F)C=CC2=CC1O

> <MDLNUMBER>
MFCD31601293

> <IUPAC Name>
2-(2,2-dimethylpropyl)-7-fluoroquinolin-3-ol

> <CAS>
2138419-48-2

> <URL>
https://www.enaminestore.com/catalog/EN300-801186

> <ROCS_ShapeQuery>
_x1140_x0812_0A_x1140_0A_x1097_0A_x0365_0A_x1097_0A_x0310_0A

> <ROCS_TanimotoCombo>
0.647 

> <ROCS_ShapeTanimoto>
0.240 

> <ROCS_ColorTanimoto>
0.406 

> <ROCS_RefTversky>
0.218 

> <ROCS_RefColorTversky>
0.512 

> <ROCS_RefTverskyCombo>
0.730 

> <ROCS_FitTversky>
1.773 

> <ROCS_FitColorTversky>
0.663 

> <ROCS_FitTverskyCombo>
2.435 

> <ROCS_ColorScore>
-4.047

> <ROCS_Overlap>
2232.410

> <ROCS_Rank>
39                  

$$$$
untitled-dbase-119356_3
  -OEChem-02092423213D

 33 34  0     0  0  0  0  0  0999 V2000
    6.9401   10.2181   26.4297 C   0  0  0  0  0  0  0  0  0  0  0  0
    6.4942   11.0393   27.4683 C   0  0  0  0  0  0  0  0  0  0  0  0
    8.9444   12.5590   24.4281 C   0  0  0  0  0  0  0  0  0  0  0  0
    7.6761   12.8932   26.4972 C   0  0  0  0  0  0  0  0  0  0  0  0
    8.1245   12.0670   25.4527 C   0  0  0  0  0  0  0  0  0  0  0  0
    7.7545   10.7064   25.4115 C   0  0  0  0  0  0  0  0  0  0  0  0
    9.3704   11.7176   23.4105 C   0  0  0  0  0  0  0  0  0  0  0  0
    6.8623   12.3785   27.5024 C   0  0  0  0  0  0  0  0  0  0  0  0
    8.9568   10.4017   23.4553 C   0  0  0  0  0  0  0  0  0  0  0  0
   11.7644    9.7817   21.6427 C   0  0  0  0  0  0  0  0  0  0  0  0
   11.3497    8.9197   23.9467 C   0  0  0  0  0  0  0  0  0  0  0  0
   10.9333    7.4507   21.9579 C   0  0  0  0  0  0  0  0  0  0  0  0
    9.3824    9.4469   22.3886 C   0  0  0  0  0  0  0  0  0  0  0  0
   10.8385    8.8890   22.4959 C   0  0  0  0  0  0  0  0  0  0  0  0
    8.1665    9.8875   24.4253 N   0  0  0  0  0  0  0  0  0  0  0  0
   10.1636   12.1903   22.4166 O   0  0  0  0  0  0  0  0  0  0  0  0
    6.4373   13.1694   28.4960 F   0  0  0  0  0  0  0  0  0  0  0  0
    6.6372    9.1726   26.4261 H   0  0  0  0  0  0  0  0  0  0  0  0
    5.8594   10.6298   28.2486 H   0  0  0  0  0  0  0  0  0  0  0  0
    9.2529   13.6025   24.4239 H   0  0  0  0  0  0  0  0  0  0  0  0
    7.9588   13.9428   26.5340 H   0  0  0  0  0  0  0  0  0  0  0  0
   11.4445    9.7961   20.5947 H   0  0  0  0  0  0  0  0  0  0  0  0
   11.7635   10.8165   22.0035 H   0  0  0  0  0  0  0  0  0  0  0  0
   12.7989    9.4212   21.6720 H   0  0  0  0  0  0  0  0  0  0  0  0
   10.7255    8.2993   24.5993 H   0  0  0  0  0  0  0  0  0  0  0  0
   12.3815    8.5614   24.0215 H   0  0  0  0  0  0  0  0  0  0  0  0
   11.3349    9.9401   24.3472 H   0  0  0  0  0  0  0  0  0  0  0  0
   10.2911    6.7728   22.5323 H   0  0  0  0  0  0  0  0  0  0  0  0
   10.6133    7.3856   20.9129 H   0  0  0  0  0  0  0  0  0  0  0  0
   11.9584    7.0700   22.0245 H   0  0  0  0  0  0  0  0  0  0  0  0
    9.2669    9.9246   21.3980 H   0  0  0  0  0  0  0  0  0  0  0  0
    8.6843    8.5898   22.3602 H   0  0  0  0  0  0  0  0  0  0  0  0
   10.3507   13.1348   22.5499 H   0  0  0  0  0  0  0  0  0  0  0  0
  1  2  2  0  0  0  0
  1  6  1  0  0  0  0
  2  8  1  0  0  0  0
  3  5  2  0  0  0  0
  3  7  1  0  0  0  0
  4  5  1  0  0  0  0
  4  8  2  0  0  0  0
  5  6  1  0  0  0  0
  6 15  2  0  0  0  0
  7  9  2  0  0  0  0
  7 16  1  0  0  0  0
  8 17  1  0  0  0  0
  9 13  1  0  0  0  0
  9 15  1  0  0  0  0
 10 14  1  0  0  0  0
 11 14  1  0  0  0  0
 12 14  1  0  0  0  0
 13 14  1  0  0  0  0
  1 18  1  0  0  0  0
  2 19  1  0  0  0  0
  3 20  1  0  0  0  0
  4 21  1  0  0  0  0
 10 22  1  0  0  0  0
 10 23  1  0  0  0  0
 10 24  1  0  0  0  0
 11 25  1  0  0  0  0
 11 26  1  0  0  0  0
 11 27  1  0  0  0  0
 12 28  1  0  0  0  0
 12 29  1  0  0  0  0
 12 30  1  0  0  0  0
 13 31  1  0  0  0  0
 13 32  1  0  0  0  0
 16 33  1  0  0  0  0
M  END
> <id>
EN300-801078

> <smiles>
CC(C)(C)CC=1N=C2C=CC(F)=CC2=CC1O

> <MDLNUMBER>
MFCD31601219

> <IUPAC Name>
2-(2,2-dimethylpropyl)-6-fluoroquinolin-3-ol

> <CAS>
2138251-90-6

> <URL>
https://www.enaminestore.com/catalog/EN300-801078

> <ROCS_ShapeQuery>
_x1140_x0812_0A_x1140_0A_x1097_0A_x0365_0A_x1097_0A_x0310_0A

> <ROCS_TanimotoCombo>
0.646 

> <ROCS_ShapeTanimoto>
0.240 

> <ROCS_ColorTanimoto>
0.406 

> <ROCS_RefTversky>
0.217 

> <ROCS_RefColorTversky>
0.512 

> <ROCS_RefTverskyCombo>
0.730 

> <ROCS_FitTversky>
1.771 

> <ROCS_FitColorTversky>
0.663 

> <ROCS_FitTverskyCombo>
2.434 

> <ROCS_ColorScore>
-4.046

> <ROCS_Overlap>
2230.681

> <ROCS_Rank>
40                  

$$$$
untitled-dbase-484616_5
  -OEChem-02092423213D

 23 23  0     0  0  0  0  0  0999 V2000
   12.0706   15.4631   23.0074 C   0  0  0  0  0  0  0  0  0  0  0  0
    7.6039   11.1182   25.5432 C   0  0  0  0  0  0  0  0  0  0  0  0
    7.8809   12.4552   25.2580 C   0  0  0  0  0  0  0  0  0  0  0  0
    8.2739   10.1054   24.8570 C   0  0  0  0  0  0  0  0  0  0  0  0
    8.8278   12.7794   24.2865 C   0  0  0  0  0  0  0  0  0  0  0  0
    9.2208   10.4295   23.8854 C   0  0  0  0  0  0  0  0  0  0  0  0
    9.4978   11.7665   23.6002 C   0  0  0  0  0  0  0  0  0  0  0  0
   11.7355   14.0649   23.3154 C   0  0  0  0  0  0  0  0  0  0  0  0
   10.7680   13.4728   22.2960 C   0  0  0  0  0  0  0  0  0  0  0  0
   12.3363   16.5666   22.7663 N   0  0  0  0  0  0  0  0  0  0  0  0
    9.8867    9.3879   23.2016 N   0  0  0  0  0  0  0  0  0  0  0  0
   10.4531   12.1173   22.6201 N   0  0  0  0  0  0  0  0  0  0  0  0
    6.8670   10.8659   26.3001 H   0  0  0  0  0  0  0  0  0  0  0  0
    7.3598   13.2437   25.7930 H   0  0  0  0  0  0  0  0  0  0  0  0
    8.0493    9.0671   25.0878 H   0  0  0  0  0  0  0  0  0  0  0  0
    9.0357   13.8249   24.0733 H   0  0  0  0  0  0  0  0  0  0  0  0
   11.2746   14.0214   24.3091 H   0  0  0  0  0  0  0  0  0  0  0  0
   12.6534   13.4672   23.3607 H   0  0  0  0  0  0  0  0  0  0  0  0
    9.8397   14.0534   22.2915 H   0  0  0  0  0  0  0  0  0  0  0  0
   11.1906   13.5153   21.2860 H   0  0  0  0  0  0  0  0  0  0  0  0
    9.7011    8.4411   23.4600 H   0  0  0  0  0  0  0  0  0  0  0  0
   10.5982    9.6191   22.5399 H   0  0  0  0  0  0  0  0  0  0  0  0
   10.9129   11.3638   22.1472 H   0  0  0  0  0  0  0  0  0  0  0  0
  1  8  1  0  0  0  0
  1 10  3  0  0  0  0
  2  3  1  0  0  0  0
  2  4  2  0  0  0  0
  3  5  2  0  0  0  0
  4  6  1  0  0  0  0
  5  7  1  0  0  0  0
  6  7  2  0  0  0  0
  6 11  1  0  0  0  0
  7 12  1  0  0  0  0
  8  9  1  0  0  0  0
  9 12  1  0  0  0  0
  2 13  1  0  0  0  0
  3 14  1  0  0  0  0
  4 15  1  0  0  0  0
  5 16  1  0  0  0  0
  8 17  1  0  0  0  0
  8 18  1  0  0  0  0
  9 19  1  0  0  0  0
  9 20  1  0  0  0  0
 11 21  1  0  0  0  0
 11 22  1  0  0  0  0
 12 23  1  0  0  0  0
M  END
> <id>
EN300-7854088

> <smiles>
NC=1C=CC=CC1NCCC#N

> <MDLNUMBER>
MFCD20272382

> <IUPAC Name>
3-[(2-aminophenyl)amino]propanenitrile

> <CAS>
98997-02-5

> <Purity>
95

> <URL>
https://www.enaminestore.com/catalog/EN300-7854088

> <MP>
117-119

> <ROCS_ShapeQuery>
_x1140_x0812_0A_x1140_0A_x1097_0A_x0365_0A_x1097_0A_x0310_0A

> <ROCS_TanimotoCombo>
0.646 

> <ROCS_ShapeTanimoto>
0.210 

> <ROCS_ColorTanimoto>
0.436 

> <ROCS_RefTversky>
0.191 

> <ROCS_RefColorTversky>
0.503 

> <ROCS_RefTverskyCombo>
0.694 

> <ROCS_FitTversky>
1.919 

> <ROCS_FitColorTversky>
0.766 

> <ROCS_FitTverskyCombo>
2.685 

> <ROCS_ColorScore>
-3.948

> <ROCS_Overlap>
1957.055

> <ROCS_Rank>
41                  

$$$$
untitled-dbase-489556_1
  -OEChem-02092423213D

 32 33  0     0  0  0  0  0  0999 V2000
    8.4583   12.5413   24.1982 C   0  0  0  0  0  0  0  0  0  0  0  0
    9.2268   11.5888   23.5329 C   0  0  0  0  0  0  0  0  0  0  0  0
    7.5673   12.0997   25.1550 C   0  0  0  0  0  0  0  0  0  0  0  0
    7.4835   10.7378   25.4239 C   0  0  0  0  0  0  0  0  0  0  0  0
    9.0671   10.2449   23.8718 C   0  0  0  0  0  0  0  0  0  0  0  0
   10.1693   12.0305   22.5135 C   0  0  0  0  0  0  0  0  0  0  0  0
    6.6546   12.8855   26.0351 C   0  0  0  0  0  0  0  0  0  0  0  0
    6.5008   10.4739   26.5284 C   0  0  0  0  0  0  0  0  0  0  0  0
    5.6997   11.7845   26.5251 C   0  0  0  0  0  0  0  0  0  0  0  0
   10.7242    7.1242   22.5899 C   0  0  0  0  0  0  0  0  0  0  0  0
   12.0883   13.3898   22.1238 C   0  0  0  0  0  0  0  0  0  0  0  0
    9.7782    7.8907   23.4503 C   0  0  0  0  0  0  0  0  0  0  0  0
    8.2096    9.7860   24.8149 N   0  0  0  0  0  0  0  0  0  0  0  0
    9.8593    9.2891   23.1849 N   0  0  0  0  0  0  0  0  0  0  0  0
   10.1301   11.6796   21.3282 O   0  0  0  0  0  0  0  0  0  0  0  0
   11.1035   12.8839   23.0315 O   0  0  0  0  0  0  0  0  0  0  0  0
    8.5542   13.5994   23.9766 H   0  0  0  0  0  0  0  0  0  0  0  0
    7.2148   13.3225   26.8680 H   0  0  0  0  0  0  0  0  0  0  0  0
    6.1166   13.6674   25.4921 H   0  0  0  0  0  0  0  0  0  0  0  0
    5.8675    9.6071   26.3228 H   0  0  0  0  0  0  0  0  0  0  0  0
    7.0333   10.3361   27.4748 H   0  0  0  0  0  0  0  0  0  0  0  0
    5.2669   12.0125   27.5042 H   0  0  0  0  0  0  0  0  0  0  0  0
    4.8645   11.6929   25.8166 H   0  0  0  0  0  0  0  0  0  0  0  0
   11.7528    7.4628   22.7829 H   0  0  0  0  0  0  0  0  0  0  0  0
   10.6422    6.0517   22.8201 H   0  0  0  0  0  0  0  0  0  0  0  0
   10.4755    7.2921   21.5317 H   0  0  0  0  0  0  0  0  0  0  0  0
   12.7703   14.0552   22.6588 H   0  0  0  0  0  0  0  0  0  0  0  0
   11.5940   13.9318   21.3136 H   0  0  0  0  0  0  0  0  0  0  0  0
   12.6522   12.5516   21.7078 H   0  0  0  0  0  0  0  0  0  0  0  0
    8.7526    7.5464   23.2515 H   0  0  0  0  0  0  0  0  0  0  0  0
   10.0272    7.7107   24.5065 H   0  0  0  0  0  0  0  0  0  0  0  0
   10.4888    9.6441   22.4955 H   0  0  0  0  0  0  0  0  0  0  0  0
  1  2  1  0  0  0  0
  1  3  2  0  0  0  0
  2  5  2  0  0  0  0
  2  6  1  0  0  0  0
  3  4  1  0  0  0  0
  3  7  1  0  0  0  0
  4  8  1  0  0  0  0
  4 13  2  0  0  0  0
  5 13  1  0  0  0  0
  5 14  1  0  0  0  0
  6 15  2  0  0  0  0
  6 16  1  0  0  0  0
  7  9  1  0  0  0  0
  8  9  1  0  0  0  0
 10 12  1  0  0  0  0
 11 16  1  0  0  0  0
 12 14  1  0  0  0  0
  1 17  1  0  0  0  0
  7 18  1  0  0  0  0
  7 19  1  0  0  0  0
  8 20  1  0  0  0  0
  8 21  1  0  0  0  0
  9 22  1  0  0  0  0
  9 23  1  0  0  0  0
 10 24  1  0  0  0  0
 10 25  1  0  0  0  0
 10 26  1  0  0  0  0
 11 27  1  0  0  0  0
 11 28  1  0  0  0  0
 11 29  1  0  0  0  0
 12 30  1  0  0  0  0
 12 31  1  0  0  0  0
 14 32  1  0  0  0  0
M  END
> <id>
EN300-27783505

> <smiles>
CCNC=1N=C2CCCC2=CC1C(=O)OC

> <IUPAC Name>
methyl 2-(ethylamino)-5H,6H,7H-cyclopenta[b]pyridine-3-carboxylate

> <CAS>
2639448-81-8

> <URL>
https://www.enaminestore.com/catalog/EN300-27783505

> <ROCS_ShapeQuery>
_x1140_x0812_0A_x1140_0A_x1097_0A_x0365_0A_x1097_0A_x0310_0A

> <ROCS_TanimotoCombo>
0.646 

> <ROCS_ShapeTanimoto>
0.274 

> <ROCS_ColorTanimoto>
0.373 

> <ROCS_RefTversky>
0.240 

> <ROCS_RefColorTversky>
0.450 

> <ROCS_RefTverskyCombo>
0.690 

> <ROCS_FitTversky>
2.026 

> <ROCS_FitColorTversky>
0.684 

> <ROCS_FitTverskyCombo>
2.710 

> <ROCS_ColorScore>
-3.534

> <ROCS_Overlap>
2465.785

> <ROCS_Rank>
42                  

$$$$
untitled-dbase-120485_3
  -OEChem-02092423213D

 36 37  0     0  0  0  0  0  0999 V2000
    6.8674   10.1105   26.4242 C   0  0  0  0  0  0  0  0  0  0  0  0
    6.4101   10.8908   27.4891 C   0  0  0  0  0  0  0  0  0  0  0  0
    8.9396   12.5114   24.5683 C   0  0  0  0  0  0  0  0  0  0  0  0
    7.6335   12.7703   26.6246 C   0  0  0  0  0  0  0  0  0  0  0  0
    8.0933   11.9853   25.5536 C   0  0  0  0  0  0  0  0  0  0  0  0
    7.7080   10.6326   25.4450 C   0  0  0  0  0  0  0  0  0  0  0  0
    9.3763   11.7102   23.5231 C   0  0  0  0  0  0  0  0  0  0  0  0
    6.7934   12.2224   27.5897 C   0  0  0  0  0  0  0  0  0  0  0  0
    8.9462   10.3990   23.5015 C   0  0  0  0  0  0  0  0  0  0  0  0
   11.5912    9.2554   21.2286 C   0  0  0  0  0  0  0  0  0  0  0  0
   11.5830    9.4939   23.7118 C   0  0  0  0  0  0  0  0  0  0  0  0
   10.8023    7.3618   22.6483 C   0  0  0  0  0  0  0  0  0  0  0  0
    9.3767    9.4792   22.4052 C   0  0  0  0  0  0  0  0  0  0  0  0
   10.8215    8.8946   22.5168 C   0  0  0  0  0  0  0  0  0  0  0  0
    8.1302    9.8527   24.4319 N   0  0  0  0  0  0  0  0  0  0  0  0
   10.8763   13.4381   22.6943 N   0  0  0  0  0  0  0  0  0  0  0  0
   10.2251   12.2345   22.5333 N   0  0  0  0  0  0  0  0  0  0  0  0
    6.3575   12.9742   28.6087 F   0  0  0  0  0  0  0  0  0  0  0  0
    6.5523    9.0700   26.3691 H   0  0  0  0  0  0  0  0  0  0  0  0
    5.7551   10.4550   28.2377 H   0  0  0  0  0  0  0  0  0  0  0  0
    9.2572   13.5514   24.6201 H   0  0  0  0  0  0  0  0  0  0  0  0
    7.9273   13.8139   26.7132 H   0  0  0  0  0  0  0  0  0  0  0  0
   11.0902    8.8511   20.3417 H   0  0  0  0  0  0  0  0  0  0  0  0
   11.6666   10.3412   21.1002 H   0  0  0  0  0  0  0  0  0  0  0  0
   12.6102    8.8525   21.2502 H   0  0  0  0  0  0  0  0  0  0  0  0
   11.0777    9.2669   24.6571 H   0  0  0  0  0  0  0  0  0  0  0  0
   12.6075    9.1126   23.7733 H   0  0  0  0  0  0  0  0  0  0  0  0
   11.6516   10.5848   23.6271 H   0  0  0  0  0  0  0  0  0  0  0  0
   10.2647    7.0512   23.5518 H   0  0  0  0  0  0  0  0  0  0  0  0
   10.3008    6.8871   21.7986 H   0  0  0  0  0  0  0  0  0  0  0  0
   11.8184    6.9574   22.7131 H   0  0  0  0  0  0  0  0  0  0  0  0
    9.2864    9.9974   21.4328 H   0  0  0  0  0  0  0  0  0  0  0  0
    8.6658    8.6358   22.3314 H   0  0  0  0  0  0  0  0  0  0  0  0
   10.8030   13.9629   21.8241 H   0  0  0  0  0  0  0  0  0  0  0  0
   11.8696   13.2537   22.8286 H   0  0  0  0  0  0  0  0  0  0  0  0
   10.5248   11.6223   21.7848 H   0  0  0  0  0  0  0  0  0  0  0  0
  1  2  2  0  0  0  0
  1  6  1  0  0  0  0
  2  8  1  0  0  0  0
  3  5  2  0  0  0  0
  3  7  1  0  0  0  0
  4  5  1  0  0  0  0
  4  8  2  0  0  0  0
  5  6  1  0  0  0  0
  6 15  2  0  0  0  0
  7  9  2  0  0  0  0
  7 17  1  0  0  0  0
  8 18  1  0  0  0  0
  9 13  1  0  0  0  0
  9 15  1  0  0  0  0
 10 14  1  0  0  0  0
 11 14  1  0  0  0  0
 12 14  1  0  0  0  0
 13 14  1  0  0  0  0
 16 17  1  0  0  0  0
  1 19  1  0  0  0  0
  2 20  1  0  0  0  0
  3 21  1  0  0  0  0
  4 22  1  0  0  0  0
 10 23  1  0  0  0  0
 10 24  1  0  0  0  0
 10 25  1  0  0  0  0
 11 26  1  0  0  0  0
 11 27  1  0  0  0  0
 11 28  1  0  0  0  0
 12 29  1  0  0  0  0
 12 30  1  0  0  0  0
 12 31  1  0  0  0  0
 13 32  1  0  0  0  0
 13 33  1  0  0  0  0
 16 34  1  0  0  0  0
 16 35  1  0  0  0  0
 17 36  1  0  0  0  0
M  END
> <id>
EN300-801649

> <smiles>
CC(C)(C)CC=1N=C2C=CC(F)=CC2=CC1NN

> <IUPAC Name>
2-(2,2-dimethylpropyl)-6-fluoro-3-hydrazinylquinoline

> <CAS>
2138012-26-5

> <URL>
https://www.enaminestore.com/catalog/EN300-801649

> <ROCS_ShapeQuery>
_x1140_x0812_0A_x1140_0A_x1097_0A_x0365_0A_x1097_0A_x0310_0A

> <ROCS_TanimotoCombo>
0.646 

> <ROCS_ShapeTanimoto>
0.254 

> <ROCS_ColorTanimoto>
0.392 

> <ROCS_RefTversky>
0.228 

> <ROCS_RefColorTversky>
0.509 

> <ROCS_RefTverskyCombo>
0.737 

> <ROCS_FitTversky>
1.802 

> <ROCS_FitColorTversky>
0.631 

> <ROCS_FitTverskyCombo>
2.433 

> <ROCS_ColorScore>
-4.031

> <ROCS_Overlap>
2340.650

> <ROCS_Rank>
43                  

$$$$
untitled-dbase-536412_3
  -OEChem-02092423213D

 36 37  0     0  0  0  0  0  0999 V2000
    7.6359   12.7708   26.6268 C   0  0  0  0  0  0  0  0  0  0  0  0
    6.7963   12.2229   27.5923 C   0  0  0  0  0  0  0  0  0  0  0  0
    8.9405   12.5120   24.5695 C   0  0  0  0  0  0  0  0  0  0  0  0
    6.8690   10.1112   26.4264 C   0  0  0  0  0  0  0  0  0  0  0  0
    8.0947   11.9859   25.5553 C   0  0  0  0  0  0  0  0  0  0  0  0
    7.7091   10.6333   25.4467 C   0  0  0  0  0  0  0  0  0  0  0  0
    9.3763   11.7109   23.5238 C   0  0  0  0  0  0  0  0  0  0  0  0
    6.4126   10.8914   27.4917 C   0  0  0  0  0  0  0  0  0  0  0  0
    8.9458   10.3998   23.5022 C   0  0  0  0  0  0  0  0  0  0  0  0
   11.5904    9.2557   21.2290 C   0  0  0  0  0  0  0  0  0  0  0  0
   11.5825    9.4942   23.7122 C   0  0  0  0  0  0  0  0  0  0  0  0
   10.8012    7.3622   22.6487 C   0  0  0  0  0  0  0  0  0  0  0  0
    9.3760    9.4800   22.4059 C   0  0  0  0  0  0  0  0  0  0  0  0
   10.8208    8.8950   22.5172 C   0  0  0  0  0  0  0  0  0  0  0  0
    8.1304    9.8535   24.4331 N   0  0  0  0  0  0  0  0  0  0  0  0
   10.8764   13.4384   22.6945 N   0  0  0  0  0  0  0  0  0  0  0  0
   10.2247   12.2351   22.5337 N   0  0  0  0  0  0  0  0  0  0  0  0
    5.6059   10.3541   28.4163 F   0  0  0  0  0  0  0  0  0  0  0  0
    7.9304   13.8143   26.7153 H   0  0  0  0  0  0  0  0  0  0  0  0
    6.4450   12.8312   28.4198 H   0  0  0  0  0  0  0  0  0  0  0  0
    9.2594   13.5513   24.6224 H   0  0  0  0  0  0  0  0  0  0  0  0
    6.5537    9.0709   26.3703 H   0  0  0  0  0  0  0  0  0  0  0  0
   11.0891    8.8516   20.3422 H   0  0  0  0  0  0  0  0  0  0  0  0
   11.6660   10.3415   21.1007 H   0  0  0  0  0  0  0  0  0  0  0  0
   12.6093    8.8526   21.2505 H   0  0  0  0  0  0  0  0  0  0  0  0
   11.0773    9.2672   24.6575 H   0  0  0  0  0  0  0  0  0  0  0  0
   12.6069    9.1126   23.7735 H   0  0  0  0  0  0  0  0  0  0  0  0
   11.6513   10.5850   23.6275 H   0  0  0  0  0  0  0  0  0  0  0  0
   10.2636    7.0518   23.5523 H   0  0  0  0  0  0  0  0  0  0  0  0
   10.2995    6.8877   21.7991 H   0  0  0  0  0  0  0  0  0  0  0  0
   11.8173    6.9576   22.7134 H   0  0  0  0  0  0  0  0  0  0  0  0
    9.2858    9.9983   21.4334 H   0  0  0  0  0  0  0  0  0  0  0  0
    8.6649    8.6367   22.3321 H   0  0  0  0  0  0  0  0  0  0  0  0
   10.8029   13.9634   21.8243 H   0  0  0  0  0  0  0  0  0  0  0  0
   11.8698   13.2536   22.8281 H   0  0  0  0  0  0  0  0  0  0  0  0
   10.5237   11.6229   21.7848 H   0  0  0  0  0  0  0  0  0  0  0  0
  1  2  2  0  0  0  0
  1  5  1  0  0  0  0
  2  8  1  0  0  0  0
  3  5  2  0  0  0  0
  3  7  1  0  0  0  0
  4  6  1  0  0  0  0
  4  8  2  0  0  0  0
  5  6  1  0  0  0  0
  6 15  2  0  0  0  0
  7  9  2  0  0  0  0
  7 17  1  0  0  0  0
  8 18  1  0  0  0  0
  9 13  1  0  0  0  0
  9 15  1  0  0  0  0
 10 14  1  0  0  0  0
 11 14  1  0  0  0  0
 12 14  1  0  0  0  0
 13 14  1  0  0  0  0
 16 17  1  0  0  0  0
  1 19  1  0  0  0  0
  2 20  1  0  0  0  0
  3 21  1  0  0  0  0
  4 22  1  0  0  0  0
 10 23  1  0  0  0  0
 10 24  1  0  0  0  0
 10 25  1  0  0  0  0
 11 26  1  0  0  0  0
 11 27  1  0  0  0  0
 11 28  1  0  0  0  0
 12 29  1  0  0  0  0
 12 30  1  0  0  0  0
 12 31  1  0  0  0  0
 13 32  1  0  0  0  0
 13 33  1  0  0  0  0
 16 34  1  0  0  0  0
 16 35  1  0  0  0  0
 17 36  1  0  0  0  0
M  END
> <id>
EN300-801735

> <smiles>
CC(C)(C)CC=1N=C2C=C(F)C=CC2=CC1NN

> <IUPAC Name>
2-(2,2-dimethylpropyl)-7-fluoro-3-hydrazinylquinoline

> <CAS>
2137599-01-8

> <URL>
https://www.enaminestore.com/catalog/EN300-801735

> <ROCS_ShapeQuery>
_x1140_x0812_0A_x1140_0A_x1097_0A_x0365_0A_x1097_0A_x0310_0A

> <ROCS_TanimotoCombo>
0.646 

> <ROCS_ShapeTanimoto>
0.254 

> <ROCS_ColorTanimoto>
0.392 

> <ROCS_RefTversky>
0.228 

> <ROCS_RefColorTversky>
0.509 

> <ROCS_RefTverskyCombo>
0.737 

> <ROCS_FitTversky>
1.802 

> <ROCS_FitColorTversky>
0.631 

> <ROCS_FitTverskyCombo>
2.433 

> <ROCS_ColorScore>
-4.031

> <ROCS_Overlap>
2339.902

> <ROCS_Rank>
44                  

$$$$
untitled-dbase-460716_3
  -OEChem-02092423213D

 36 37  0     0  0  0  0  0  0999 V2000
    6.4947   11.0410   27.4695 C   0  0  0  0  0  0  0  0  0  0  0  0
    6.9406   10.2195   26.4311 C   0  0  0  0  0  0  0  0  0  0  0  0
    7.6764   12.8946   26.4975 C   0  0  0  0  0  0  0  0  0  0  0  0
    8.9445   12.5597   24.4284 C   0  0  0  0  0  0  0  0  0  0  0  0
    8.1247   12.0681   25.4532 C   0  0  0  0  0  0  0  0  0  0  0  0
    6.8629   12.3803   27.5030 C   0  0  0  0  0  0  0  0  0  0  0  0
    7.7548   10.7074   25.4126 C   0  0  0  0  0  0  0  0  0  0  0  0
    9.3704   11.7180   23.4110 C   0  0  0  0  0  0  0  0  0  0  0  0
    8.9568   10.4021   23.4563 C   0  0  0  0  0  0  0  0  0  0  0  0
    6.3897   13.2607   28.6089 C   0  0  0  0  0  0  0  0  0  0  0  0
   11.7639    9.7818   21.6430 C   0  0  0  0  0  0  0  0  0  0  0  0
   11.3499    8.9203   23.9473 C   0  0  0  0  0  0  0  0  0  0  0  0
   10.9330    7.4507   21.9590 C   0  0  0  0  0  0  0  0  0  0  0  0
    9.3821    9.4470   22.3897 C   0  0  0  0  0  0  0  0  0  0  0  0
   10.8383    8.8892   22.4967 C   0  0  0  0  0  0  0  0  0  0  0  0
    8.1666    9.8882   24.4266 N   0  0  0  0  0  0  0  0  0  0  0  0
   10.1640   12.1902   22.4171 O   0  0  0  0  0  0  0  0  0  0  0  0
    5.8602   10.6223   28.2461 H   0  0  0  0  0  0  0  0  0  0  0  0
    6.6381    9.1739   26.4276 H   0  0  0  0  0  0  0  0  0  0  0  0
    7.9641   13.9440   26.5252 H   0  0  0  0  0  0  0  0  0  0  0  0
    9.2523   13.6034   24.4231 H   0  0  0  0  0  0  0  0  0  0  0  0
    7.1021   13.2437   29.4431 H   0  0  0  0  0  0  0  0  0  0  0  0
    6.2750   14.2992   28.2712 H   0  0  0  0  0  0  0  0  0  0  0  0
    5.4087   12.9391   28.9832 H   0  0  0  0  0  0  0  0  0  0  0  0
   11.4436    9.7959   20.5950 H   0  0  0  0  0  0  0  0  0  0  0  0
   11.7630   10.8167   22.0036 H   0  0  0  0  0  0  0  0  0  0  0  0
   12.7984    9.4214   21.6721 H   0  0  0  0  0  0  0  0  0  0  0  0
   10.7260    8.3000   24.6003 H   0  0  0  0  0  0  0  0  0  0  0  0
   12.3818    8.5621   24.0219 H   0  0  0  0  0  0  0  0  0  0  0  0
   11.3352    9.9408   24.3476 H   0  0  0  0  0  0  0  0  0  0  0  0
   10.2910    6.7730   22.5338 H   0  0  0  0  0  0  0  0  0  0  0  0
   10.6127    7.3854   20.9141 H   0  0  0  0  0  0  0  0  0  0  0  0
   11.9582    7.0702   22.0254 H   0  0  0  0  0  0  0  0  0  0  0  0
    9.2662    9.9245   21.3990 H   0  0  0  0  0  0  0  0  0  0  0  0
    8.6840    8.5899   22.3617 H   0  0  0  0  0  0  0  0  0  0  0  0
   10.3514   13.1347   22.5504 H   0  0  0  0  0  0  0  0  0  0  0  0
  1  2  2  0  0  0  0
  1  6  1  0  0  0  0
  2  7  1  0  0  0  0
  3  5  1  0  0  0  0
  3  6  2  0  0  0  0
  4  5  1  0  0  0  0
  4  8  2  0  0  0  0
  5  7  2  0  0  0  0
  6 10  1  0  0  0  0
  7 16  1  0  0  0  0
  8  9  1  0  0  0  0
  8 17  1  0  0  0  0
  9 14  1  0  0  0  0
  9 16  2  0  0  0  0
 11 15  1  0  0  0  0
 12 15  1  0  0  0  0
 13 15  1  0  0  0  0
 14 15  1  0  0  0  0
  1 18  1  0  0  0  0
  2 19  1  0  0  0  0
  3 20  1  0  0  0  0
  4 21  1  0  0  0  0
 10 22  1  0  0  0  0
 10 23  1  0  0  0  0
 10 24  1  0  0  0  0
 11 25  1  0  0  0  0
 11 26  1  0  0  0  0
 11 27  1  0  0  0  0
 12 28  1  0  0  0  0
 12 29  1  0  0  0  0
 12 30  1  0  0  0  0
 13 31  1  0  0  0  0
 13 32  1  0  0  0  0
 13 33  1  0  0  0  0
 14 34  1  0  0  0  0
 14 35  1  0  0  0  0
 17 36  1  0  0  0  0
M  END
> <id>
EN300-801151

> <smiles>
CC=1C=CC=2N=C(CC(C)(C)C)C(O)=CC2C1

> <MDLNUMBER>
MFCD31601283

> <IUPAC Name>
2-(2,2-dimethylpropyl)-6-methylquinolin-3-ol

> <CAS>
2137760-98-4

> <URL>
https://www.enaminestore.com/catalog/EN300-801151

> <ROCS_ShapeQuery>
_x1140_x0812_0A_x1140_0A_x1097_0A_x0365_0A_x1097_0A_x0310_0A

> <ROCS_TanimotoCombo>
0.646 

> <ROCS_ShapeTanimoto>
0.240 

> <ROCS_ColorTanimoto>
0.406 

> <ROCS_RefTversky>
0.217 

> <ROCS_RefColorTversky>
0.512 

> <ROCS_RefTverskyCombo>
0.729 

> <ROCS_FitTversky>
1.775 

> <ROCS_FitColorTversky>
0.663 

> <ROCS_FitTverskyCombo>
2.438 

> <ROCS_ColorScore>
-4.046

> <ROCS_Overlap>
2227.176

> <ROCS_Rank>
45                  

$$$$
untitled-dbase-295829_2
  -OEChem-02092423213D

 19 19  0     0  0  0  0  0  0999 V2000
    8.0731   12.0935   25.2691 C   0  0  0  0  0  0  0  0  0  0  0  0
    8.9104   12.4919   24.2331 C   0  0  0  0  0  0  0  0  0  0  0  0
    7.7500   10.7493   25.3615 C   0  0  0  0  0  0  0  0  0  0  0  0
    9.3923   11.5474   23.3337 C   0  0  0  0  0  0  0  0  0  0  0  0
    9.0103   10.2276   23.5128 C   0  0  0  0  0  0  0  0  0  0  0  0
   11.0184    9.0900   22.5329 C   0  0  0  0  0  0  0  0  0  0  0  0
    9.4956    9.1667   22.5789 C   0  0  0  0  0  0  0  0  0  0  0  0
    8.1986    9.8027   24.5069 N   0  0  0  0  0  0  0  0  0  0  0  0
   10.2397   11.9402   22.2824 N   0  0  0  0  0  0  0  0  0  0  0  0
    7.6855   12.8123   25.9819 H   0  0  0  0  0  0  0  0  0  0  0  0
    9.1805   13.5402   24.1362 H   0  0  0  0  0  0  0  0  0  0  0  0
    7.1004   10.3873   26.1515 H   0  0  0  0  0  0  0  0  0  0  0  0
   11.4524   10.0526   22.2417 H   0  0  0  0  0  0  0  0  0  0  0  0
   11.3449    8.3377   21.8082 H   0  0  0  0  0  0  0  0  0  0  0  0
   11.4286    8.8189   23.5116 H   0  0  0  0  0  0  0  0  0  0  0  0
    9.0926    8.1857   22.8740 H   0  0  0  0  0  0  0  0  0  0  0  0
    9.1114    9.3481   21.5633 H   0  0  0  0  0  0  0  0  0  0  0  0
   10.4541   12.9113   22.1600 H   0  0  0  0  0  0  0  0  0  0  0  0
   10.5421   11.2582   21.6135 H   0  0  0  0  0  0  0  0  0  0  0  0
  1  2  2  0  0  0  0
  1  3  1  0  0  0  0
  2  4  1  0  0  0  0
  3  8  2  0  0  0  0
  4  5  2  0  0  0  0
  4  9  1  0  0  0  0
  5  7  1  0  0  0  0
  5  8  1  0  0  0  0
  6  7  1  0  0  0  0
  1 10  1  0  0  0  0
  2 11  1  0  0  0  0
  3 12  1  0  0  0  0
  6 13  1  0  0  0  0
  6 14  1  0  0  0  0
  6 15  1  0  0  0  0
  7 16  1  0  0  0  0
  7 17  1  0  0  0  0
  9 18  1  0  0  0  0
  9 19  1  0  0  0  0
M  END
> <id>
EN300-266003

> <smiles>
CCC=1N=CC=CC1N

> <MDLNUMBER>
MFCD18384210

> <IUPAC Name>
2-ethylpyridin-3-amine

> <CAS>
861393-64-8

> <Purity>
95

> <URL>
https://www.enaminestore.com/catalog/EN300-266003

> <ROCS_ShapeQuery>
_x1140_x0812_0A_x1140_0A_x1097_0A_x0365_0A_x1097_0A_x0310_0A

> <ROCS_TanimotoCombo>
0.646 

> <ROCS_ShapeTanimoto>
0.188 

> <ROCS_ColorTanimoto>
0.458 

> <ROCS_RefTversky>
0.172 

> <ROCS_RefColorTversky>
0.520 

> <ROCS_RefTverskyCombo>
0.692 

> <ROCS_FitTversky>
1.955 

> <ROCS_FitColorTversky>
0.793 

> <ROCS_FitTverskyCombo>
2.747 

> <ROCS_ColorScore>
-4.082

> <ROCS_Overlap>
1765.872

> <ROCS_Rank>
46                  

$$$$
untitled-dbase-119657_3
  -OEChem-02092423213D

 33 34  0     0  0  0  0  0  0999 V2000
    7.6731   12.8963   26.4962 C   0  0  0  0  0  0  0  0  0  0  0  0
    6.8592   12.3824   27.5016 C   0  0  0  0  0  0  0  0  0  0  0  0
    8.9428   12.5603   24.4282 C   0  0  0  0  0  0  0  0  0  0  0  0
    6.9391   10.2207   26.4318 C   0  0  0  0  0  0  0  0  0  0  0  0
    8.1227   12.0691   25.4529 C   0  0  0  0  0  0  0  0  0  0  0  0
    7.7537   10.7082   25.4134 C   0  0  0  0  0  0  0  0  0  0  0  0
    9.3700   11.7179   23.4119 C   0  0  0  0  0  0  0  0  0  0  0  0
    6.4920   11.0429   27.4690 C   0  0  0  0  0  0  0  0  0  0  0  0
    8.9572   10.4018   23.4582 C   0  0  0  0  0  0  0  0  0  0  0  0
   11.7617    9.7828   21.6404 C   0  0  0  0  0  0  0  0  0  0  0  0
   11.3520    8.9215   23.9455 C   0  0  0  0  0  0  0  0  0  0  0  0
   10.9328    7.4513   21.9582 C   0  0  0  0  0  0  0  0  0  0  0  0
    9.3814    9.4467   22.3911 C   0  0  0  0  0  0  0  0  0  0  0  0
   10.8381    8.8898   22.4957 C   0  0  0  0  0  0  0  0  0  0  0  0
    8.1668    9.8883   24.4285 N   0  0  0  0  0  0  0  0  0  0  0  0
   10.1647   12.1890   22.4184 O   0  0  0  0  0  0  0  0  0  0  0  0
    5.4862   10.3952   28.7064 Cl  0  0  0  0  0  0  0  0  0  0  0  0
    7.9554   13.9463   26.5315 H   0  0  0  0  0  0  0  0  0  0  0  0
    6.5212   13.0372   28.3002 H   0  0  0  0  0  0  0  0  0  0  0  0
    9.2492   13.6044   24.4228 H   0  0  0  0  0  0  0  0  0  0  0  0
    6.6465    9.1715   26.4165 H   0  0  0  0  0  0  0  0  0  0  0  0
   11.4397    9.7966   20.5930 H   0  0  0  0  0  0  0  0  0  0  0  0
   11.7607   10.8178   22.0008 H   0  0  0  0  0  0  0  0  0  0  0  0
   12.7965    9.4231   21.6678 H   0  0  0  0  0  0  0  0  0  0  0  0
   10.7296    8.3009   24.5997 H   0  0  0  0  0  0  0  0  0  0  0  0
   12.3843    8.5640   24.0185 H   0  0  0  0  0  0  0  0  0  0  0  0
   11.3373    9.9421   24.3456 H   0  0  0  0  0  0  0  0  0  0  0  0
   10.2922    6.7733   22.5341 H   0  0  0  0  0  0  0  0  0  0  0  0
   10.6108    7.3857   20.9138 H   0  0  0  0  0  0  0  0  0  0  0  0
   11.9583    7.0715   22.0229 H   0  0  0  0  0  0  0  0  0  0  0  0
    9.2636    9.9239   21.4005 H   0  0  0  0  0  0  0  0  0  0  0  0
    8.6838    8.5892   22.3644 H   0  0  0  0  0  0  0  0  0  0  0  0
   10.3521   13.1336   22.5509 H   0  0  0  0  0  0  0  0  0  0  0  0
  1  2  2  0  0  0  0
  1  5  1  0  0  0  0
  2  8  1  0  0  0  0
  3  5  2  0  0  0  0
  3  7  1  0  0  0  0
  4  6  1  0  0  0  0
  4  8  2  0  0  0  0
  5  6  1  0  0  0  0
  6 15  2  0  0  0  0
  7  9  2  0  0  0  0
  7 16  1  0  0  0  0
  8 17  1  0  0  0  0
  9 13  1  0  0  0  0
  9 15  1  0  0  0  0
 10 14  1  0  0  0  0
 11 14  1  0  0  0  0
 12 14  1  0  0  0  0
 13 14  1  0  0  0  0
  1 18  1  0  0  0  0
  2 19  1  0  0  0  0
  3 20  1  0  0  0  0
  4 21  1  0  0  0  0
 10 22  1  0  0  0  0
 10 23  1  0  0  0  0
 10 24  1  0  0  0  0
 11 25  1  0  0  0  0
 11 26  1  0  0  0  0
 11 27  1  0  0  0  0
 12 28  1  0  0  0  0
 12 29  1  0  0  0  0
 12 30  1  0  0  0  0
 13 31  1  0  0  0  0
 13 32  1  0  0  0  0
 16 33  1  0  0  0  0
M  END
> <id>
EN300-801314

> <smiles>
CC(C)(C)CC=1N=C2C=C(Cl)C=CC2=CC1O

> <MDLNUMBER>
MFCD31601635

> <IUPAC Name>
7-chloro-2-(2,2-dimethylpropyl)quinolin-3-ol

> <CAS>
2137663-27-3

> <URL>
https://www.enaminestore.com/catalog/EN300-801314

> <ROCS_ShapeQuery>
_x1140_x0812_0A_x1140_0A_x1097_0A_x0365_0A_x1097_0A_x0310_0A

> <ROCS_TanimotoCombo>
0.646 

> <ROCS_ShapeTanimoto>
0.240 

> <ROCS_ColorTanimoto>
0.406 

> <ROCS_RefTversky>
0.217 

> <ROCS_RefColorTversky>
0.512 

> <ROCS_RefTverskyCombo>
0.729 

> <ROCS_FitTversky>
1.781 

> <ROCS_FitColorTversky>
0.663 

> <ROCS_FitTverskyCombo>
2.444 

> <ROCS_ColorScore>
-4.047

> <ROCS_Overlap>
2223.909

> <ROCS_Rank>
47                  

$$$$
untitled-dbase-119352_3
  -OEChem-02092423213D

 33 34  0     0  0  0  0  0  0999 V2000
    6.9405   10.2165   26.4288 C   0  0  0  0  0  0  0  0  0  0  0  0
    6.4939   11.0380   27.4668 C   0  0  0  0  0  0  0  0  0  0  0  0
    8.9407   12.5581   24.4240 C   0  0  0  0  0  0  0  0  0  0  0  0
    7.6729   12.8925   26.4934 C   0  0  0  0  0  0  0  0  0  0  0  0
    8.1219   12.0660   25.4495 C   0  0  0  0  0  0  0  0  0  0  0  0
    7.7537   10.7049   25.4098 C   0  0  0  0  0  0  0  0  0  0  0  0
    9.3674   11.7163   23.4070 C   0  0  0  0  0  0  0  0  0  0  0  0
    6.8603   12.3778   27.4995 C   0  0  0  0  0  0  0  0  0  0  0  0
    8.9554   10.3999   23.4533 C   0  0  0  0  0  0  0  0  0  0  0  0
   11.7633    9.7821   21.6403 C   0  0  0  0  0  0  0  0  0  0  0  0
   11.3505    8.9216   23.9452 C   0  0  0  0  0  0  0  0  0  0  0  0
   10.9355    7.4502   21.9579 C   0  0  0  0  0  0  0  0  0  0  0  0
    9.3820    9.4447   22.3873 C   0  0  0  0  0  0  0  0  0  0  0  0
   10.8389    8.8889   22.4946 C   0  0  0  0  0  0  0  0  0  0  0  0
    8.1663    9.8856   24.4242 N   0  0  0  0  0  0  0  0  0  0  0  0
   10.1617   12.1887   22.4139 O   0  0  0  0  0  0  0  0  0  0  0  0
    6.3131   13.3947   28.7740 Cl  0  0  0  0  0  0  0  0  0  0  0  0
    6.6387    9.1707   26.4262 H   0  0  0  0  0  0  0  0  0  0  0  0
    5.8604   10.6144   28.2420 H   0  0  0  0  0  0  0  0  0  0  0  0
    9.2465   13.6024   24.4180 H   0  0  0  0  0  0  0  0  0  0  0  0
    7.9626   13.9418   26.5157 H   0  0  0  0  0  0  0  0  0  0  0  0
   11.4430    9.7951   20.5923 H   0  0  0  0  0  0  0  0  0  0  0  0
   11.7611   10.8172   22.0002 H   0  0  0  0  0  0  0  0  0  0  0  0
   12.7983    9.4231   21.6696 H   0  0  0  0  0  0  0  0  0  0  0  0
   10.7275    8.3009   24.5986 H   0  0  0  0  0  0  0  0  0  0  0  0
   12.3829    8.5648   24.0200 H   0  0  0  0  0  0  0  0  0  0  0  0
   11.3345    9.9424   24.3448 H   0  0  0  0  0  0  0  0  0  0  0  0
   10.2944    6.7720   22.5331 H   0  0  0  0  0  0  0  0  0  0  0  0
   10.6152    7.3837   20.9130 H   0  0  0  0  0  0  0  0  0  0  0  0
   11.9612    7.0710   22.0244 H   0  0  0  0  0  0  0  0  0  0  0  0
    9.2655    9.9213   21.3963 H   0  0  0  0  0  0  0  0  0  0  0  0
    8.6851    8.5866   22.3599 H   0  0  0  0  0  0  0  0  0  0  0  0
   10.3490   13.1331   22.5474 H   0  0  0  0  0  0  0  0  0  0  0  0
  1  2  2  0  0  0  0
  1  6  1  0  0  0  0
  2  8  1  0  0  0  0
  3  5  2  0  0  0  0
  3  7  1  0  0  0  0
  4  5  1  0  0  0  0
  4  8  2  0  0  0  0
  5  6  1  0  0  0  0
  6 15  2  0  0  0  0
  7  9  2  0  0  0  0
  7 16  1  0  0  0  0
  8 17  1  0  0  0  0
  9 13  1  0  0  0  0
  9 15  1  0  0  0  0
 10 14  1  0  0  0  0
 11 14  1  0  0  0  0
 12 14  1  0  0  0  0
 13 14  1  0  0  0  0
  1 18  1  0  0  0  0
  2 19  1  0  0  0  0
  3 20  1  0  0  0  0
  4 21  1  0  0  0  0
 10 22  1  0  0  0  0
 10 23  1  0  0  0  0
 10 24  1  0  0  0  0
 11 25  1  0  0  0  0
 11 26  1  0  0  0  0
 11 27  1  0  0  0  0
 12 28  1  0  0  0  0
 12 29  1  0  0  0  0
 12 30  1  0  0  0  0
 13 31  1  0  0  0  0
 13 32  1  0  0  0  0
 16 33  1  0  0  0  0
M  END
> <id>
EN300-801059

> <smiles>
CC(C)(C)CC=1N=C2C=CC(Cl)=CC2=CC1O

> <MDLNUMBER>
MFCD31601215

> <IUPAC Name>
6-chloro-2-(2,2-dimethylpropyl)quinolin-3-ol

> <CAS>
2138418-53-6

> <URL>
https://www.enaminestore.com/catalog/EN300-801059

> <ROCS_ShapeQuery>
_x1140_x0812_0A_x1140_0A_x1097_0A_x0365_0A_x1097_0A_x0310_0A

> <ROCS_TanimotoCombo>
0.646 

> <ROCS_ShapeTanimoto>
0.240 

> <ROCS_ColorTanimoto>
0.406 

> <ROCS_RefTversky>
0.217 

> <ROCS_RefColorTversky>
0.512 

> <ROCS_RefTverskyCombo>
0.729 

> <ROCS_FitTversky>
1.781 

> <ROCS_FitColorTversky>
0.663 

> <ROCS_FitTverskyCombo>
2.444 

> <ROCS_ColorScore>
-4.046

> <ROCS_Overlap>
2224.061

> <ROCS_Rank>
48                  

$$$$
untitled-dbase-537008_3
  -OEChem-02092423213D

 39 40  0     0  0  0  0  0  0999 V2000
    6.4106   10.8892   27.4903 C   0  0  0  0  0  0  0  0  0  0  0  0
    6.8677   10.1094   26.4250 C   0  0  0  0  0  0  0  0  0  0  0  0
    7.6334   12.7693   26.6262 C   0  0  0  0  0  0  0  0  0  0  0  0
    8.9390   12.5113   24.5694 C   0  0  0  0  0  0  0  0  0  0  0  0
    8.0930   11.9848   25.5548 C   0  0  0  0  0  0  0  0  0  0  0  0
    6.7937   12.2209   27.5914 C   0  0  0  0  0  0  0  0  0  0  0  0
    7.7080   10.6321   25.4458 C   0  0  0  0  0  0  0  0  0  0  0  0
    9.3755   11.7106   23.5238 C   0  0  0  0  0  0  0  0  0  0  0  0
    8.9456   10.3994   23.5018 C   0  0  0  0  0  0  0  0  0  0  0  0
    6.3087   13.0568   28.7261 C   0  0  0  0  0  0  0  0  0  0  0  0
   11.5910    9.2568   21.2286 C   0  0  0  0  0  0  0  0  0  0  0  0
   11.5825    9.4947   23.7119 C   0  0  0  0  0  0  0  0  0  0  0  0
   10.8023    7.3627   22.6478 C   0  0  0  0  0  0  0  0  0  0  0  0
    9.3763    9.4800   22.4053 C   0  0  0  0  0  0  0  0  0  0  0  0
   10.8213    8.8955   22.5167 C   0  0  0  0  0  0  0  0  0  0  0  0
    8.1300    9.8526   24.4322 N   0  0  0  0  0  0  0  0  0  0  0  0
   10.8749   13.4391   22.6952 N   0  0  0  0  0  0  0  0  0  0  0  0
   10.2240   12.2355   22.5339 N   0  0  0  0  0  0  0  0  0  0  0  0
    5.7556   10.4442   28.2347 H   0  0  0  0  0  0  0  0  0  0  0  0
    6.5531    9.0689   26.3686 H   0  0  0  0  0  0  0  0  0  0  0  0
    7.9327   13.8127   26.7068 H   0  0  0  0  0  0  0  0  0  0  0  0
    9.2566   13.5513   24.6214 H   0  0  0  0  0  0  0  0  0  0  0  0
    7.0038   12.9935   29.5727 H   0  0  0  0  0  0  0  0  0  0  0  0
    6.2131   14.1108   28.4334 H   0  0  0  0  0  0  0  0  0  0  0  0
    5.3166   12.7312   29.0663 H   0  0  0  0  0  0  0  0  0  0  0  0
   11.0900    8.8527   20.3417 H   0  0  0  0  0  0  0  0  0  0  0  0
   11.6662   10.3427   21.1006 H   0  0  0  0  0  0  0  0  0  0  0  0
   12.6100    8.8542   21.2502 H   0  0  0  0  0  0  0  0  0  0  0  0
   11.0773    9.2672   24.6571 H   0  0  0  0  0  0  0  0  0  0  0  0
   12.6071    9.1135   23.7733 H   0  0  0  0  0  0  0  0  0  0  0  0
   11.6510   10.5856   23.6275 H   0  0  0  0  0  0  0  0  0  0  0  0
   10.2647    7.0518   23.5512 H   0  0  0  0  0  0  0  0  0  0  0  0
   10.3009    6.8882   21.7980 H   0  0  0  0  0  0  0  0  0  0  0  0
   11.8185    6.9584   22.7126 H   0  0  0  0  0  0  0  0  0  0  0  0
    9.2860    9.9984   21.4330 H   0  0  0  0  0  0  0  0  0  0  0  0
    8.6656    8.6364   22.3312 H   0  0  0  0  0  0  0  0  0  0  0  0
   10.8013   13.9642   21.8251 H   0  0  0  0  0  0  0  0  0  0  0  0
   11.8684   13.2549   22.8291 H   0  0  0  0  0  0  0  0  0  0  0  0
   10.5235   11.6236   21.7851 H   0  0  0  0  0  0  0  0  0  0  0  0
  1  2  2  0  0  0  0
  1  6  1  0  0  0  0
  2  7  1  0  0  0  0
  3  5  1  0  0  0  0
  3  6  2  0  0  0  0
  4  5  1  0  0  0  0
  4  8  2  0  0  0  0
  5  7  2  0  0  0  0
  6 10  1  0  0  0  0
  7 16  1  0  0  0  0
  8  9  1  0  0  0  0
  8 18  1  0  0  0  0
  9 14  1  0  0  0  0
  9 16  2  0  0  0  0
 11 15  1  0  0  0  0
 12 15  1  0  0  0  0
 13 15  1  0  0  0  0
 14 15  1  0  0  0  0
 17 18  1  0  0  0  0
  1 19  1  0  0  0  0
  2 20  1  0  0  0  0
  3 21  1  0  0  0  0
  4 22  1  0  0  0  0
 10 23  1  0  0  0  0
 10 24  1  0  0  0  0
 10 25  1  0  0  0  0
 11 26  1  0  0  0  0
 11 27  1  0  0  0  0
 11 28  1  0  0  0  0
 12 29  1  0  0  0  0
 12 30  1  0  0  0  0
 12 31  1  0  0  0  0
 13 32  1  0  0  0  0
 13 33  1  0  0  0  0
 13 34  1  0  0  0  0
 14 35  1  0  0  0  0
 14 36  1  0  0  0  0
 17 37  1  0  0  0  0
 17 38  1  0  0  0  0
 18 39  1  0  0  0  0
M  END
> <id>
EN300-801708

> <smiles>
CC=1C=CC=2N=C(CC(C)(C)C)C(NN)=CC2C1

> <IUPAC Name>
2-(2,2-dimethylpropyl)-3-hydrazinyl-6-methylquinoline

> <CAS>
2138380-58-0

> <URL>
https://www.enaminestore.com/catalog/EN300-801708

> <ROCS_ShapeQuery>
_x1140_x0812_0A_x1140_0A_x1097_0A_x0365_0A_x1097_0A_x0310_0A

> <ROCS_TanimotoCombo>
0.646 

> <ROCS_ShapeTanimoto>
0.254 

> <ROCS_ColorTanimoto>
0.392 

> <ROCS_RefTversky>
0.228 

> <ROCS_RefColorTversky>
0.509 

> <ROCS_RefTverskyCombo>
0.737 

> <ROCS_FitTversky>
1.806 

> <ROCS_FitColorTversky>
0.631 

> <ROCS_FitTverskyCombo>
2.437 

> <ROCS_ColorScore>
-4.031

> <ROCS_Overlap>
2336.993

> <ROCS_Rank>
49                  

$$$$
untitled-dbase-282645_5
  -OEChem-02092423213D

 22 22  0     0  0  0  0  0  0999 V2000
    7.5456   12.0908   25.1790 C   0  0  0  0  0  0  0  0  0  0  0  0
    8.4440   12.5129   24.2053 C   0  0  0  0  0  0  0  0  0  0  0  0
    7.4659   10.7330   25.4431 C   0  0  0  0  0  0  0  0  0  0  0  0
    9.2242   11.5774   23.5349 C   0  0  0  0  0  0  0  0  0  0  0  0
    9.0695   10.2426   23.8727 C   0  0  0  0  0  0  0  0  0  0  0  0
   10.1586   12.0290   22.5130 C   0  0  0  0  0  0  0  0  0  0  0  0
   11.2855    9.2977   23.2229 C   0  0  0  0  0  0  0  0  0  0  0  0
   12.0610   13.4103   22.1171 C   0  0  0  0  0  0  0  0  0  0  0  0
    8.2074    9.7946   24.8128 N   0  0  0  0  0  0  0  0  0  0  0  0
    9.8597    9.2824   23.1918 N   0  0  0  0  0  0  0  0  0  0  0  0
   10.1207   11.6770   21.3278 O   0  0  0  0  0  0  0  0  0  0  0  0
   11.0845   12.8937   23.0277 O   0  0  0  0  0  0  0  0  0  0  0  0
    6.9261   12.8023   25.7130 H   0  0  0  0  0  0  0  0  0  0  0  0
    8.5268   13.5723   23.9775 H   0  0  0  0  0  0  0  0  0  0  0  0
    6.7807   10.3527   26.1935 H   0  0  0  0  0  0  0  0  0  0  0  0
   11.6304   10.1418   23.8381 H   0  0  0  0  0  0  0  0  0  0  0  0
   11.6528    8.3551   23.6549 H   0  0  0  0  0  0  0  0  0  0  0  0
   11.6733    9.4075   22.1993 H   0  0  0  0  0  0  0  0  0  0  0  0
   12.7366   14.0840   22.6498 H   0  0  0  0  0  0  0  0  0  0  0  0
   11.5584   13.9460   21.3078 H   0  0  0  0  0  0  0  0  0  0  0  0
   12.6336   12.5784   21.7002 H   0  0  0  0  0  0  0  0  0  0  0  0
    9.3670    8.5812   22.6779 H   0  0  0  0  0  0  0  0  0  0  0  0
  1  2  2  0  0  0  0
  1  3  1  0  0  0  0
  2  4  1  0  0  0  0
  3  9  2  0  0  0  0
  4  5  2  0  0  0  0
  4  6  1  0  0  0  0
  5  9  1  0  0  0  0
  5 10  1  0  0  0  0
  6 11  2  0  0  0  0
  6 12  1  0  0  0  0
  7 10  1  0  0  0  0
  8 12  1  0  0  0  0
  1 13  1  0  0  0  0
  2 14  1  0  0  0  0
  3 15  1  0  0  0  0
  7 16  1  0  0  0  0
  7 17  1  0  0  0  0
  7 18  1  0  0  0  0
  8 19  1  0  0  0  0
  8 20  1  0  0  0  0
  8 21  1  0  0  0  0
 10 22  1  0  0  0  0
M  END
> <id>
EN300-3000494

> <smiles>
CNC=1N=CC=CC1C(=O)OC

> <MDLNUMBER>
MFCD12756215

> <IUPAC Name>
methyl 2-(methylamino)pyridine-3-carboxylate

> <CAS>
110457-42-6

> <URL>
https://www.enaminestore.com/catalog/EN300-3000494

> <ROCS_ShapeQuery>
_x1140_x0812_0A_x1140_0A_x1097_0A_x0365_0A_x1097_0A_x0310_0A

> <ROCS_TanimotoCombo>
0.646 

> <ROCS_ShapeTanimoto>
0.230 

> <ROCS_ColorTanimoto>
0.416 

> <ROCS_RefTversky>
0.206 

> <ROCS_RefColorTversky>
0.452 

> <ROCS_RefTverskyCombo>
0.658 

> <ROCS_FitTversky>
2.029 

> <ROCS_FitColorTversky>
0.839 

> <ROCS_FitTverskyCombo>
2.868 

> <ROCS_ColorScore>
-3.526

> <ROCS_Overlap>
2109.026

> <ROCS_Rank>
50                  

$$$$
untitled-dbase-314023_5
  -OEChem-02092423213D

 25 25  0     0  0  0  0  0  0999 V2000
    8.0839   12.0797   25.4646 C   0  0  0  0  0  0  0  0  0  0  0  0
    8.9025   12.5751   24.4557 C   0  0  0  0  0  0  0  0  0  0  0  0
    7.7444   10.7370   25.4237 C   0  0  0  0  0  0  0  0  0  0  0  0
    9.3502   11.7246   23.4510 C   0  0  0  0  0  0  0  0  0  0  0  0
    8.9542   10.3977   23.5003 C   0  0  0  0  0  0  0  0  0  0  0  0
   11.1532    7.7383   21.6681 C   0  0  0  0  0  0  0  0  0  0  0  0
   11.8377    9.7498   22.9906 C   0  0  0  0  0  0  0  0  0  0  0  0
    9.4075    9.4256   22.4385 C   0  0  0  0  0  0  0  0  0  0  0  0
   10.7331    8.7130   22.7711 C   0  0  0  0  0  0  0  0  0  0  0  0
    8.1599    9.8802   24.4641 N   0  0  0  0  0  0  0  0  0  0  0  0
   10.1785   12.2159   22.4261 N   0  0  0  0  0  0  0  0  0  0  0  0
    7.7229   12.7242   26.2579 H   0  0  0  0  0  0  0  0  0  0  0  0
    9.1849   13.6245   24.4625 H   0  0  0  0  0  0  0  0  0  0  0  0
    7.1082   10.3016   26.1873 H   0  0  0  0  0  0  0  0  0  0  0  0
   11.2818    8.2536   20.7101 H   0  0  0  0  0  0  0  0  0  0  0  0
   10.4101    6.9465   21.5322 H   0  0  0  0  0  0  0  0  0  0  0  0
   12.1027    7.2538   21.9203 H   0  0  0  0  0  0  0  0  0  0  0  0
   11.9940   10.3493   22.0875 H   0  0  0  0  0  0  0  0  0  0  0  0
   11.5862   10.4313   23.8106 H   0  0  0  0  0  0  0  0  0  0  0  0
   12.7872    9.2613   23.2340 H   0  0  0  0  0  0  0  0  0  0  0  0
    8.6207    8.6827   22.2521 H   0  0  0  0  0  0  0  0  0  0  0  0
    9.5122    9.9844   21.4987 H   0  0  0  0  0  0  0  0  0  0  0  0
   10.6198    8.1441   23.7028 H   0  0  0  0  0  0  0  0  0  0  0  0
   10.4035   13.1919   22.4008 H   0  0  0  0  0  0  0  0  0  0  0  0
   10.4558   11.6044   21.6824 H   0  0  0  0  0  0  0  0  0  0  0  0
  1  2  2  0  0  0  0
  1  3  1  0  0  0  0
  2  4  1  0  0  0  0
  3 10  2  0  0  0  0
  4  5  2  0  0  0  0
  4 11  1  0  0  0  0
  5  8  1  0  0  0  0
  5 10  1  0  0  0  0
  6  9  1  0  0  0  0
  7  9  1  0  0  0  0
  8  9  1  0  0  0  0
  1 12  1  0  0  0  0
  2 13  1  0  0  0  0
  3 14  1  0  0  0  0
  6 15  1  0  0  0  0
  6 16  1  0  0  0  0
  6 17  1  0  0  0  0
  7 18  1  0  0  0  0
  7 19  1  0  0  0  0
  7 20  1  0  0  0  0
  8 21  1  0  0  0  0
  8 22  1  0  0  0  0
  9 23  1  0  0  0  0
 11 24  1  0  0  0  0
 11 25  1  0  0  0  0
M  END
> <id>
EN300-2986589

> <smiles>
CC(C)CC=1N=CC=CC1N

> <MDLNUMBER>
MFCD24254204

> <IUPAC Name>
2-(2-methylpropyl)pyridin-3-amine

> <CAS>
1493562-93-8

> <Purity>
95

> <URL>
https://www.enaminestore.com/catalog/EN300-2986589

> <ROCS_ShapeQuery>
_x1140_x0812_0A_x1140_0A_x1097_0A_x0365_0A_x1097_0A_x0310_0A

> <ROCS_TanimotoCombo>
0.646 

> <ROCS_ShapeTanimoto>
0.197 

> <ROCS_ColorTanimoto>
0.449 

> <ROCS_RefTversky>
0.180 

> <ROCS_RefColorTversky>
0.513 

> <ROCS_RefTverskyCombo>
0.693 

> <ROCS_FitTversky>
1.884 

> <ROCS_FitColorTversky>
0.782 

> <ROCS_FitTverskyCombo>
2.667 

> <ROCS_ColorScore>
-4.030

> <ROCS_Overlap>
1843.311

> <ROCS_Rank>
51                  

$$$$
untitled-dbase-120482_3
  -OEChem-02092423213D

 36 37  0     0  0  0  0  0  0999 V2000
    6.8679   10.1094   26.4253 C   0  0  0  0  0  0  0  0  0  0  0  0
    6.4111   10.8891   27.4908 C   0  0  0  0  0  0  0  0  0  0  0  0
    8.9400   12.5109   24.5702 C   0  0  0  0  0  0  0  0  0  0  0  0
    7.6346   12.7689   26.6271 C   0  0  0  0  0  0  0  0  0  0  0  0
    8.0939   11.9844   25.5555 C   0  0  0  0  0  0  0  0  0  0  0  0
    7.7083   10.6319   25.4461 C   0  0  0  0  0  0  0  0  0  0  0  0
    9.3762   11.7103   23.5244 C   0  0  0  0  0  0  0  0  0  0  0  0
    6.7948   12.2206   27.5921 C   0  0  0  0  0  0  0  0  0  0  0  0
    8.9457   10.3992   23.5020 C   0  0  0  0  0  0  0  0  0  0  0  0
   11.5904    9.2556   21.2287 C   0  0  0  0  0  0  0  0  0  0  0  0
   11.5822    9.4932   23.7120 C   0  0  0  0  0  0  0  0  0  0  0  0
   10.8010    7.3617   22.6477 C   0  0  0  0  0  0  0  0  0  0  0  0
    9.3759    9.4797   22.4054 C   0  0  0  0  0  0  0  0  0  0  0  0
   10.8206    8.8945   22.5168 C   0  0  0  0  0  0  0  0  0  0  0  0
    8.1300    9.8525   24.4324 N   0  0  0  0  0  0  0  0  0  0  0  0
   10.8755   13.4385   22.6951 N   0  0  0  0  0  0  0  0  0  0  0  0
   10.2244   12.2350   22.5340 N   0  0  0  0  0  0  0  0  0  0  0  0
    6.2351   13.1848   28.9019 Cl  0  0  0  0  0  0  0  0  0  0  0  0
    6.5551    9.0681   26.3699 H   0  0  0  0  0  0  0  0  0  0  0  0
    5.7565   10.4392   28.2328 H   0  0  0  0  0  0  0  0  0  0  0  0
    9.2579   13.5509   24.6223 H   0  0  0  0  0  0  0  0  0  0  0  0
    7.9366   13.8122   26.7031 H   0  0  0  0  0  0  0  0  0  0  0  0
   11.0892    8.8519   20.3417 H   0  0  0  0  0  0  0  0  0  0  0  0
   11.6661   10.3415   21.1008 H   0  0  0  0  0  0  0  0  0  0  0  0
   12.6093    8.8525   21.2502 H   0  0  0  0  0  0  0  0  0  0  0  0
   11.0769    9.2659   24.6572 H   0  0  0  0  0  0  0  0  0  0  0  0
   12.6066    9.1116   23.7734 H   0  0  0  0  0  0  0  0  0  0  0  0
   11.6511   10.5841   23.6278 H   0  0  0  0  0  0  0  0  0  0  0  0
   10.2633    7.0509   23.5511 H   0  0  0  0  0  0  0  0  0  0  0  0
   10.2993    6.8875   21.7978 H   0  0  0  0  0  0  0  0  0  0  0  0
   11.8170    6.9570   22.7124 H   0  0  0  0  0  0  0  0  0  0  0  0
    9.2858    9.9983   21.4332 H   0  0  0  0  0  0  0  0  0  0  0  0
    8.6648    8.6364   22.3314 H   0  0  0  0  0  0  0  0  0  0  0  0
   10.8016   13.9635   21.8250 H   0  0  0  0  0  0  0  0  0  0  0  0
   11.8690   13.2541   22.8286 H   0  0  0  0  0  0  0  0  0  0  0  0
   10.5235   11.6229   21.7852 H   0  0  0  0  0  0  0  0  0  0  0  0
  1  2  2  0  0  0  0
  1  6  1  0  0  0  0
  2  8  1  0  0  0  0
  3  5  2  0  0  0  0
  3  7  1  0  0  0  0
  4  5  1  0  0  0  0
  4  8  2  0  0  0  0
  5  6  1  0  0  0  0
  6 15  2  0  0  0  0
  7  9  2  0  0  0  0
  7 17  1  0  0  0  0
  8 18  1  0  0  0  0
  9 13  1  0  0  0  0
  9 15  1  0  0  0  0
 10 14  1  0  0  0  0
 11 14  1  0  0  0  0
 12 14  1  0  0  0  0
 13 14  1  0  0  0  0
 16 17  1  0  0  0  0
  1 19  1  0  0  0  0
  2 20  1  0  0  0  0
  3 21  1  0  0  0  0
  4 22  1  0  0  0  0
 10 23  1  0  0  0  0
 10 24  1  0  0  0  0
 10 25  1  0  0  0  0
 11 26  1  0  0  0  0
 11 27  1  0  0  0  0
 11 28  1  0  0  0  0
 12 29  1  0  0  0  0
 12 30  1  0  0  0  0
 12 31  1  0  0  0  0
 13 32  1  0  0  0  0
 13 33  1  0  0  0  0
 16 34  1  0  0  0  0
 16 35  1  0  0  0  0
 17 36  1  0  0  0  0
M  END
> <id>
EN300-801633

> <smiles>
CC(C)(C)CC=1N=C2C=CC(Cl)=CC2=CC1NN

> <IUPAC Name>
6-chloro-2-(2,2-dimethylpropyl)-3-hydrazinylquinoline

> <CAS>
2138185-91-6

> <URL>
https://www.enaminestore.com/catalog/EN300-801633

> <ROCS_ShapeQuery>
_x1140_x0812_0A_x1140_0A_x1097_0A_x0365_0A_x1097_0A_x0310_0A

> <ROCS_TanimotoCombo>
0.645 

> <ROCS_ShapeTanimoto>
0.253 

> <ROCS_ColorTanimoto>
0.392 

> <ROCS_RefTversky>
0.227 

> <ROCS_RefColorTversky>
0.509 

> <ROCS_RefTverskyCombo>
0.737 

> <ROCS_FitTversky>
1.811 

> <ROCS_FitColorTversky>
0.631 

> <ROCS_FitTverskyCombo>
2.442 

> <ROCS_ColorScore>
-4.031

> <ROCS_Overlap>
2332.550

> <ROCS_Rank>
52                  

$$$$
untitled-dbase-577574_2
  -OEChem-02092423213D

 17 17  0     0  0  0  0  0  0999 V2000
    8.1867   12.1082   25.3628 C   0  0  0  0  0  0  0  0  0  0  0  0
    8.9988   12.4913   24.3012 C   0  0  0  0  0  0  0  0  0  0  0  0
    7.7790   10.7854   25.4230 C   0  0  0  0  0  0  0  0  0  0  0  0
    9.3732   11.5530   23.3458 C   0  0  0  0  0  0  0  0  0  0  0  0
    8.9125   10.2549   23.4964 C   0  0  0  0  0  0  0  0  0  0  0  0
   11.1369    9.0092   22.4898 C   0  0  0  0  0  0  0  0  0  0  0  0
    8.1222    9.8455   24.5140 N   0  0  0  0  0  0  0  0  0  0  0  0
   10.1957   11.9504   22.2745 N   0  0  0  0  0  0  0  0  0  0  0  0
    9.3404    8.9765   22.3190 S   0  0  0  0  0  0  0  0  0  0  0  0
    7.8823   12.8226   26.1192 H   0  0  0  0  0  0  0  0  0  0  0  0
    9.3334   13.5228   24.2295 H   0  0  0  0  0  0  0  0  0  0  0  0
    7.1447   10.4360   26.2311 H   0  0  0  0  0  0  0  0  0  0  0  0
   11.5872    8.2691   21.8238 H   0  0  0  0  0  0  0  0  0  0  0  0
   11.4160    8.7776   23.5206 H   0  0  0  0  0  0  0  0  0  0  0  0
   11.5164   10.0007   22.2309 H   0  0  0  0  0  0  0  0  0  0  0  0
   10.4603   12.9123   22.1900 H   0  0  0  0  0  0  0  0  0  0  0  0
   10.4265   11.2867   21.5613 H   0  0  0  0  0  0  0  0  0  0  0  0
  1  2  2  0  0  0  0
  1  3  1  0  0  0  0
  2  4  1  0  0  0  0
  3  7  2  0  0  0  0
  4  5  2  0  0  0  0
  4  8  1  0  0  0  0
  5  7  1  0  0  0  0
  5  9  1  0  0  0  0
  6  9  1  0  0  0  0
  1 10  1  0  0  0  0
  2 11  1  0  0  0  0
  3 12  1  0  0  0  0
  6 13  1  0  0  0  0
  6 14  1  0  0  0  0
  6 15  1  0  0  0  0
  8 16  1  0  0  0  0
  8 17  1  0  0  0  0
M  END
> <id>
EN300-1231992

> <smiles>
CSC=1N=CC=CC1N

> <MDLNUMBER>
MFCD09839687

> <IUPAC Name>
2-(methylsulfanyl)pyridin-3-amine

> <CAS>
38240-22-1

> <URL>
https://www.enaminestore.com/catalog/EN300-1231992

> <ROCS_ShapeQuery>
_x1140_x0812_0A_x1140_0A_x1097_0A_x0365_0A_x1097_0A_x0310_0A

> <ROCS_TanimotoCombo>
0.645 

> <ROCS_ShapeTanimoto>
0.181 

> <ROCS_ColorTanimoto>
0.464 

> <ROCS_RefTversky>
0.166 

> <ROCS_RefColorTversky>
0.525 

> <ROCS_RefTverskyCombo>
0.692 

> <ROCS_FitTversky>
1.916 

> <ROCS_FitColorTversky>
0.801 

> <ROCS_FitTverskyCombo>
2.717 

> <ROCS_ColorScore>
-4.123

> <ROCS_Overlap>
1704.374

> <ROCS_Rank>
53                  

$$$$
untitled-dbase-575987_2
  -OEChem-02092423213D

 17 17  0     0  0  0  0  0  0999 V2000
    8.1867   12.1082   25.3628 C   0  0  0  0  0  0  0  0  0  0  0  0
    8.9988   12.4913   24.3012 C   0  0  0  0  0  0  0  0  0  0  0  0
    7.7790   10.7854   25.4230 C   0  0  0  0  0  0  0  0  0  0  0  0
    9.3732   11.5530   23.3458 C   0  0  0  0  0  0  0  0  0  0  0  0
    8.9125   10.2549   23.4964 C   0  0  0  0  0  0  0  0  0  0  0  0
   11.1369    9.0092   22.4898 C   0  0  0  0  0  0  0  0  0  0  0  0
    8.1222    9.8455   24.5140 N   0  0  0  0  0  0  0  0  0  0  0  0
   10.1957   11.9504   22.2745 N   0  0  0  0  0  0  0  0  0  0  0  0
    9.3404    8.9765   22.3190 S   0  0  0  0  0  0  0  0  0  0  0  0
    7.8823   12.8226   26.1192 H   0  0  0  0  0  0  0  0  0  0  0  0
    9.3334   13.5228   24.2295 H   0  0  0  0  0  0  0  0  0  0  0  0
    7.1447   10.4360   26.2311 H   0  0  0  0  0  0  0  0  0  0  0  0
   11.5872    8.2691   21.8238 H   0  0  0  0  0  0  0  0  0  0  0  0
   11.4160    8.7776   23.5206 H   0  0  0  0  0  0  0  0  0  0  0  0
   11.5164   10.0007   22.2309 H   0  0  0  0  0  0  0  0  0  0  0  0
   10.4603   12.9123   22.1900 H   0  0  0  0  0  0  0  0  0  0  0  0
   10.4265   11.2867   21.5613 H   0  0  0  0  0  0  0  0  0  0  0  0
  1  2  2  0  0  0  0
  1  3  1  0  0  0  0
  2  4  1  0  0  0  0
  3  7  2  0  0  0  0
  4  5  2  0  0  0  0
  4  8  1  0  0  0  0
  5  7  1  0  0  0  0
  5  9  1  0  0  0  0
  6  9  1  0  0  0  0
  1 10  1  0  0  0  0
  2 11  1  0  0  0  0
  3 12  1  0  0  0  0
  6 13  1  0  0  0  0
  6 14  1  0  0  0  0
  6 15  1  0  0  0  0
  8 16  1  0  0  0  0
  8 17  1  0  0  0  0
M  END
> <id>
EN300-7369708

> <smiles>
Cl.CSC=1N=CC=CC1N

> <MDLNUMBER>
MFCD21098388

> <IUPAC Name>
2-(methylsulfanyl)pyridin-3-amine hydrochloride

> <CAS>
1353976-60-9

> <Purity>
95

> <URL>
https://www.enaminestore.com/catalog/EN300-7369708

> <Saltdate>
Cl

> <ROCS_ShapeQuery>
_x1140_x0812_0A_x1140_0A_x1097_0A_x0365_0A_x1097_0A_x0310_0A

> <ROCS_TanimotoCombo>
0.645 

> <ROCS_ShapeTanimoto>
0.181 

> <ROCS_ColorTanimoto>
0.464 

> <ROCS_RefTversky>
0.166 

> <ROCS_RefColorTversky>
0.525 

> <ROCS_RefTverskyCombo>
0.692 

> <ROCS_FitTversky>
1.916 

> <ROCS_FitColorTversky>
0.801 

> <ROCS_FitTverskyCombo>
2.717 

> <ROCS_ColorScore>
-4.123

> <ROCS_Overlap>
1704.374

> <ROCS_Rank>
54                  

$$$$
untitled-dbase-541556_3
  -OEChem-02092423213D

 36 37  0     0  0  0  0  0  0999 V2000
    7.6382   12.7708   26.6271 C   0  0  0  0  0  0  0  0  0  0  0  0
    6.8000   12.2228   27.5937 C   0  0  0  0  0  0  0  0  0  0  0  0
    8.9406   12.5119   24.5684 C   0  0  0  0  0  0  0  0  0  0  0  0
    6.8721   10.1108   26.4282 C   0  0  0  0  0  0  0  0  0  0  0  0
    8.0961   11.9858   25.5553 C   0  0  0  0  0  0  0  0  0  0  0  0
    7.7108   10.6331   25.4474 C   0  0  0  0  0  0  0  0  0  0  0  0
    9.3755   11.7108   23.5224 C   0  0  0  0  0  0  0  0  0  0  0  0
    6.4166   10.8911   27.4939 C   0  0  0  0  0  0  0  0  0  0  0  0
    8.9455   10.3995   23.5016 C   0  0  0  0  0  0  0  0  0  0  0  0
   11.5901    9.2550   21.2287 C   0  0  0  0  0  0  0  0  0  0  0  0
   11.5824    9.4948   23.7117 C   0  0  0  0  0  0  0  0  0  0  0  0
   10.8018    7.3620   22.6496 C   0  0  0  0  0  0  0  0  0  0  0  0
    9.3758    9.4792   22.4058 C   0  0  0  0  0  0  0  0  0  0  0  0
   10.8208    8.8947   22.5173 C   0  0  0  0  0  0  0  0  0  0  0  0
    8.1313    9.8532   24.4335 N   0  0  0  0  0  0  0  0  0  0  0  0
   10.8773   13.4372   22.6938 N   0  0  0  0  0  0  0  0  0  0  0  0
   10.2244   12.2346   22.5324 N   0  0  0  0  0  0  0  0  0  0  0  0
    5.3783   10.2030   28.6816 Cl  0  0  0  0  0  0  0  0  0  0  0  0
    7.9306   13.8150   26.7144 H   0  0  0  0  0  0  0  0  0  0  0  0
    6.4550   12.8448   28.4151 H   0  0  0  0  0  0  0  0  0  0  0  0
    9.2569   13.5523   24.6192 H   0  0  0  0  0  0  0  0  0  0  0  0
    6.5658    9.0675   26.3598 H   0  0  0  0  0  0  0  0  0  0  0  0
   11.0889    8.8501   20.3422 H   0  0  0  0  0  0  0  0  0  0  0  0
   11.6653   10.3407   21.0997 H   0  0  0  0  0  0  0  0  0  0  0  0
   12.6091    8.8522   21.2503 H   0  0  0  0  0  0  0  0  0  0  0  0
   11.0774    9.2682   24.6573 H   0  0  0  0  0  0  0  0  0  0  0  0
   12.6070    9.1137   23.7732 H   0  0  0  0  0  0  0  0  0  0  0  0
   11.6509   10.5857   23.6264 H   0  0  0  0  0  0  0  0  0  0  0  0
   10.2644    7.0519   23.5535 H   0  0  0  0  0  0  0  0  0  0  0  0
   10.3001    6.8869   21.8003 H   0  0  0  0  0  0  0  0  0  0  0  0
   11.8179    6.9578   22.7145 H   0  0  0  0  0  0  0  0  0  0  0  0
    9.2853    9.9968   21.4330 H   0  0  0  0  0  0  0  0  0  0  0  0
    8.6650    8.6356   22.3326 H   0  0  0  0  0  0  0  0  0  0  0  0
   10.8042   13.9626   21.8239 H   0  0  0  0  0  0  0  0  0  0  0  0
   11.8704   13.2513   22.8273 H   0  0  0  0  0  0  0  0  0  0  0  0
   10.5227   11.6224   21.7833 H   0  0  0  0  0  0  0  0  0  0  0  0
  1  2  2  0  0  0  0
  1  5  1  0  0  0  0
  2  8  1  0  0  0  0
  3  5  2  0  0  0  0
  3  7  1  0  0  0  0
  4  6  1  0  0  0  0
  4  8  2  0  0  0  0
  5  6  1  0  0  0  0
  6 15  2  0  0  0  0
  7  9  2  0  0  0  0
  7 17  1  0  0  0  0
  8 18  1  0  0  0  0
  9 13  1  0  0  0  0
  9 15  1  0  0  0  0
 10 14  1  0  0  0  0
 11 14  1  0  0  0  0
 12 14  1  0  0  0  0
 13 14  1  0  0  0  0
 16 17  1  0  0  0  0
  1 19  1  0  0  0  0
  2 20  1  0  0  0  0
  3 21  1  0  0  0  0
  4 22  1  0  0  0  0
 10 23  1  0  0  0  0
 10 24  1  0  0  0  0
 10 25  1  0  0  0  0
 11 26  1  0  0  0  0
 11 27  1  0  0  0  0
 11 28  1  0  0  0  0
 12 29  1  0  0  0  0
 12 30  1  0  0  0  0
 12 31  1  0  0  0  0
 13 32  1  0  0  0  0
 13 33  1  0  0  0  0
 16 34  1  0  0  0  0
 16 35  1  0  0  0  0
 17 36  1  0  0  0  0
M  END
> <id>
EN300-801834

> <smiles>
CC(C)(C)CC=1N=C2C=C(Cl)C=CC2=CC1NN

> <IUPAC Name>
7-chloro-2-(2,2-dimethylpropyl)-3-hydrazinylquinoline

> <CAS>
2137773-32-9

> <URL>
https://www.enaminestore.com/catalog/EN300-801834

> <ROCS_ShapeQuery>
_x1140_x0812_0A_x1140_0A_x1097_0A_x0365_0A_x1097_0A_x0310_0A

> <ROCS_TanimotoCombo>
0.645 

> <ROCS_ShapeTanimoto>
0.253 

> <ROCS_ColorTanimoto>
0.392 

> <ROCS_RefTversky>
0.227 

> <ROCS_RefColorTversky>
0.509 

> <ROCS_RefTverskyCombo>
0.737 

> <ROCS_FitTversky>
1.810 

> <ROCS_FitColorTversky>
0.631 

> <ROCS_FitTverskyCombo>
2.441 

> <ROCS_ColorScore>
-4.031

> <ROCS_Overlap>
2331.174

> <ROCS_Rank>
55                  

$$$$
untitled-dbase-290665_6
  -OEChem-02092423213D

 32 32  0     0  0  0  0  0  0999 V2000
    8.4960   12.9323   25.2817 C   0  0  0  0  0  0  0  0  0  0  0  0
    7.5304   12.1227   25.8798 C   0  0  0  0  0  0  0  0  0  0  0  0
    7.8998   10.4348   24.1911 C   0  0  0  0  0  0  0  0  0  0  0  0
    8.8654   11.2444   23.5930 C   0  0  0  0  0  0  0  0  0  0  0  0
    9.1635   12.4932   24.1383 C   0  0  0  0  0  0  0  0  0  0  0  0
    7.2323   10.8739   25.3345 C   0  0  0  0  0  0  0  0  0  0  0  0
    9.5607   10.7532   22.3766 C   0  0  0  0  0  0  0  0  0  0  0  0
   11.7240    9.3616   23.5956 C   0  0  0  0  0  0  0  0  0  0  0  0
   10.8463    7.3362   22.3971 C   0  0  0  0  0  0  0  0  0  0  0  0
   11.6560    9.3156   21.0801 C   0  0  0  0  0  0  0  0  0  0  0  0
   10.1932   13.3809   23.5188 C   0  0  0  0  0  0  0  0  0  0  0  0
   10.9693    8.8581   22.3662 C   0  0  0  0  0  0  0  0  0  0  0  0
    6.2553   10.0563   25.9397 N   0  0  0  0  0  0  0  0  0  0  0  0
    9.9849   11.4932   21.5026 O   0  0  0  0  0  0  0  0  0  0  0  0
    9.6471    9.3972   22.3922 O   0  0  0  0  0  0  0  0  0  0  0  0
   10.3603   14.5643   24.1781 F   0  0  0  0  0  0  0  0  0  0  0  0
   11.4364   12.8198   23.4689 F   0  0  0  0  0  0  0  0  0  0  0  0
    9.8884   13.7160   22.2323 F   0  0  0  0  0  0  0  0  0  0  0  0
    8.7214   13.9036   25.7146 H   0  0  0  0  0  0  0  0  0  0  0  0
    7.0166   12.4744   26.7707 H   0  0  0  0  0  0  0  0  0  0  0  0
    7.6656    9.4608   23.7660 H   0  0  0  0  0  0  0  0  0  0  0  0
   11.8144   10.4536   23.5772 H   0  0  0  0  0  0  0  0  0  0  0  0
   11.2226    9.0699   24.5242 H   0  0  0  0  0  0  0  0  0  0  0  0
   12.7464    8.9671   23.6156 H   0  0  0  0  0  0  0  0  0  0  0  0
   10.3054    6.9705   21.5168 H   0  0  0  0  0  0  0  0  0  0  0  0
   10.2712    7.0088   23.2707 H   0  0  0  0  0  0  0  0  0  0  0  0
   11.8278    6.8521   22.4268 H   0  0  0  0  0  0  0  0  0  0  0  0
   11.1148    8.9545   20.1981 H   0  0  0  0  0  0  0  0  0  0  0  0
   11.7200   10.4071   21.0234 H   0  0  0  0  0  0  0  0  0  0  0  0
   12.6692    8.9033   21.0115 H   0  0  0  0  0  0  0  0  0  0  0  0
    5.8181   10.3629   26.7851 H   0  0  0  0  0  0  0  0  0  0  0  0
    6.0840    9.1442   25.5673 H   0  0  0  0  0  0  0  0  0  0  0  0
  1  2  2  0  0  0  0
  1  5  1  0  0  0  0
  2  6  1  0  0  0  0
  3  4  1  0  0  0  0
  3  6  2  0  0  0  0
  4  5  2  0  0  0  0
  4  7  1  0  0  0  0
  5 11  1  0  0  0  0
  6 13  1  0  0  0  0
  7 14  2  0  0  0  0
  7 15  1  0  0  0  0
  8 12  1  0  0  0  0
  9 12  1  0  0  0  0
 10 12  1  0  0  0  0
 11 16  1  0  0  0  0
 11 17  1  0  0  0  0
 11 18  1  0  0  0  0
 12 15  1  0  0  0  0
  1 19  1  0  0  0  0
  2 20  1  0  0  0  0
  3 21  1  0  0  0  0
  8 22  1  0  0  0  0
  8 23  1  0  0  0  0
  8 24  1  0  0  0  0
  9 25  1  0  0  0  0
  9 26  1  0  0  0  0
  9 27  1  0  0  0  0
 10 28  1  0  0  0  0
 10 29  1  0  0  0  0
 10 30  1  0  0  0  0
 13 31  1  0  0  0  0
 13 32  1  0  0  0  0
M  END
> <id>
EN300-6508393

> <smiles>
CC(C)(C)OC(=O)C=1C=C(N)C=CC1C(F)(F)F

> <IUPAC Name>
tert-butyl 5-amino-2-(trifluoromethyl)benzoate

> <CAS>
2248290-87-9

> <URL>
https://www.enaminestore.com/catalog/EN300-6508393

> <ROCS_ShapeQuery>
_x1140_x0812_0A_x1140_0A_x1097_0A_x0365_0A_x1097_0A_x0310_0A

> <ROCS_TanimotoCombo>
0.645 

> <ROCS_ShapeTanimoto>
0.261 

> <ROCS_ColorTanimoto>
0.385 

> <ROCS_RefTversky>
0.233 

> <ROCS_RefColorTversky>
0.460 

> <ROCS_RefTverskyCombo>
0.693 

> <ROCS_FitTversky>
1.833 

> <ROCS_FitColorTversky>
0.701 

> <ROCS_FitTverskyCombo>
2.535 

> <ROCS_ColorScore>
-3.611

> <ROCS_Overlap>
2391.691

> <ROCS_Rank>
56                  

$$$$
untitled-dbase-111518_3
  -OEChem-02092423213D

 36 37  0     0  0  0  0  0  0999 V2000
    6.7961   12.2260   27.5908 C   0  0  0  0  0  0  0  0  0  0  0  0
    6.4127   10.8943   27.4913 C   0  0  0  0  0  0  0  0  0  0  0  0
    7.6355   12.7734   26.6248 C   0  0  0  0  0  0  0  0  0  0  0  0
    6.8693   10.1134   26.4266 C   0  0  0  0  0  0  0  0  0  0  0  0
    8.9403   12.5131   24.5678 C   0  0  0  0  0  0  0  0  0  0  0  0
    8.0946   11.9876   25.5540 C   0  0  0  0  0  0  0  0  0  0  0  0
    7.7093   10.6349   25.4465 C   0  0  0  0  0  0  0  0  0  0  0  0
    9.3763   11.7112   23.5228 C   0  0  0  0  0  0  0  0  0  0  0  0
    8.9463   10.4000   23.5023 C   0  0  0  0  0  0  0  0  0  0  0  0
   11.5906    9.2547   21.2294 C   0  0  0  0  0  0  0  0  0  0  0  0
   11.5831    9.4952   23.7125 C   0  0  0  0  0  0  0  0  0  0  0  0
   10.8022    7.3622   22.6508 C   0  0  0  0  0  0  0  0  0  0  0  0
    9.3764    9.4794   22.4066 C   0  0  0  0  0  0  0  0  0  0  0  0
   10.8213    8.8949   22.5182 C   0  0  0  0  0  0  0  0  0  0  0  0
    8.1309    9.8543   24.4336 N   0  0  0  0  0  0  0  0  0  0  0  0
   10.8757   13.4386   22.6919 N   0  0  0  0  0  0  0  0  0  0  0  0
   10.2245   12.2349   22.5321 N   0  0  0  0  0  0  0  0  0  0  0  0
    6.4434   12.8362   28.4166 H   0  0  0  0  0  0  0  0  0  0  0  0
    5.7580   10.4590   28.2406 H   0  0  0  0  0  0  0  0  0  0  0  0
    7.9296   13.8170   26.7122 H   0  0  0  0  0  0  0  0  0  0  0  0
    6.5545    9.0728   26.3715 H   0  0  0  0  0  0  0  0  0  0  0  0
    9.2580   13.5531   24.6187 H   0  0  0  0  0  0  0  0  0  0  0  0
   11.0893    8.8498   20.3431 H   0  0  0  0  0  0  0  0  0  0  0  0
   11.6659   10.3404   21.1003 H   0  0  0  0  0  0  0  0  0  0  0  0
   12.6096    8.8519   21.2510 H   0  0  0  0  0  0  0  0  0  0  0  0
   11.0782    9.2688   24.6581 H   0  0  0  0  0  0  0  0  0  0  0  0
   12.6077    9.1140   23.7739 H   0  0  0  0  0  0  0  0  0  0  0  0
   11.6517   10.5860   23.6269 H   0  0  0  0  0  0  0  0  0  0  0  0
   10.2649    7.0523   23.5548 H   0  0  0  0  0  0  0  0  0  0  0  0
   10.3004    6.8869   21.8017 H   0  0  0  0  0  0  0  0  0  0  0  0
   11.8184    6.9579   22.7157 H   0  0  0  0  0  0  0  0  0  0  0  0
    9.2858    9.9968   21.4338 H   0  0  0  0  0  0  0  0  0  0  0  0
    8.6655    8.6358   22.3337 H   0  0  0  0  0  0  0  0  0  0  0  0
   10.8018   13.9628   21.8213 H   0  0  0  0  0  0  0  0  0  0  0  0
   11.8691   13.2544   22.8256 H   0  0  0  0  0  0  0  0  0  0  0  0
   10.5237   11.6222   21.7838 H   0  0  0  0  0  0  0  0  0  0  0  0
  1  2  1  0  0  0  0
  1  3  2  0  0  0  0
  2  4  2  0  0  0  0
  3  6  1  0  0  0  0
  4  7  1  0  0  0  0
  5  6  2  0  0  0  0
  5  8  1  0  0  0  0
  6  7  1  0  0  0  0
  7 15  2  0  0  0  0
  8  9  2  0  0  0  0
  8 17  1  0  0  0  0
  9 13  1  0  0  0  0
  9 15  1  0  0  0  0
 10 14  1  0  0  0  0
 11 14  1  0  0  0  0
 12 14  1  0  0  0  0
 13 14  1  0  0  0  0
 16 17  1  0  0  0  0
  1 18  1  0  0  0  0
  2 19  1  0  0  0  0
  3 20  1  0  0  0  0
  4 21  1  0  0  0  0
  5 22  1  0  0  0  0
 10 23  1  0  0  0  0
 10 24  1  0  0  0  0
 10 25  1  0  0  0  0
 11 26  1  0  0  0  0
 11 27  1  0  0  0  0
 11 28  1  0  0  0  0
 12 29  1  0  0  0  0
 12 30  1  0  0  0  0
 12 31  1  0  0  0  0
 13 32  1  0  0  0  0
 13 33  1  0  0  0  0
 16 34  1  0  0  0  0
 16 35  1  0  0  0  0
 17 36  1  0  0  0  0
M  END
> <id>
EN300-801609

> <smiles>
CC(C)(C)CC=1N=C2C=CC=CC2=CC1NN

> <IUPAC Name>
2-(2,2-dimethylpropyl)-3-hydrazinylquinoline

> <CAS>
2138156-67-7

> <URL>
https://www.enaminestore.com/catalog/EN300-801609

> <ROCS_ShapeQuery>
_x1140_x0812_0A_x1140_0A_x1097_0A_x0365_0A_x1097_0A_x0310_0A

> <ROCS_TanimotoCombo>
0.645 

> <ROCS_ShapeTanimoto>
0.253 

> <ROCS_ColorTanimoto>
0.392 

> <ROCS_RefTversky>
0.227 

> <ROCS_RefColorTversky>
0.509 

> <ROCS_RefTverskyCombo>
0.736 

> <ROCS_FitTversky>
1.853 

> <ROCS_FitColorTversky>
0.631 

> <ROCS_FitTverskyCombo>
2.484 

> <ROCS_ColorScore>
-4.031

> <ROCS_Overlap>
2323.720

> <ROCS_Rank>
57                  

$$$$
untitled-dbase-276101_3
  -OEChem-02092423213D

 33 34  0     0  0  0  0  0  0999 V2000
    6.8657   12.3806   27.5060 C   0  0  0  0  0  0  0  0  0  0  0  0
    6.4972   11.0414   27.4725 C   0  0  0  0  0  0  0  0  0  0  0  0
    7.6786   12.8948   26.5001 C   0  0  0  0  0  0  0  0  0  0  0  0
    6.9421   10.2200   26.4337 C   0  0  0  0  0  0  0  0  0  0  0  0
    8.9452   12.5599   24.4300 C   0  0  0  0  0  0  0  0  0  0  0  0
    8.1260   12.0684   25.4553 C   0  0  0  0  0  0  0  0  0  0  0  0
    7.7557   10.7078   25.4148 C   0  0  0  0  0  0  0  0  0  0  0  0
    9.3702   11.7183   23.4122 C   0  0  0  0  0  0  0  0  0  0  0  0
    8.9563   10.4025   23.4576 C   0  0  0  0  0  0  0  0  0  0  0  0
   11.7613    9.7813   21.6412 C   0  0  0  0  0  0  0  0  0  0  0  0
   11.3495    8.9199   23.9459 C   0  0  0  0  0  0  0  0  0  0  0  0
   10.9298    7.4506   21.9580 C   0  0  0  0  0  0  0  0  0  0  0  0
    9.3802    9.4474   22.3905 C   0  0  0  0  0  0  0  0  0  0  0  0
   10.8363    8.8890   22.4958 C   0  0  0  0  0  0  0  0  0  0  0  0
    8.1667    9.8886   24.4284 N   0  0  0  0  0  0  0  0  0  0  0  0
   10.1632   12.1901   22.4178 O   0  0  0  0  0  0  0  0  0  0  0  0
    6.5217   13.0221   28.3114 H   0  0  0  0  0  0  0  0  0  0  0  0
    5.8631   10.6316   28.2534 H   0  0  0  0  0  0  0  0  0  0  0  0
    7.9613   13.9449   26.5353 H   0  0  0  0  0  0  0  0  0  0  0  0
    6.6396    9.1744   26.4307 H   0  0  0  0  0  0  0  0  0  0  0  0
    9.2528   13.6037   24.4247 H   0  0  0  0  0  0  0  0  0  0  0  0
   11.4399    9.7956   20.5936 H   0  0  0  0  0  0  0  0  0  0  0  0
   11.7613   10.8162   22.0018 H   0  0  0  0  0  0  0  0  0  0  0  0
   12.7957    9.4204   21.6691 H   0  0  0  0  0  0  0  0  0  0  0  0
   10.7260    8.2998   24.5995 H   0  0  0  0  0  0  0  0  0  0  0  0
   12.3813    8.5613   24.0194 H   0  0  0  0  0  0  0  0  0  0  0  0
   11.3356    9.9404   24.3462 H   0  0  0  0  0  0  0  0  0  0  0  0
   10.2882    6.7730   22.5334 H   0  0  0  0  0  0  0  0  0  0  0  0
   10.6084    7.3855   20.9134 H   0  0  0  0  0  0  0  0  0  0  0  0
   11.9549    7.0696   22.0232 H   0  0  0  0  0  0  0  0  0  0  0  0
    9.2634    9.9250   21.3999 H   0  0  0  0  0  0  0  0  0  0  0  0
    8.6818    8.5905   22.3631 H   0  0  0  0  0  0  0  0  0  0  0  0
   10.3511   13.1345   22.5508 H   0  0  0  0  0  0  0  0  0  0  0  0
  1  2  1  0  0  0  0
  1  3  2  0  0  0  0
  2  4  2  0  0  0  0
  3  6  1  0  0  0  0
  4  7  1  0  0  0  0
  5  6  2  0  0  0  0
  5  8  1  0  0  0  0
  6  7  1  0  0  0  0
  7 15  2  0  0  0  0
  8  9  2  0  0  0  0
  8 16  1  0  0  0  0
  9 13  1  0  0  0  0
  9 15  1  0  0  0  0
 10 14  1  0  0  0  0
 11 14  1  0  0  0  0
 12 14  1  0  0  0  0
 13 14  1  0  0  0  0
  1 17  1  0  0  0  0
  2 18  1  0  0  0  0
  3 19  1  0  0  0  0
  4 20  1  0  0  0  0
  5 21  1  0  0  0  0
 10 22  1  0  0  0  0
 10 23  1  0  0  0  0
 10 24  1  0  0  0  0
 11 25  1  0  0  0  0
 11 26  1  0  0  0  0
 11 27  1  0  0  0  0
 12 28  1  0  0  0  0
 12 29  1  0  0  0  0
 12 30  1  0  0  0  0
 13 31  1  0  0  0  0
 13 32  1  0  0  0  0
 16 33  1  0  0  0  0
M  END
> <id>
EN300-801021

> <smiles>
CC(C)(C)CC=1N=C2C=CC=CC2=CC1O

> <MDLNUMBER>
MFCD31471738

> <IUPAC Name>
2-(2,2-dimethylpropyl)quinolin-3-ol

> <CAS>
2137649-84-2

> <URL>
https://www.enaminestore.com/catalog/EN300-801021

> <ROCS_ShapeQuery>
_x1140_x0812_0A_x1140_0A_x1097_0A_x0365_0A_x1097_0A_x0310_0A

> <ROCS_TanimotoCombo>
0.645 

> <ROCS_ShapeTanimoto>
0.239 

> <ROCS_ColorTanimoto>
0.406 

> <ROCS_RefTversky>
0.216 

> <ROCS_RefColorTversky>
0.512 

> <ROCS_RefTverskyCombo>
0.728 

> <ROCS_FitTversky>
1.821 

> <ROCS_FitColorTversky>
0.663 

> <ROCS_FitTverskyCombo>
2.484 

> <ROCS_ColorScore>
-4.047

> <ROCS_Overlap>
2211.804

> <ROCS_Rank>
58                  

$$$$
untitled-dbase-64717_5
  -OEChem-02092423213D

 30 31  0     0  0  0  0  0  0999 V2000
   11.3175   13.2065   23.9720 C   0  0  0  0  0  0  0  0  0  0  0  0
    9.3487   14.5186   23.4825 C   0  0  0  0  0  0  0  0  0  0  0  0
   12.1245   14.2991   23.6549 C   0  0  0  0  0  0  0  0  0  0  0  0
   10.1558   15.6112   23.1655 C   0  0  0  0  0  0  0  0  0  0  0  0
    9.9296   13.3162   23.8857 C   0  0  0  0  0  0  0  0  0  0  0  0
   11.5437   15.5014   23.2517 C   0  0  0  0  0  0  0  0  0  0  0  0
    9.0950   12.1863   24.2136 C   0  0  0  0  0  0  0  0  0  0  0  0
    9.0274   10.9222   23.6661 C   0  0  0  0  0  0  0  0  0  0  0  0
    7.4745   10.7012   25.1990 C   0  0  0  0  0  0  0  0  0  0  0  0
    9.8461   10.4638   22.5769 C   0  0  0  0  0  0  0  0  0  0  0  0
   13.7421   16.3862   23.0520 C   0  0  0  0  0  0  0  0  0  0  0  0
   11.4773    8.8303   21.9228 C   0  0  0  0  0  0  0  0  0  0  0  0
    8.0990   10.0691   24.2301 N   0  0  0  0  0  0  0  0  0  0  0  0
    6.4953   10.1516   25.9650 N   0  0  0  0  0  0  0  0  0  0  0  0
    9.8753   10.9730   21.4382 O   0  0  0  0  0  0  0  0  0  0  0  0
   12.3311   16.5676   22.9423 O   0  0  0  0  0  0  0  0  0  0  0  0
   10.6154    9.3795   22.9254 O   0  0  0  0  0  0  0  0  0  0  0  0
    7.9531   12.3240   25.4857 S   0  0  0  0  0  0  0  0  0  0  0  0
   11.7854   12.2760   24.2847 H   0  0  0  0  0  0  0  0  0  0  0  0
    8.2684   14.6200   23.4104 H   0  0  0  0  0  0  0  0  0  0  0  0
   13.2050   14.2076   23.7239 H   0  0  0  0  0  0  0  0  0  0  0  0
    9.6975   16.5453   22.8520 H   0  0  0  0  0  0  0  0  0  0  0  0
   14.2518   17.3127   22.7767 H   0  0  0  0  0  0  0  0  0  0  0  0
   14.0583   15.5740   22.3926 H   0  0  0  0  0  0  0  0  0  0  0  0
   13.9883   16.1308   24.0854 H   0  0  0  0  0  0  0  0  0  0  0  0
   12.0241    7.9799   22.3373 H   0  0  0  0  0  0  0  0  0  0  0  0
   12.1780    9.5974   21.5835 H   0  0  0  0  0  0  0  0  0  0  0  0
   10.8711    8.4942   21.0783 H   0  0  0  0  0  0  0  0  0  0  0  0
    6.1473    9.2017   25.7952 H   0  0  0  0  0  0  0  0  0  0  0  0
    6.0013   10.6964   26.6803 H   0  0  0  0  0  0  0  0  0  0  0  0
  1  3  2  0  0  0  0
  1  5  1  0  0  0  0
  2  4  1  0  0  0  0
  2  5  2  0  0  0  0
  3  6  1  0  0  0  0
  4  6  2  0  0  0  0
  5  7  1  0  0  0  0
  6 16  1  0  0  0  0
  7  8  2  0  0  0  0
  7 18  1  0  0  0  0
  8 10  1  0  0  0  0
  8 13  1  0  0  0  0
  9 13  2  0  0  0  0
  9 14  1  0  0  0  0
  9 18  1  0  0  0  0
 10 15  2  0  0  0  0
 10 17  1  0  0  0  0
 11 16  1  0  0  0  0
 12 17  1  0  0  0  0
  1 19  1  0  0  0  0
  2 20  1  0  0  0  0
  3 21  1  0  0  0  0
  4 22  1  0  0  0  0
 11 23  1  0  0  0  0
 11 24  1  0  0  0  0
 11 25  1  0  0  0  0
 12 26  1  0  0  0  0
 12 27  1  0  0  0  0
 12 28  1  0  0  0  0
 14 29  1  0  0  0  0
 14 30  1  0  0  0  0
M  END
> <id>
EN300-302619

> <smiles>
COC(=O)C=1N=C(N)SC1C=2C=CC(OC)=CC2

> <MDLNUMBER>
MFCD05975046

> <IUPAC Name>
methyl 2-amino-5-(4-methoxyphenyl)-1,3-thiazole-4-carboxylate

> <CAS>
860784-56-1

> <Purity>
93

> <URL>
https://www.enaminestore.com/catalog/EN300-302619

> <ROCS_ShapeQuery>
_x1140_x0812_0A_x1140_0A_x1097_0A_x0365_0A_x1097_0A_x0310_0A

> <ROCS_TanimotoCombo>
0.645 

> <ROCS_ShapeTanimoto>
0.235 

> <ROCS_ColorTanimoto>
0.409 

> <ROCS_RefTversky>
0.215 

> <ROCS_RefColorTversky>
0.548 

> <ROCS_RefTverskyCombo>
0.763 

> <ROCS_FitTversky>
1.699 

> <ROCS_FitColorTversky>
0.618 

> <ROCS_FitTverskyCombo>
2.317 

> <ROCS_ColorScore>
-4.360

> <ROCS_Overlap>
2201.450

> <ROCS_Rank>
59                  

$$$$
untitled-dbase-113724_5
  -OEChem-02092423213D

 33 33  0     0  0  0  0  0  0999 V2000
    8.9943   12.0441   24.8083 C   0  0  0  0  0  0  0  0  0  0  0  0
    7.7134   11.9667   25.2982 C   0  0  0  0  0  0  0  0  0  0  0  0
    7.3971   10.5961   25.2413 C   0  0  0  0  0  0  0  0  0  0  0  0
    6.8779   13.0851   25.7709 C   0  0  0  0  0  0  0  0  0  0  0  0
   12.0487    9.5333   21.9868 C   0  0  0  0  0  0  0  0  0  0  0  0
   10.2414    8.0409   22.8423 C   0  0  0  0  0  0  0  0  0  0  0  0
    9.0691   12.0265   20.3296 C   0  0  0  0  0  0  0  0  0  0  0  0
   10.6772   10.3196   23.9229 C   0  0  0  0  0  0  0  0  0  0  0  0
    9.6387   10.1131   21.5693 C   0  0  0  0  0  0  0  0  0  0  0  0
   10.6267    9.5105   22.5924 C   0  0  0  0  0  0  0  0  0  0  0  0
    8.3963    9.8561   24.7536 N   0  0  0  0  0  0  0  0  0  0  0  0
    9.3531   10.7650   24.4995 N   0  0  0  0  0  0  0  0  0  0  0  0
    6.1912   10.1213   25.6499 N   0  0  0  0  0  0  0  0  0  0  0  0
    9.9892   11.4527   21.2480 O   0  0  0  0  0  0  0  0  0  0  0  0
    9.6642   12.8795   24.6564 H   0  0  0  0  0  0  0  0  0  0  0  0
    6.2803   13.5128   24.9482 H   0  0  0  0  0  0  0  0  0  0  0  0
    6.1769   12.7738   26.5652 H   0  0  0  0  0  0  0  0  0  0  0  0
    7.4823   13.9019   26.2035 H   0  0  0  0  0  0  0  0  0  0  0  0
   12.3839   10.5565   21.7844 H   0  0  0  0  0  0  0  0  0  0  0  0
   12.0862    8.9779   21.0427 H   0  0  0  0  0  0  0  0  0  0  0  0
   12.7749    9.0761   22.6687 H   0  0  0  0  0  0  0  0  0  0  0  0
    9.2373    7.9619   23.2736 H   0  0  0  0  0  0  0  0  0  0  0  0
   10.9393    7.5648   23.5410 H   0  0  0  0  0  0  0  0  0  0  0  0
   10.2618    7.4536   21.9185 H   0  0  0  0  0  0  0  0  0  0  0  0
    9.3688   13.0533   20.1059 H   0  0  0  0  0  0  0  0  0  0  0  0
    8.0656   12.0146   20.7623 H   0  0  0  0  0  0  0  0  0  0  0  0
    9.0735   11.4393   19.4083 H   0  0  0  0  0  0  0  0  0  0  0  0
   11.3103   11.2085   23.7923 H   0  0  0  0  0  0  0  0  0  0  0  0
   11.1953    9.7239   24.6881 H   0  0  0  0  0  0  0  0  0  0  0  0
    9.6449    9.5318   20.6400 H   0  0  0  0  0  0  0  0  0  0  0  0
    8.6137   10.1074   21.9546 H   0  0  0  0  0  0  0  0  0  0  0  0
    5.4801   10.7367   26.0603 H   0  0  0  0  0  0  0  0  0  0  0  0
    5.9797    9.1173   25.6518 H   0  0  0  0  0  0  0  0  0  0  0  0
  1  2  2  0  0  0  0
  1 12  1  0  0  0  0
  2  3  1  0  0  0  0
  2  4  1  0  0  0  0
  3 11  2  0  0  0  0
  3 13  1  0  0  0  0
  5 10  1  0  0  0  0
  6 10  1  0  0  0  0
  7 14  1  0  0  0  0
  8 10  1  0  0  0  0
  8 12  1  0  0  0  0
  9 10  1  0  0  0  0
  9 14  1  0  0  0  0
 11 12  1  0  0  0  0
  1 15  1  0  0  0  0
  4 16  1  0  0  0  0
  4 17  1  0  0  0  0
  4 18  1  0  0  0  0
  5 19  1  0  0  0  0
  5 20  1  0  0  0  0
  5 21  1  0  0  0  0
  6 22  1  0  0  0  0
  6 23  1  0  0  0  0
  6 24  1  0  0  0  0
  7 25  1  0  0  0  0
  7 26  1  0  0  0  0
  7 27  1  0  0  0  0
  8 28  1  0  0  0  0
  8 29  1  0  0  0  0
  9 30  1  0  0  0  0
  9 31  1  0  0  0  0
 13 32  1  0  0  0  0
 13 33  1  0  0  0  0
M  END
> <id>
EN300-1111245

> <smiles>
COCC(C)(C)CN1C=C(C)C(N)=N1

> <IUPAC Name>
1-(3-methoxy-2,2-dimethylpropyl)-4-methyl-1H-pyrazol-3-amine

> <CAS>
2138355-64-1

> <URL>
https://www.enaminestore.com/catalog/EN300-1111245

> <ROCS_ShapeQuery>
_x1140_x0812_0A_x1140_0A_x1097_0A_x0365_0A_x1097_0A_x0310_0A

> <ROCS_TanimotoCombo>
0.645 

> <ROCS_ShapeTanimoto>
0.200 

> <ROCS_ColorTanimoto>
0.445 

> <ROCS_RefTversky>
0.184 

> <ROCS_RefColorTversky>
0.546 

> <ROCS_RefTverskyCombo>
0.730 

> <ROCS_FitTversky>
1.713 

> <ROCS_FitColorTversky>
0.707 

> <ROCS_FitTverskyCombo>
2.419 

> <ROCS_ColorScore>
-4.314

> <ROCS_Overlap>
1888.535

> <ROCS_Rank>
60                  

$$$$
untitled-dbase-323544_8
  -OEChem-02092423213D

 28 28  0     0  0  0  0  0  0999 V2000
    7.7848   11.9974   25.5826 C   0  0  0  0  0  0  0  0  0  0  0  0
    7.3294   10.7264   25.3010 C   0  0  0  0  0  0  0  0  0  0  0  0
    8.7593   10.9373   23.6515 C   0  0  0  0  0  0  0  0  0  0  0  0
    9.5457   10.5966   22.4391 C   0  0  0  0  0  0  0  0  0  0  0  0
    7.4166   12.9281   26.6697 C   0  0  0  0  0  0  0  0  0  0  0  0
   11.9460    9.8758   23.1633 C   0  0  0  0  0  0  0  0  0  0  0  0
   11.2062    7.4785   23.0415 C   0  0  0  0  0  0  0  0  0  0  0  0
   11.6168    8.7696   20.9266 C   0  0  0  0  0  0  0  0  0  0  0  0
   11.1337    8.8502   22.3740 C   0  0  0  0  0  0  0  0  0  0  0  0
    7.8867   10.1171   24.1938 N   0  0  0  0  0  0  0  0  0  0  0  0
    6.3954   10.0820   26.0406 N   0  0  0  0  0  0  0  0  0  0  0  0
    9.9281   11.4300   21.6326 O   0  0  0  0  0  0  0  0  0  0  0  0
    9.7648    9.2570   22.3745 O   0  0  0  0  0  0  0  0  0  0  0  0
    8.9602   12.4577   24.4216 S   0  0  0  0  0  0  0  0  0  0  0  0
    8.0599   12.7805   27.5518 H   0  0  0  0  0  0  0  0  0  0  0  0
    7.5085   13.9821   26.3587 H   0  0  0  0  0  0  0  0  0  0  0  0
    6.3699   12.7938   26.9903 H   0  0  0  0  0  0  0  0  0  0  0  0
   11.8965   10.8618   22.6874 H   0  0  0  0  0  0  0  0  0  0  0  0
   11.5869    9.9685   24.1934 H   0  0  0  0  0  0  0  0  0  0  0  0
   13.0060    9.5983   23.1899 H   0  0  0  0  0  0  0  0  0  0  0  0
   10.6247    6.7395   22.4786 H   0  0  0  0  0  0  0  0  0  0  0  0
   10.7729    7.5107   24.0477 H   0  0  0  0  0  0  0  0  0  0  0  0
   12.2381    7.1213   23.1196 H   0  0  0  0  0  0  0  0  0  0  0  0
   11.0343    8.0340   20.3603 H   0  0  0  0  0  0  0  0  0  0  0  0
   11.5372    9.7371   20.4205 H   0  0  0  0  0  0  0  0  0  0  0  0
   12.6605    8.4381   20.8821 H   0  0  0  0  0  0  0  0  0  0  0  0
    6.0001   10.4937   26.8960 H   0  0  0  0  0  0  0  0  0  0  0  0
    6.1097    9.1160   25.8336 H   0  0  0  0  0  0  0  0  0  0  0  0
  1  2  2  0  0  0  0
  1  5  1  0  0  0  0
  1 14  1  0  0  0  0
  2 10  1  0  0  0  0
  2 11  1  0  0  0  0
  3  4  1  0  0  0  0
  3 10  2  0  0  0  0
  3 14  1  0  0  0  0
  4 12  2  0  0  0  0
  4 13  1  0  0  0  0
  6  9  1  0  0  0  0
  7  9  1  0  0  0  0
  8  9  1  0  0  0  0
  9 13  1  0  0  0  0
  5 15  1  0  0  0  0
  5 16  1  0  0  0  0
  5 17  1  0  0  0  0
  6 18  1  0  0  0  0
  6 19  1  0  0  0  0
  6 20  1  0  0  0  0
  7 21  1  0  0  0  0
  7 22  1  0  0  0  0
  7 23  1  0  0  0  0
  8 24  1  0  0  0  0
  8 25  1  0  0  0  0
  8 26  1  0  0  0  0
 11 27  1  0  0  0  0
 11 28  1  0  0  0  0
M  END
> <id>
EN300-359792

> <smiles>
CC=1SC(=NC1N)C(=O)OC(C)(C)C

> <MDLNUMBER>
MFCD30538248

> <IUPAC Name>
tert-butyl 4-amino-5-methyl-1,3-thiazole-2-carboxylate

> <CAS>
2091269-09-7

> <URL>
https://www.enaminestore.com/catalog/EN300-359792

> <ROCS_ShapeQuery>
_x1140_x0812_0A_x1140_0A_x1097_0A_x0365_0A_x1097_0A_x0310_0A

> <ROCS_TanimotoCombo>
0.644 

> <ROCS_ShapeTanimoto>
0.207 

> <ROCS_ColorTanimoto>
0.438 

> <ROCS_RefTversky>
0.190 

> <ROCS_RefColorTversky>
0.540 

> <ROCS_RefTverskyCombo>
0.729 

> <ROCS_FitTversky>
1.761 

> <ROCS_FitColorTversky>
0.698 

> <ROCS_FitTverskyCombo>
2.459 

> <ROCS_ColorScore>
-4.263

> <ROCS_Overlap>
1944.354

> <ROCS_Rank>
61                  

$$$$
untitled-dbase-42192_9
  -OEChem-02092423213D

 31 31  0     0  0  0  0  0  0999 V2000
    7.3987   10.7085   25.1581 C   0  0  0  0  0  0  0  0  0  0  0  0
    9.1528   10.0608   23.9169 C   0  0  0  0  0  0  0  0  0  0  0  0
    8.8971   12.2245   24.4554 C   0  0  0  0  0  0  0  0  0  0  0  0
    6.6229   11.4700   27.9807 C   0  0  0  0  0  0  0  0  0  0  0  0
   11.6067    7.9747   21.9727 C   0  0  0  0  0  0  0  0  0  0  0  0
   10.7912   10.2734   21.3901 C   0  0  0  0  0  0  0  0  0  0  0  0
   12.1424    9.9093   23.4710 C   0  0  0  0  0  0  0  0  0  0  0  0
    5.6601   11.2496   26.8639 C   0  0  0  0  0  0  0  0  0  0  0  0
   11.0886    9.3024   22.5375 C   0  0  0  0  0  0  0  0  0  0  0  0
    8.0401    9.6865   24.5686 N   0  0  0  0  0  0  0  0  0  0  0  0
    7.7667   11.9999   25.1444 N   0  0  0  0  0  0  0  0  0  0  0  0
    9.6419   11.3073   23.8174 N   0  0  0  0  0  0  0  0  0  0  0  0
    6.2174   10.3937   25.8637 N   0  0  0  0  0  0  0  0  0  0  0  0
    9.8673    9.0620   23.2843 N   0  0  0  0  0  0  0  0  0  0  0  0
    9.4422   13.8419   24.3823 Cl  0  0  0  0  0  0  0  0  0  0  0  0
    7.5403   11.9332   27.5885 H   0  0  0  0  0  0  0  0  0  0  0  0
    6.1686   12.1342   28.7306 H   0  0  0  0  0  0  0  0  0  0  0  0
    6.8701   10.5050   28.4473 H   0  0  0  0  0  0  0  0  0  0  0  0
   11.8272    7.2616   22.7756 H   0  0  0  0  0  0  0  0  0  0  0  0
   10.8723    7.5119   21.3042 H   0  0  0  0  0  0  0  0  0  0  0  0
   12.5337    8.1214   21.4062 H   0  0  0  0  0  0  0  0  0  0  0  0
   10.4186   11.2319   21.7699 H   0  0  0  0  0  0  0  0  0  0  0  0
   10.0230    9.8701   20.7200 H   0  0  0  0  0  0  0  0  0  0  0  0
   11.6882   10.4728   20.7934 H   0  0  0  0  0  0  0  0  0  0  0  0
   11.7973   10.8617   23.8901 H   0  0  0  0  0  0  0  0  0  0  0  0
   12.3713    9.2367   24.3050 H   0  0  0  0  0  0  0  0  0  0  0  0
   13.0771   10.1111   22.9350 H   0  0  0  0  0  0  0  0  0  0  0  0
    4.7461   10.7865   27.2641 H   0  0  0  0  0  0  0  0  0  0  0  0
    5.4106   12.2193   26.4084 H   0  0  0  0  0  0  0  0  0  0  0  0
    5.7706    9.5264   25.6354 H   0  0  0  0  0  0  0  0  0  0  0  0
    9.5290    8.1116   23.3379 H   0  0  0  0  0  0  0  0  0  0  0  0
  1 10  2  0  0  0  0
  1 11  1  0  0  0  0
  1 13  1  0  0  0  0
  2 10  1  0  0  0  0
  2 12  2  0  0  0  0
  2 14  1  0  0  0  0
  3 11  2  0  0  0  0
  3 12  1  0  0  0  0
  3 15  1  0  0  0  0
  4  8  1  0  0  0  0
  5  9  1  0  0  0  0
  6  9  1  0  0  0  0
  7  9  1  0  0  0  0
  8 13  1  0  0  0  0
  9 14  1  0  0  0  0
  4 16  1  0  0  0  0
  4 17  1  0  0  0  0
  4 18  1  0  0  0  0
  5 19  1  0  0  0  0
  5 20  1  0  0  0  0
  5 21  1  0  0  0  0
  6 22  1  0  0  0  0
  6 23  1  0  0  0  0
  6 24  1  0  0  0  0
  7 25  1  0  0  0  0
  7 26  1  0  0  0  0
  7 27  1  0  0  0  0
  8 28  1  0  0  0  0
  8 29  1  0  0  0  0
 13 30  1  0  0  0  0
 14 31  1  0  0  0  0
M  END
> <id>
EN300-205349

> <smiles>
CCNC=1N=C(Cl)N=C(NC(C)(C)C)N1

> <MDLNUMBER>
MFCD00055513

> <IUPAC Name>
N2-tert-butyl-6-chloro-N4-ethyl-1,3,5-triazine-2,4-diamine

> <CAS>
5915-41-3

> <Purity>
95

> <URL>
https://www.enaminestore.com/catalog/EN300-205349

> <ROCS_ShapeQuery>
_x1140_x0812_0A_x1140_0A_x1097_0A_x0365_0A_x1097_0A_x0310_0A

> <ROCS_TanimotoCombo>
0.644 

> <ROCS_ShapeTanimoto>
0.230 

> <ROCS_ColorTanimoto>
0.414 

> <ROCS_RefTversky>
0.208 

> <ROCS_RefColorTversky>
0.553 

> <ROCS_RefTverskyCombo>
0.761 

> <ROCS_FitTversky>
1.849 

> <ROCS_FitColorTversky>
0.623 

> <ROCS_FitTverskyCombo>
2.472 

> <ROCS_ColorScore>
-4.400

> <ROCS_Overlap>
2130.552

> <ROCS_Rank>
62                  

$$$$
untitled-dbase-147529_2
  -OEChem-02092423213D

 16 16  0     0  0  0  0  0  0999 V2000
    8.2043   12.1246   25.3473 C   0  0  0  0  0  0  0  0  0  0  0  0
    9.0174   12.4978   24.2830 C   0  0  0  0  0  0  0  0  0  0  0  0
    7.7890   10.8044   25.4144 C   0  0  0  0  0  0  0  0  0  0  0  0
    9.3851   11.5528   23.3316 C   0  0  0  0  0  0  0  0  0  0  0  0
    8.9172   10.2582   23.4891 C   0  0  0  0  0  0  0  0  0  0  0  0
   11.1423    9.0152   22.4808 C   0  0  0  0  0  0  0  0  0  0  0  0
    8.1257    9.8582   24.5095 N   0  0  0  0  0  0  0  0  0  0  0  0
   10.1799   11.9259   22.2946 O   0  0  0  0  0  0  0  0  0  0  0  0
    9.3455    8.9852   22.3093 S   0  0  0  0  0  0  0  0  0  0  0  0
    7.9052   12.8441   26.1007 H   0  0  0  0  0  0  0  0  0  0  0  0
    9.3604   13.5254   24.2015 H   0  0  0  0  0  0  0  0  0  0  0  0
    7.1538   10.4626   26.2249 H   0  0  0  0  0  0  0  0  0  0  0  0
   11.5919    8.2768   21.8124 H   0  0  0  0  0  0  0  0  0  0  0  0
   11.4208    8.7797   23.5109 H   0  0  0  0  0  0  0  0  0  0  0  0
   11.5231   10.0071   22.2254 H   0  0  0  0  0  0  0  0  0  0  0  0
   10.4012   12.8694   22.3599 H   0  0  0  0  0  0  0  0  0  0  0  0
  1  2  2  0  0  0  0
  1  3  1  0  0  0  0
  2  4  1  0  0  0  0
  3  7  2  0  0  0  0
  4  5  2  0  0  0  0
  4  8  1  0  0  0  0
  5  7  1  0  0  0  0
  5  9  1  0  0  0  0
  6  9  1  0  0  0  0
  1 10  1  0  0  0  0
  2 11  1  0  0  0  0
  3 12  1  0  0  0  0
  6 13  1  0  0  0  0
  6 14  1  0  0  0  0
  6 15  1  0  0  0  0
  8 16  1  0  0  0  0
M  END
> <id>
EN300-1600115

> <smiles>
CSC=1N=CC=CC1O

> <MDLNUMBER>
MFCD00955792

> <IUPAC Name>
2-(methylsulfanyl)pyridin-3-ol

> <CAS>
32637-37-9

> <URL>
https://www.enaminestore.com/catalog/EN300-1600115

> <ROCS_ShapeQuery>
_x1140_x0812_0A_x1140_0A_x1097_0A_x0365_0A_x1097_0A_x0310_0A

> <ROCS_TanimotoCombo>
0.644 

> <ROCS_ShapeTanimoto>
0.181 

> <ROCS_ColorTanimoto>
0.463 

> <ROCS_RefTversky>
0.167 

> <ROCS_RefColorTversky>
0.524 

> <ROCS_RefTverskyCombo>
0.691 

> <ROCS_FitTversky>
1.917 

> <ROCS_FitColorTversky>
0.799 

> <ROCS_FitTverskyCombo>
2.715 

> <ROCS_ColorScore>
-4.112

> <ROCS_Overlap>
1707.936

> <ROCS_Rank>
63                  

$$$$
untitled-dbase-142397_3
  -OEChem-02092423213D

 25 25  0     0  0  0  0  0  0999 V2000
    9.3000   12.3911   24.5293 C   0  0  0  0  0  0  0  0  0  0  0  0
    8.5907   11.9173   25.6273 C   0  0  0  0  0  0  0  0  0  0  0  0
    9.3865   11.6168   23.3777 C   0  0  0  0  0  0  0  0  0  0  0  0
    7.9908   10.6727   25.5240 C   0  0  0  0  0  0  0  0  0  0  0  0
    8.7511   10.3855   23.3751 C   0  0  0  0  0  0  0  0  0  0  0  0
    7.2215   10.1330   26.6831 C   0  0  0  0  0  0  0  0  0  0  0  0
   11.2232    8.8547   22.5568 C   0  0  0  0  0  0  0  0  0  0  0  0
    8.8081    9.5078   22.1671 C   0  0  0  0  0  0  0  0  0  0  0  0
    9.8041    8.3527   22.3422 C   0  0  0  0  0  0  0  0  0  0  0  0
    8.0529    9.8918   24.4222 N   0  0  0  0  0  0  0  0  0  0  0  0
   10.1015   12.0870   22.2617 N   0  0  0  0  0  0  0  0  0  0  0  0
    9.7809   13.3644   24.5820 H   0  0  0  0  0  0  0  0  0  0  0  0
    8.5156   12.5117   26.5316 H   0  0  0  0  0  0  0  0  0  0  0  0
    6.1700   10.4373   26.6175 H   0  0  0  0  0  0  0  0  0  0  0  0
    7.2658    9.0369   26.7141 H   0  0  0  0  0  0  0  0  0  0  0  0
    7.6306   10.4951   27.6350 H   0  0  0  0  0  0  0  0  0  0  0  0
   11.5493    9.4789   21.7187 H   0  0  0  0  0  0  0  0  0  0  0  0
   11.2954    9.4459   23.4752 H   0  0  0  0  0  0  0  0  0  0  0  0
   11.9152    8.0108   22.6407 H   0  0  0  0  0  0  0  0  0  0  0  0
    7.8104    9.0952   21.9445 H   0  0  0  0  0  0  0  0  0  0  0  0
    9.0882   10.0956   21.2775 H   0  0  0  0  0  0  0  0  0  0  0  0
    9.5097    7.7325   23.1975 H   0  0  0  0  0  0  0  0  0  0  0  0
    9.7827    7.7039   21.4582 H   0  0  0  0  0  0  0  0  0  0  0  0
   10.5069   13.0029   22.2875 H   0  0  0  0  0  0  0  0  0  0  0  0
   10.1169   11.5409   21.4218 H   0  0  0  0  0  0  0  0  0  0  0  0
  1  2  2  0  0  0  0
  1  3  1  0  0  0  0
  2  4  1  0  0  0  0
  3  5  2  0  0  0  0
  3 11  1  0  0  0  0
  4  6  1  0  0  0  0
  4 10  2  0  0  0  0
  5  8  1  0  0  0  0
  5 10  1  0  0  0  0
  7  9  1  0  0  0  0
  8  9  1  0  0  0  0
  1 12  1  0  0  0  0
  2 13  1  0  0  0  0
  6 14  1  0  0  0  0
  6 15  1  0  0  0  0
  6 16  1  0  0  0  0
  7 17  1  0  0  0  0
  7 18  1  0  0  0  0
  7 19  1  0  0  0  0
  8 20  1  0  0  0  0
  8 21  1  0  0  0  0
  9 22  1  0  0  0  0
  9 23  1  0  0  0  0
 11 24  1  0  0  0  0
 11 25  1  0  0  0  0
M  END
> <id>
EN300-1622329

> <smiles>
CCCC=1N=C(C)C=CC1N

> <IUPAC Name>
6-methyl-2-propylpyridin-3-amine

> <CAS>
1860536-11-3

> <URL>
https://www.enaminestore.com/catalog/EN300-1622329

> <ROCS_ShapeQuery>
_x1140_x0812_0A_x1140_0A_x1097_0A_x0365_0A_x1097_0A_x0310_0A

> <ROCS_TanimotoCombo>
0.644 

> <ROCS_ShapeTanimoto>
0.189 

> <ROCS_ColorTanimoto>
0.455 

> <ROCS_RefTversky>
0.174 

> <ROCS_RefColorTversky>
0.518 

> <ROCS_RefTverskyCombo>
0.692 

> <ROCS_FitTversky>
1.820 

> <ROCS_FitColorTversky>
0.789 

> <ROCS_FitTverskyCombo>
2.610 

> <ROCS_ColorScore>
-4.065

> <ROCS_Overlap>
1783.884

> <ROCS_Rank>
64                  

$$$$
untitled-dbase-523957_2
  -OEChem-02092423213D

 24 24  0     0  0  0  0  0  0999 V2000
    7.8644   12.0531   25.3607 C   0  0  0  0  0  0  0  0  0  0  0  0
    8.6897   12.6031   24.3862 C   0  0  0  0  0  0  0  0  0  0  0  0
    7.7311   10.6744   25.3950 C   0  0  0  0  0  0  0  0  0  0  0  0
    9.3473   11.7694   23.4885 C   0  0  0  0  0  0  0  0  0  0  0  0
    9.1477   10.4034   23.6068 C   0  0  0  0  0  0  0  0  0  0  0  0
   12.0849    9.1888   23.4837 C   0  0  0  0  0  0  0  0  0  0  0  0
   10.8702    7.4832   22.0833 C   0  0  0  0  0  0  0  0  0  0  0  0
   10.7453    8.5361   23.1747 C   0  0  0  0  0  0  0  0  0  0  0  0
    8.3537    9.8323   24.5401 N   0  0  0  0  0  0  0  0  0  0  0  0
   10.1832   12.3241   22.5015 N   0  0  0  0  0  0  0  0  0  0  0  0
    9.7885    9.5783   22.7294 N   0  0  0  0  0  0  0  0  0  0  0  0
    7.3419   12.6836   26.0710 H   0  0  0  0  0  0  0  0  0  0  0  0
    8.8125   13.6818   24.3365 H   0  0  0  0  0  0  0  0  0  0  0  0
    7.0989   10.1952   26.1353 H   0  0  0  0  0  0  0  0  0  0  0  0
   12.5058    9.6579   22.5885 H   0  0  0  0  0  0  0  0  0  0  0  0
   11.9859    9.9580   24.2578 H   0  0  0  0  0  0  0  0  0  0  0  0
   12.8039    8.4466   23.8477 H   0  0  0  0  0  0  0  0  0  0  0  0
   11.2706    7.9231   21.1634 H   0  0  0  0  0  0  0  0  0  0  0  0
    9.8943    7.0437   21.8520 H   0  0  0  0  0  0  0  0  0  0  0  0
   11.5463    6.6744   22.3826 H   0  0  0  0  0  0  0  0  0  0  0  0
   10.3437    8.0741   24.0831 H   0  0  0  0  0  0  0  0  0  0  0  0
   10.2594   13.3197   22.4256 H   0  0  0  0  0  0  0  0  0  0  0  0
   10.6159   11.7208   21.8294 H   0  0  0  0  0  0  0  0  0  0  0  0
    9.6389    9.6444   21.7470 H   0  0  0  0  0  0  0  0  0  0  0  0
  1  2  2  0  0  0  0
  1  3  1  0  0  0  0
  2  4  1  0  0  0  0
  3  9  2  0  0  0  0
  4  5  2  0  0  0  0
  4 10  1  0  0  0  0
  5  9  1  0  0  0  0
  5 11  1  0  0  0  0
  6  8  1  0  0  0  0
  7  8  1  0  0  0  0
  8 11  1  0  0  0  0
  1 12  1  0  0  0  0
  2 13  1  0  0  0  0
  3 14  1  0  0  0  0
  6 15  1  0  0  0  0
  6 16  1  0  0  0  0
  6 17  1  0  0  0  0
  7 18  1  0  0  0  0
  7 19  1  0  0  0  0
  7 20  1  0  0  0  0
  8 21  1  0  0  0  0
 10 22  1  0  0  0  0
 10 23  1  0  0  0  0
 11 24  1  0  0  0  0
M  END
> <id>
EN300-93661

> <smiles>
CC(C)NC=1N=CC=CC1N

> <MDLNUMBER>
MFCD08692138

> <IUPAC Name>
N2-(propan-2-yl)pyridine-2,3-diamine

> <CAS>
24188-40-7

> <Purity>
95

> <URL>
https://www.enaminestore.com/catalog/EN300-93661

> <ROCS_ShapeQuery>
_x1140_x0812_0A_x1140_0A_x1097_0A_x0365_0A_x1097_0A_x0310_0A

> <ROCS_TanimotoCombo>
0.644 

> <ROCS_ShapeTanimoto>
0.199 

> <ROCS_ColorTanimoto>
0.445 

> <ROCS_RefTversky>
0.182 

> <ROCS_RefColorTversky>
0.546 

> <ROCS_RefTverskyCombo>
0.727 

> <ROCS_FitTversky>
1.887 

> <ROCS_FitColorTversky>
0.707 

> <ROCS_FitTverskyCombo>
2.593 

> <ROCS_ColorScore>
-4.311

> <ROCS_Overlap>
1861.023

> <ROCS_Rank>
65                  

$$$$
untitled-dbase-426198_5
  -OEChem-02092423213D

 30 30  0     0  0  0  0  0  0999 V2000
    8.9974   12.0461   24.8085 C   0  0  0  0  0  0  0  0  0  0  0  0
    7.7167   11.9705   25.2991 C   0  0  0  0  0  0  0  0  0  0  0  0
    7.3984   10.6004   25.2426 C   0  0  0  0  0  0  0  0  0  0  0  0
   12.0475    9.5300   21.9868 C   0  0  0  0  0  0  0  0  0  0  0  0
   10.2378    8.0407   22.8426 C   0  0  0  0  0  0  0  0  0  0  0  0
    9.0720   12.0281   20.3297 C   0  0  0  0  0  0  0  0  0  0  0  0
   10.6775   10.3188   23.9230 C   0  0  0  0  0  0  0  0  0  0  0  0
    9.6385   10.1138   21.5695 C   0  0  0  0  0  0  0  0  0  0  0  0
   10.6256    9.5097   22.5925 C   0  0  0  0  0  0  0  0  0  0  0  0
    8.3964    9.8589   24.7544 N   0  0  0  0  0  0  0  0  0  0  0  0
    9.3543   10.7664   24.4996 N   0  0  0  0  0  0  0  0  0  0  0  0
    6.1940   10.1190   25.6500 N   0  0  0  0  0  0  0  0  0  0  0  0
    9.9913   11.4528   21.2481 O   0  0  0  0  0  0  0  0  0  0  0  0
    6.7447   13.2449   25.8475 Cl  0  0  0  0  0  0  0  0  0  0  0  0
    9.6692   12.8800   24.6561 H   0  0  0  0  0  0  0  0  0  0  0  0
   12.3845   10.5526   21.7842 H   0  0  0  0  0  0  0  0  0  0  0  0
   12.0840    8.9745   21.0428 H   0  0  0  0  0  0  0  0  0  0  0  0
   12.7730    9.0716   22.6686 H   0  0  0  0  0  0  0  0  0  0  0  0
    9.2336    7.9635   23.2740 H   0  0  0  0  0  0  0  0  0  0  0  0
   10.9350    7.5635   23.5413 H   0  0  0  0  0  0  0  0  0  0  0  0
   10.2571    7.4533   21.9188 H   0  0  0  0  0  0  0  0  0  0  0  0
    9.3734   13.0544   20.1059 H   0  0  0  0  0  0  0  0  0  0  0  0
    8.0685   12.0179   20.7625 H   0  0  0  0  0  0  0  0  0  0  0  0
    9.0753   11.4408   19.4084 H   0  0  0  0  0  0  0  0  0  0  0  0
   11.3122   11.2066   23.7923 H   0  0  0  0  0  0  0  0  0  0  0  0
   11.1947    9.7223   24.6882 H   0  0  0  0  0  0  0  0  0  0  0  0
    9.6436    9.5325   20.6402 H   0  0  0  0  0  0  0  0  0  0  0  0
    8.6135   10.1099   21.9549 H   0  0  0  0  0  0  0  0  0  0  0  0
    5.4806   10.7305   26.0613 H   0  0  0  0  0  0  0  0  0  0  0  0
    5.9876    9.1142   25.6495 H   0  0  0  0  0  0  0  0  0  0  0  0
  1  2  2  0  0  0  0
  1 11  1  0  0  0  0
  2  3  1  0  0  0  0
  2 14  1  0  0  0  0
  3 10  2  0  0  0  0
  3 12  1  0  0  0  0
  4  9  1  0  0  0  0
  5  9  1  0  0  0  0
  6 13  1  0  0  0  0
  7  9  1  0  0  0  0
  7 11  1  0  0  0  0
  8  9  1  0  0  0  0
  8 13  1  0  0  0  0
 10 11  1  0  0  0  0
  1 15  1  0  0  0  0
  4 16  1  0  0  0  0
  4 17  1  0  0  0  0
  4 18  1  0  0  0  0
  5 19  1  0  0  0  0
  5 20  1  0  0  0  0
  5 21  1  0  0  0  0
  6 22  1  0  0  0  0
  6 23  1  0  0  0  0
  6 24  1  0  0  0  0
  7 25  1  0  0  0  0
  7 26  1  0  0  0  0
  8 27  1  0  0  0  0
  8 28  1  0  0  0  0
 12 29  1  0  0  0  0
 12 30  1  0  0  0  0
M  END
> <id>
EN300-1111246

> <smiles>
COCC(C)(C)CN1C=C(Cl)C(N)=N1

> <IUPAC Name>
4-chloro-1-(3-methoxy-2,2-dimethylpropyl)-1H-pyrazol-3-amine

> <CAS>
2138243-96-4

> <URL>
https://www.enaminestore.com/catalog/EN300-1111246

> <ROCS_ShapeQuery>
_x1140_x0812_0A_x1140_0A_x1097_0A_x0365_0A_x1097_0A_x0310_0A

> <ROCS_TanimotoCombo>
0.643 

> <ROCS_ShapeTanimoto>
0.198 

> <ROCS_ColorTanimoto>
0.445 

> <ROCS_RefTversky>
0.183 

> <ROCS_RefColorTversky>
0.546 

> <ROCS_RefTverskyCombo>
0.729 

> <ROCS_FitTversky>
1.711 

> <ROCS_FitColorTversky>
0.706 

> <ROCS_FitTverskyCombo>
2.417 

> <ROCS_ColorScore>
-4.314

> <ROCS_Overlap>
1876.040

> <ROCS_Rank>
66                  

$$$$
untitled-dbase-561255_6
  -OEChem-02092423213D

 34 35  0     0  0  0  0  0  0999 V2000
   10.1819   13.7813   23.5498 B   0  0  0  0  0  0  0  0  0  0  0  0
    6.6616    9.8099   26.5778 C   0  0  0  0  0  0  0  0  0  0  0  0
    7.1529   11.1095   26.6562 C   0  0  0  0  0  0  0  0  0  0  0  0
    8.6591   12.7742   25.3356 C   0  0  0  0  0  0  0  0  0  0  0  0
    7.0143    9.0339   25.4853 C   0  0  0  0  0  0  0  0  0  0  0  0
    9.3261   12.6063   24.1436 C   0  0  0  0  0  0  0  0  0  0  0  0
    7.9829   11.5663   25.6190 C   0  0  0  0  0  0  0  0  0  0  0  0
    8.2628   10.6868   24.5749 C   0  0  0  0  0  0  0  0  0  0  0  0
    9.5927   10.7735   22.4785 C   0  0  0  0  0  0  0  0  0  0  0  0
   12.0521   10.0452   22.8770 C   0  0  0  0  0  0  0  0  0  0  0  0
   11.2387    7.7108   23.3224 C   0  0  0  0  0  0  0  0  0  0  0  0
   11.2781    8.5943   20.9716 C   0  0  0  0  0  0  0  0  0  0  0  0
   11.0785    8.9499   22.4442 C   0  0  0  0  0  0  0  0  0  0  0  0
    7.8071    9.4203   24.4614 N   0  0  0  0  0  0  0  0  0  0  0  0
    9.0916   11.3291   23.6642 N   0  0  0  0  0  0  0  0  0  0  0  0
    9.8320   11.4708   21.5058 O   0  0  0  0  0  0  0  0  0  0  0  0
   10.2816   14.9871   24.1997 O   0  0  0  0  0  0  0  0  0  0  0  0
   10.8374   13.5931   22.3564 O   0  0  0  0  0  0  0  0  0  0  0  0
    9.7432    9.4326   22.6193 O   0  0  0  0  0  0  0  0  0  0  0  0
    6.0167    9.4145   27.3551 H   0  0  0  0  0  0  0  0  0  0  0  0
    6.8977   11.7467   27.4970 H   0  0  0  0  0  0  0  0  0  0  0  0
    8.6481   13.6648   25.9529 H   0  0  0  0  0  0  0  0  0  0  0  0
    6.6415    8.0163   25.4036 H   0  0  0  0  0  0  0  0  0  0  0  0
   11.9403   10.9363   22.2490 H   0  0  0  0  0  0  0  0  0  0  0  0
   11.8960   10.3340   23.9215 H   0  0  0  0  0  0  0  0  0  0  0  0
   13.0903    9.7137   22.7610 H   0  0  0  0  0  0  0  0  0  0  0  0
   10.5421    6.9224   23.0154 H   0  0  0  0  0  0  0  0  0  0  0  0
   11.0037    7.9405   24.3680 H   0  0  0  0  0  0  0  0  0  0  0  0
   12.2570    7.3113   23.2756 H   0  0  0  0  0  0  0  0  0  0  0  0
   10.5799    7.8086   20.6609 H   0  0  0  0  0  0  0  0  0  0  0  0
   11.1306    9.4639   20.3231 H   0  0  0  0  0  0  0  0  0  0  0  0
   12.2855    8.1984   20.7994 H   0  0  0  0  0  0  0  0  0  0  0  0
   10.8371   15.6357   23.7374 H   0  0  0  0  0  0  0  0  0  0  0  0
   11.3300   14.3895   22.0960 H   0  0  0  0  0  0  0  0  0  0  0  0
  1  6  1  0  0  0  0
  1 17  1  0  0  0  0
  1 18  1  0  0  0  0
  2  3  2  0  0  0  0
  2  5  1  0  0  0  0
  3  7  1  0  0  0  0
  4  6  2  0  0  0  0
  4  7  1  0  0  0  0
  5 14  2  0  0  0  0
  6 15  1  0  0  0  0
  7  8  2  0  0  0  0
  8 14  1  0  0  0  0
  8 15  1  0  0  0  0
  9 15  1  0  0  0  0
  9 16  2  0  0  0  0
  9 19  1  0  0  0  0
 10 13  1  0  0  0  0
 11 13  1  0  0  0  0
 12 13  1  0  0  0  0
 13 19  1  0  0  0  0
  2 20  1  0  0  0  0
  3 21  1  0  0  0  0
  4 22  1  0  0  0  0
  5 23  1  0  0  0  0
 10 24  1  0  0  0  0
 10 25  1  0  0  0  0
 10 26  1  0  0  0  0
 11 27  1  0  0  0  0
 11 28  1  0  0  0  0
 11 29  1  0  0  0  0
 12 30  1  0  0  0  0
 12 31  1  0  0  0  0
 12 32  1  0  0  0  0
 17 33  1  0  0  0  0
 18 34  1  0  0  0  0
M  END
> <id>
EN300-12583172

> <smiles>
CC(C)(C)OC(=O)N1C(=CC=2C=CC=NC12)B(O)O

> <MDLNUMBER>
MFCD10696637

> <IUPAC Name>
{1-[(tert-butoxy)carbonyl]-1H-pyrrolo[2,3-b]pyridin-2-yl}boronic acid

> <CAS>
1373273-49-4

> <URL>
https://www.enaminestore.com/catalog/EN300-12583172

> <ROCS_ShapeQuery>
_x1140_x0812_0A_x1140_0A_x1097_0A_x0365_0A_x1097_0A_x0310_0A

> <ROCS_TanimotoCombo>
0.643 

> <ROCS_ShapeTanimoto>
0.258 

> <ROCS_ColorTanimoto>
0.385 

> <ROCS_RefTversky>
0.232 

> <ROCS_RefColorTversky>
0.461 

> <ROCS_RefTverskyCombo>
0.693 

> <ROCS_FitTversky>
1.746 

> <ROCS_FitColorTversky>
0.701 

> <ROCS_FitTverskyCombo>
2.446 

> <ROCS_ColorScore>
-3.622

> <ROCS_Overlap>
2382.729

> <ROCS_Rank>
67                  

$$$$
untitled-dbase-393345_8
  -OEChem-02092423213D

 24 24  0     0  0  0  0  0  0999 V2000
    8.5891   12.3284   24.3561 C   0  0  0  0  0  0  0  0  0  0  0  0
    9.2020   11.5003   23.4381 C   0  0  0  0  0  0  0  0  0  0  0  0
    8.8335   10.1716   23.4933 C   0  0  0  0  0  0  0  0  0  0  0  0
    7.4091   10.5860   25.2155 C   0  0  0  0  0  0  0  0  0  0  0  0
   10.1690   12.0226   22.4881 C   0  0  0  0  0  0  0  0  0  0  0  0
   10.9523    9.1277   22.6520 C   0  0  0  0  0  0  0  0  0  0  0  0
   11.8254   13.7077   22.1489 C   0  0  0  0  0  0  0  0  0  0  0  0
    9.4310    9.1805   22.5492 C   0  0  0  0  0  0  0  0  0  0  0  0
    7.6846   11.9033   25.2625 N   0  0  0  0  0  0  0  0  0  0  0  0
    7.9370    9.6781   24.3725 N   0  0  0  0  0  0  0  0  0  0  0  0
    6.4666   10.1051   26.1506 N   0  0  0  0  0  0  0  0  0  0  0  0
   10.3646   11.5557   21.3572 O   0  0  0  0  0  0  0  0  0  0  0  0
   10.8424   13.1013   22.9948 O   0  0  0  0  0  0  0  0  0  0  0  0
    8.8090   13.3909   24.3970 H   0  0  0  0  0  0  0  0  0  0  0  0
   11.3935   10.1131   22.4675 H   0  0  0  0  0  0  0  0  0  0  0  0
   11.3650    8.4287   21.9178 H   0  0  0  0  0  0  0  0  0  0  0  0
   11.2681    8.7993   23.6480 H   0  0  0  0  0  0  0  0  0  0  0  0
   12.2852   14.5511   22.6699 H   0  0  0  0  0  0  0  0  0  0  0  0
   11.3514   14.0506   21.2257 H   0  0  0  0  0  0  0  0  0  0  0  0
   12.5931   12.9682   21.9091 H   0  0  0  0  0  0  0  0  0  0  0  0
    9.0209    8.1764   22.7395 H   0  0  0  0  0  0  0  0  0  0  0  0
    9.1469    9.4209   21.5128 H   0  0  0  0  0  0  0  0  0  0  0  0
    6.0862   10.7357   26.8258 H   0  0  0  0  0  0  0  0  0  0  0  0
    6.2685    9.1262   26.1813 H   0  0  0  0  0  0  0  0  0  0  0  0
  1  2  1  0  0  0  0
  1  9  2  0  0  0  0
  2  3  2  0  0  0  0
  2  5  1  0  0  0  0
  3  8  1  0  0  0  0
  3 10  1  0  0  0  0
  4  9  1  0  0  0  0
  4 10  2  0  0  0  0
  4 11  1  0  0  0  0
  5 12  2  0  0  0  0
  5 13  1  0  0  0  0
  6  8  1  0  0  0  0
  7 13  1  0  0  0  0
  1 14  1  0  0  0  0
  6 15  1  0  0  0  0
  6 16  1  0  0  0  0
  6 17  1  0  0  0  0
  7 18  1  0  0  0  0
  7 19  1  0  0  0  0
  7 20  1  0  0  0  0
  8 21  1  0  0  0  0
  8 22  1  0  0  0  0
 11 23  1  0  0  0  0
 11 24  1  0  0  0  0
M  END
> <id>
EN300-1722216

> <smiles>
CCC=1N=C(N)N=CC1C(=O)OC

> <MDLNUMBER>
MFCD28144358

> <IUPAC Name>
methyl 2-amino-4-ethylpyrimidine-5-carboxylate

> <CAS>
1823489-86-6

> <Purity>
95

> <URL>
https://www.enaminestore.com/catalog/EN300-1722216

> <ROCS_ShapeQuery>
_x1140_x0812_0A_x1140_0A_x1097_0A_x0365_0A_x1097_0A_x0310_0A

> <ROCS_TanimotoCombo>
0.643 

> <ROCS_ShapeTanimoto>
0.245 

> <ROCS_ColorTanimoto>
0.398 

> <ROCS_RefTversky>
0.218 

> <ROCS_RefColorTversky>
0.538 

> <ROCS_RefTverskyCombo>
0.755 

> <ROCS_FitTversky>
2.063 

> <ROCS_FitColorTversky>
0.605 

> <ROCS_FitTverskyCombo>
2.668 

> <ROCS_ColorScore>
-4.276

> <ROCS_Overlap>
2229.399

> <ROCS_Rank>
68                  

$$$$
untitled-dbase-59404_4
  -OEChem-02092423213D

 25 25  0     0  0  0  0  0  0999 V2000
    7.5429   12.0884   25.1806 C   0  0  0  0  0  0  0  0  0  0  0  0
    8.4412   12.5126   24.2078 C   0  0  0  0  0  0  0  0  0  0  0  0
    7.4650   10.7302   25.4434 C   0  0  0  0  0  0  0  0  0  0  0  0
    9.2231   11.5789   23.5370 C   0  0  0  0  0  0  0  0  0  0  0  0
    9.0702   10.2435   23.8734 C   0  0  0  0  0  0  0  0  0  0  0  0
   10.1574   12.0328   22.5160 C   0  0  0  0  0  0  0  0  0  0  0  0
   13.2583   12.4948   22.1084 C   0  0  0  0  0  0  0  0  0  0  0  0
    9.7824    7.8875   23.4645 C   0  0  0  0  0  0  0  0  0  0  0  0
   12.0581   13.4172   22.1225 C   0  0  0  0  0  0  0  0  0  0  0  0
    8.2082    9.7935   24.8126 N   0  0  0  0  0  0  0  0  0  0  0  0
    9.8621    9.2852   23.1921 N   0  0  0  0  0  0  0  0  0  0  0  0
   10.1207   11.6819   21.3305 O   0  0  0  0  0  0  0  0  0  0  0  0
   11.0818   12.8983   23.0320 O   0  0  0  0  0  0  0  0  0  0  0  0
    6.9221   12.7984   25.7150 H   0  0  0  0  0  0  0  0  0  0  0  0
    8.5226   13.5724   23.9811 H   0  0  0  0  0  0  0  0  0  0  0  0
    6.7799   10.3482   26.1931 H   0  0  0  0  0  0  0  0  0  0  0  0
   13.7092   12.4259   23.1023 H   0  0  0  0  0  0  0  0  0  0  0  0
   12.9697   11.4907   21.7808 H   0  0  0  0  0  0  0  0  0  0  0  0
   14.0136   12.8551   21.4021 H   0  0  0  0  0  0  0  0  0  0  0  0
    9.0358    7.7089   24.2523 H   0  0  0  0  0  0  0  0  0  0  0  0
    9.4859    7.3522   22.5504 H   0  0  0  0  0  0  0  0  0  0  0  0
   10.7643    7.5230   23.8007 H   0  0  0  0  0  0  0  0  0  0  0  0
   11.6119   13.4817   21.1256 H   0  0  0  0  0  0  0  0  0  0  0  0
   12.3481   14.4197   22.4508 H   0  0  0  0  0  0  0  0  0  0  0  0
   10.4919    9.6361   22.5002 H   0  0  0  0  0  0  0  0  0  0  0  0
  1  2  2  0  0  0  0
  1  3  1  0  0  0  0
  2  4  1  0  0  0  0
  3 10  2  0  0  0  0
  4  5  2  0  0  0  0
  4  6  1  0  0  0  0
  5 10  1  0  0  0  0
  5 11  1  0  0  0  0
  6 12  2  0  0  0  0
  6 13  1  0  0  0  0
  7  9  1  0  0  0  0
  8 11  1  0  0  0  0
  9 13  1  0  0  0  0
  1 14  1  0  0  0  0
  2 15  1  0  0  0  0
  3 16  1  0  0  0  0
  7 17  1  0  0  0  0
  7 18  1  0  0  0  0
  7 19  1  0  0  0  0
  8 20  1  0  0  0  0
  8 21  1  0  0  0  0
  8 22  1  0  0  0  0
  9 23  1  0  0  0  0
  9 24  1  0  0  0  0
 11 25  1  0  0  0  0
M  END
> <id>
EN300-98106

> <smiles>
CCOC(=O)C=1C=CC=NC1NC

> <MDLNUMBER>
MFCD11119739

> <IUPAC Name>
ethyl 2-(methylamino)pyridine-3-carboxylate

> <CAS>
103976-61-0

> <Purity>
95

> <URL>
https://www.enaminestore.com/catalog/EN300-98106

> <MP>
49-50

> <ROCS_ShapeQuery>
_x1140_x0812_0A_x1140_0A_x1097_0A_x0365_0A_x1097_0A_x0310_0A

> <ROCS_TanimotoCombo>
0.643 

> <ROCS_ShapeTanimoto>
0.227 

> <ROCS_ColorTanimoto>
0.416 

> <ROCS_RefTversky>
0.204 

> <ROCS_RefColorTversky>
0.452 

> <ROCS_RefTverskyCombo>
0.656 

> <ROCS_FitTversky>
1.945 

> <ROCS_FitColorTversky>
0.839 

> <ROCS_FitTverskyCombo>
2.784 

> <ROCS_ColorScore>
-3.526

> <ROCS_Overlap>
2093.785

> <ROCS_Rank>
69                  

$$$$
untitled-dbase-284748_4
  -OEChem-02092423213D

 25 25  0     0  0  0  0  0  0999 V2000
    8.5889   11.9183   25.6265 C   0  0  0  0  0  0  0  0  0  0  0  0
    7.9925   10.6718   25.5256 C   0  0  0  0  0  0  0  0  0  0  0  0
    9.2961   12.3924   24.5272 C   0  0  0  0  0  0  0  0  0  0  0  0
    9.3839   11.6164   23.3768 C   0  0  0  0  0  0  0  0  0  0  0  0
    8.7521   10.3833   23.3766 C   0  0  0  0  0  0  0  0  0  0  0  0
    9.9483   13.7336   24.6102 C   0  0  0  0  0  0  0  0  0  0  0  0
   11.2247    8.8562   22.5534 C   0  0  0  0  0  0  0  0  0  0  0  0
    8.8070    9.5029   22.1703 C   0  0  0  0  0  0  0  0  0  0  0  0
    9.8061    8.3505   22.3448 C   0  0  0  0  0  0  0  0  0  0  0  0
    8.0561    9.8892   24.4250 N   0  0  0  0  0  0  0  0  0  0  0  0
   10.0934   12.0720   22.2488 N   0  0  0  0  0  0  0  0  0  0  0  0
    8.5016   12.4984   26.5389 H   0  0  0  0  0  0  0  0  0  0  0  0
    7.4289   10.2576   26.3552 H   0  0  0  0  0  0  0  0  0  0  0  0
   10.9706   13.6356   24.9930 H   0  0  0  0  0  0  0  0  0  0  0  0
    9.9880   14.2164   23.6260 H   0  0  0  0  0  0  0  0  0  0  0  0
    9.3893   14.4055   25.2732 H   0  0  0  0  0  0  0  0  0  0  0  0
   11.5466    9.4792   21.7129 H   0  0  0  0  0  0  0  0  0  0  0  0
   11.2987    9.4497   23.4702 H   0  0  0  0  0  0  0  0  0  0  0  0
   11.9189    8.0141   22.6370 H   0  0  0  0  0  0  0  0  0  0  0  0
    7.8094    9.0877   21.9521 H   0  0  0  0  0  0  0  0  0  0  0  0
    9.0827   10.0894   21.2786 H   0  0  0  0  0  0  0  0  0  0  0  0
    9.5159    7.7315   23.2025 H   0  0  0  0  0  0  0  0  0  0  0  0
    9.7832    7.6996   21.4623 H   0  0  0  0  0  0  0  0  0  0  0  0
   10.4994   12.9868   22.2619 H   0  0  0  0  0  0  0  0  0  0  0  0
   10.1015   11.5146   21.4173 H   0  0  0  0  0  0  0  0  0  0  0  0
  1  2  1  0  0  0  0
  1  3  2  0  0  0  0
  2 10  2  0  0  0  0
  3  4  1  0  0  0  0
  3  6  1  0  0  0  0
  4  5  2  0  0  0  0
  4 11  1  0  0  0  0
  5  8  1  0  0  0  0
  5 10  1  0  0  0  0
  7  9  1  0  0  0  0
  8  9  1  0  0  0  0
  1 12  1  0  0  0  0
  2 13  1  0  0  0  0
  6 14  1  0  0  0  0
  6 15  1  0  0  0  0
  6 16  1  0  0  0  0
  7 17  1  0  0  0  0
  7 18  1  0  0  0  0
  7 19  1  0  0  0  0
  8 20  1  0  0  0  0
  8 21  1  0  0  0  0
  9 22  1  0  0  0  0
  9 23  1  0  0  0  0
 11 24  1  0  0  0  0
 11 25  1  0  0  0  0
M  END
> <id>
EN300-1622075

> <smiles>
CCCC=1N=CC=C(C)C1N

> <IUPAC Name>
4-methyl-2-propylpyridin-3-amine

> <CAS>
1879548-94-3

> <URL>
https://www.enaminestore.com/catalog/EN300-1622075

> <ROCS_ShapeQuery>
_x1140_x0812_0A_x1140_0A_x1097_0A_x0365_0A_x1097_0A_x0310_0A

> <ROCS_TanimotoCombo>
0.643 

> <ROCS_ShapeTanimoto>
0.187 

> <ROCS_ColorTanimoto>
0.455 

> <ROCS_RefTversky>
0.173 

> <ROCS_RefColorTversky>
0.518 

> <ROCS_RefTverskyCombo>
0.691 

> <ROCS_FitTversky>
1.805 

> <ROCS_FitColorTversky>
0.790 

> <ROCS_FitTverskyCombo>
2.595 

> <ROCS_ColorScore>
-4.068

> <ROCS_Overlap>
1769.834

> <ROCS_Rank>
70                  

$$$$
untitled-dbase-475892_8
  -OEChem-02092423213D

 28 28  0     0  0  0  0  0  0999 V2000
    9.1483   12.4027   24.1726 C   0  0  0  0  0  0  0  0  0  0  0  0
    7.5487   11.9621   25.9137 C   0  0  0  0  0  0  0  0  0  0  0  0
    8.4771   12.8101   25.3201 C   0  0  0  0  0  0  0  0  0  0  0  0
    8.8576   11.1478   23.6622 C   0  0  0  0  0  0  0  0  0  0  0  0
    7.3294   10.7270   25.3253 C   0  0  0  0  0  0  0  0  0  0  0  0
    9.5436   10.6598   22.4392 C   0  0  0  0  0  0  0  0  0  0  0  0
   11.9239    9.8109   23.0866 C   0  0  0  0  0  0  0  0  0  0  0  0
   11.0054    7.4753   23.1902 C   0  0  0  0  0  0  0  0  0  0  0  0
   11.3824    8.5732   20.9630 C   0  0  0  0  0  0  0  0  0  0  0  0
   10.9934    8.7961   22.4237 C   0  0  0  0  0  0  0  0  0  0  0  0
    7.9622   10.2964   24.2109 N   0  0  0  0  0  0  0  0  0  0  0  0
    6.3804    9.8738   25.9413 N   0  0  0  0  0  0  0  0  0  0  0  0
    9.9371   11.4003   21.5513 O   0  0  0  0  0  0  0  0  0  0  0  0
    9.6603    9.3063   22.4665 O   0  0  0  0  0  0  0  0  0  0  0  0
    8.7941   14.3570   26.0025 Cl  0  0  0  0  0  0  0  0  0  0  0  0
    9.8779   13.0458   23.6899 H   0  0  0  0  0  0  0  0  0  0  0  0
    7.0126   12.2593   26.8103 H   0  0  0  0  0  0  0  0  0  0  0  0
   11.9181   10.7603   22.5393 H   0  0  0  0  0  0  0  0  0  0  0  0
   11.6343   10.0059   24.1243 H   0  0  0  0  0  0  0  0  0  0  0  0
   12.9605    9.4551   23.0775 H   0  0  0  0  0  0  0  0  0  0  0  0
   10.3392    6.7442   22.7182 H   0  0  0  0  0  0  0  0  0  0  0  0
   10.6362    7.6141   24.2128 H   0  0  0  0  0  0  0  0  0  0  0  0
   12.0114    7.0462   23.2401 H   0  0  0  0  0  0  0  0  0  0  0  0
   10.7152    7.8453   20.4873 H   0  0  0  0  0  0  0  0  0  0  0  0
   11.3436    9.5044   20.3886 H   0  0  0  0  0  0  0  0  0  0  0  0
   12.3947    8.1597   20.8880 H   0  0  0  0  0  0  0  0  0  0  0  0
    5.9470   10.1687   26.7890 H   0  0  0  0  0  0  0  0  0  0  0  0
    6.2384    8.9616   25.5655 H   0  0  0  0  0  0  0  0  0  0  0  0
  1  3  2  0  0  0  0
  1  4  1  0  0  0  0
  2  3  1  0  0  0  0
  2  5  2  0  0  0  0
  3 15  1  0  0  0  0
  4  6  1  0  0  0  0
  4 11  2  0  0  0  0
  5 11  1  0  0  0  0
  5 12  1  0  0  0  0
  6 13  2  0  0  0  0
  6 14  1  0  0  0  0
  7 10  1  0  0  0  0
  8 10  1  0  0  0  0
  9 10  1  0  0  0  0
 10 14  1  0  0  0  0
  1 16  1  0  0  0  0
  2 17  1  0  0  0  0
  7 18  1  0  0  0  0
  7 19  1  0  0  0  0
  7 20  1  0  0  0  0
  8 21  1  0  0  0  0
  8 22  1  0  0  0  0
  8 23  1  0  0  0  0
  9 24  1  0  0  0  0
  9 25  1  0  0  0  0
  9 26  1  0  0  0  0
 12 27  1  0  0  0  0
 12 28  1  0  0  0  0
M  END
> <id>
EN300-27729540

> <smiles>
CC(C)(C)OC(=O)C=1C=C(Cl)C=C(N)N1

> <IUPAC Name>
tert-butyl 6-amino-4-chloropyridine-2-carboxylate

> <CAS>
2580215-74-1

> <URL>
https://www.enaminestore.com/catalog/EN300-27729540

> <ROCS_ShapeQuery>
_x1140_x0812_0A_x1140_0A_x1097_0A_x0365_0A_x1097_0A_x0310_0A

> <ROCS_TanimotoCombo>
0.642 

> <ROCS_ShapeTanimoto>
0.217 

> <ROCS_ColorTanimoto>
0.425 

> <ROCS_RefTversky>
0.199 

> <ROCS_RefColorTversky>
0.529 

> <ROCS_RefTverskyCombo>
0.728 

> <ROCS_FitTversky>
1.758 

> <ROCS_FitColorTversky>
0.684 

> <ROCS_FitTverskyCombo>
2.443 

> <ROCS_ColorScore>
-4.179

> <ROCS_Overlap>
2035.341

> <ROCS_Rank>
71                  

$$$$
untitled-dbase-432135_2
  -OEChem-02092423213D

 33 33  0     0  0  0  0  0  0999 V2000
    7.7057   11.9649   25.2970 C   0  0  0  0  0  0  0  0  0  0  0  0
    8.9861   12.0508   24.8073 C   0  0  0  0  0  0  0  0  0  0  0  0
    7.3983   10.5923   25.2395 C   0  0  0  0  0  0  0  0  0  0  0  0
    9.8723   13.2127   24.6113 C   0  0  0  0  0  0  0  0  0  0  0  0
   12.0446    9.5285   21.9877 C   0  0  0  0  0  0  0  0  0  0  0  0
   10.2342    8.0431   22.8485 C   0  0  0  0  0  0  0  0  0  0  0  0
    9.0704   12.0242   20.3246 C   0  0  0  0  0  0  0  0  0  0  0  0
   10.6760   10.3239   23.9222 C   0  0  0  0  0  0  0  0  0  0  0  0
    9.6359   10.1130   21.5697 C   0  0  0  0  0  0  0  0  0  0  0  0
   10.6230    9.5110   22.5941 C   0  0  0  0  0  0  0  0  0  0  0  0
    8.4025    9.8590   24.7516 N   0  0  0  0  0  0  0  0  0  0  0  0
    9.3533   10.7742   24.4980 N   0  0  0  0  0  0  0  0  0  0  0  0
    6.1931   10.1205   25.6499 N   0  0  0  0  0  0  0  0  0  0  0  0
    9.9896   11.4508   21.2443 O   0  0  0  0  0  0  0  0  0  0  0  0
    7.0890   12.7821   25.6441 H   0  0  0  0  0  0  0  0  0  0  0  0
   10.4839   13.4039   25.5089 H   0  0  0  0  0  0  0  0  0  0  0  0
   10.5624   13.0702   23.7614 H   0  0  0  0  0  0  0  0  0  0  0  0
    9.3060   14.1345   24.3907 H   0  0  0  0  0  0  0  0  0  0  0  0
   12.3823   10.5503   21.7821 H   0  0  0  0  0  0  0  0  0  0  0  0
   12.0803    8.9702   21.0453 H   0  0  0  0  0  0  0  0  0  0  0  0
   12.7701    9.0715   22.6706 H   0  0  0  0  0  0  0  0  0  0  0  0
    9.2301    7.9679   23.2805 H   0  0  0  0  0  0  0  0  0  0  0  0
   10.9312    7.5674   23.5483 H   0  0  0  0  0  0  0  0  0  0  0  0
   10.2526    7.4530   21.9264 H   0  0  0  0  0  0  0  0  0  0  0  0
    9.3725   13.0496   20.0978 H   0  0  0  0  0  0  0  0  0  0  0  0
    8.0671   12.0160   20.7579 H   0  0  0  0  0  0  0  0  0  0  0  0
    9.0729   11.4342   19.4050 H   0  0  0  0  0  0  0  0  0  0  0  0
   11.3113   11.2108   23.7887 H   0  0  0  0  0  0  0  0  0  0  0  0
   11.1930    9.7292   24.6889 H   0  0  0  0  0  0  0  0  0  0  0  0
    9.6402    9.5290   20.6421 H   0  0  0  0  0  0  0  0  0  0  0  0
    8.6111   10.1110   21.9556 H   0  0  0  0  0  0  0  0  0  0  0  0
    5.4822   10.7375   26.0595 H   0  0  0  0  0  0  0  0  0  0  0  0
    5.9793    9.1163   25.6551 H   0  0  0  0  0  0  0  0  0  0  0  0
  1  2  2  0  0  0  0
  1  3  1  0  0  0  0
  2  4  1  0  0  0  0
  2 12  1  0  0  0  0
  3 11  2  0  0  0  0
  3 13  1  0  0  0  0
  5 10  1  0  0  0  0
  6 10  1  0  0  0  0
  7 14  1  0  0  0  0
  8 10  1  0  0  0  0
  8 12  1  0  0  0  0
  9 10  1  0  0  0  0
  9 14  1  0  0  0  0
 11 12  1  0  0  0  0
  1 15  1  0  0  0  0
  4 16  1  0  0  0  0
  4 17  1  0  0  0  0
  4 18  1  0  0  0  0
  5 19  1  0  0  0  0
  5 20  1  0  0  0  0
  5 21  1  0  0  0  0
  6 22  1  0  0  0  0
  6 23  1  0  0  0  0
  6 24  1  0  0  0  0
  7 25  1  0  0  0  0
  7 26  1  0  0  0  0
  7 27  1  0  0  0  0
  8 28  1  0  0  0  0
  8 29  1  0  0  0  0
  9 30  1  0  0  0  0
  9 31  1  0  0  0  0
 13 32  1  0  0  0  0
 13 33  1  0  0  0  0
M  END
> <id>
EN300-1111244

> <smiles>
COCC(C)(C)CN1N=C(N)C=C1C

> <IUPAC Name>
1-(3-methoxy-2,2-dimethylpropyl)-5-methyl-1H-pyrazol-3-amine

> <CAS>
2137595-84-5

> <URL>
https://www.enaminestore.com/catalog/EN300-1111244

> <ROCS_ShapeQuery>
_x1140_x0812_0A_x1140_0A_x1097_0A_x0365_0A_x1097_0A_x0310_0A

> <ROCS_TanimotoCombo>
0.642 

> <ROCS_ShapeTanimoto>
0.198 

> <ROCS_ColorTanimoto>
0.444 

> <ROCS_RefTversky>
0.183 

> <ROCS_RefColorTversky>
0.545 

> <ROCS_RefTverskyCombo>
0.728 

> <ROCS_FitTversky>
1.698 

> <ROCS_FitColorTversky>
0.706 

> <ROCS_FitTverskyCombo>
2.404 

> <ROCS_ColorScore>
-4.309

> <ROCS_Overlap>
1873.821

> <ROCS_Rank>
72                  

$$$$
untitled-dbase-396500_8
  -OEChem-02092423213D

 28 28  0     0  0  0  0  0  0999 V2000
    8.7279   10.8745   23.6487 C   0  0  0  0  0  0  0  0  0  0  0  0
    8.7241   12.0290   24.3914 C   0  0  0  0  0  0  0  0  0  0  0  0
    7.3425   10.6156   25.2096 C   0  0  0  0  0  0  0  0  0  0  0  0
    9.5488   10.5884   22.4450 C   0  0  0  0  0  0  0  0  0  0  0  0
    9.4361   13.3101   24.3238 C   0  0  0  0  0  0  0  0  0  0  0  0
   11.9599    9.9395   23.2004 C   0  0  0  0  0  0  0  0  0  0  0  0
   11.3105    7.5202   23.0147 C   0  0  0  0  0  0  0  0  0  0  0  0
   11.7130    8.8703   20.9354 C   0  0  0  0  0  0  0  0  0  0  0  0
   11.2004    8.9023   22.3745 C   0  0  0  0  0  0  0  0  0  0  0  0
    7.8408    9.9724   24.1780 N   0  0  0  0  0  0  0  0  0  0  0  0
    6.4138   10.2005   26.1015 N   0  0  0  0  0  0  0  0  0  0  0  0
    9.9154   11.4522   21.6634 O   0  0  0  0  0  0  0  0  0  0  0  0
    7.8290   11.8716   25.4061 O   0  0  0  0  0  0  0  0  0  0  0  0
    9.8178    9.2593   22.3568 O   0  0  0  0  0  0  0  0  0  0  0  0
    8.8890   14.0468   23.7072 H   0  0  0  0  0  0  0  0  0  0  0  0
    9.5847   13.7643   25.3220 H   0  0  0  0  0  0  0  0  0  0  0  0
   10.4494   13.2080   23.8902 H   0  0  0  0  0  0  0  0  0  0  0  0
   11.8833   10.9330   22.7442 H   0  0  0  0  0  0  0  0  0  0  0  0
   11.5785    9.9971   24.2251 H   0  0  0  0  0  0  0  0  0  0  0  0
   13.0286    9.7000   23.2419 H   0  0  0  0  0  0  0  0  0  0  0  0
   10.7670    6.7728   22.4253 H   0  0  0  0  0  0  0  0  0  0  0  0
   10.8577    7.5151   24.0127 H   0  0  0  0  0  0  0  0  0  0  0  0
   12.3532    7.1989   23.1054 H   0  0  0  0  0  0  0  0  0  0  0  0
   11.1684    8.1264   20.3427 H   0  0  0  0  0  0  0  0  0  0  0  0
   11.6076    9.8449   20.4479 H   0  0  0  0  0  0  0  0  0  0  0  0
   12.7688    8.5777   20.9042 H   0  0  0  0  0  0  0  0  0  0  0  0
    5.9470    9.2870   26.0177 H   0  0  0  0  0  0  0  0  0  0  0  0
    6.0629   10.8149   26.8490 H   0  0  0  0  0  0  0  0  0  0  0  0
  1  2  2  0  0  0  0
  1  4  1  0  0  0  0
  1 10  1  0  0  0  0
  2  5  1  0  0  0  0
  2 13  1  0  0  0  0
  3 10  2  0  0  0  0
  3 11  1  0  0  0  0
  3 13  1  0  0  0  0
  4 12  2  0  0  0  0
  4 14  1  0  0  0  0
  6  9  1  0  0  0  0
  7  9  1  0  0  0  0
  8  9  1  0  0  0  0
  9 14  1  0  0  0  0
  5 15  1  0  0  0  0
  5 16  1  0  0  0  0
  5 17  1  0  0  0  0
  6 18  1  0  0  0  0
  6 19  1  0  0  0  0
  6 20  1  0  0  0  0
  7 21  1  0  0  0  0
  7 22  1  0  0  0  0
  7 23  1  0  0  0  0
  8 24  1  0  0  0  0
  8 25  1  0  0  0  0
  8 26  1  0  0  0  0
 11 27  1  0  0  0  0
 11 28  1  0  0  0  0
M  END
> <id>
EN300-6510700

> <smiles>
CC=1OC(N)=NC1C(=O)OC(C)(C)C

> <IUPAC Name>
tert-butyl 2-amino-5-methyl-1,3-oxazole-4-carboxylate

> <CAS>
2248359-55-7

> <URL>
https://www.enaminestore.com/catalog/EN300-6510700

> <ROCS_ShapeQuery>
_x1140_x0812_0A_x1140_0A_x1097_0A_x0365_0A_x1097_0A_x0310_0A

> <ROCS_TanimotoCombo>
0.642 

> <ROCS_ShapeTanimoto>
0.217 

> <ROCS_ColorTanimoto>
0.425 

> <ROCS_RefTversky>
0.198 

> <ROCS_RefColorTversky>
0.529 

> <ROCS_RefTverskyCombo>
0.727 

> <ROCS_FitTversky>
1.794 

> <ROCS_FitColorTversky>
0.684 

> <ROCS_FitTverskyCombo>
2.478 

> <ROCS_ColorScore>
-4.178

> <ROCS_Overlap>
2026.630

> <ROCS_Rank>
73                  

$$$$
untitled-dbase-565808_4
  -OEChem-02092423213D

 34 35  0     0  0  0  0  0  0999 V2000
   10.9810    8.8134   22.5928 C   0  0  0  0  0  0  0  0  0  0  0  0
   10.2155    9.5512   23.1510 C   0  0  0  0  0  0  0  0  0  0  0  0
   15.3681   15.5991   19.1336 C   0  0  0  0  0  0  0  0  0  0  0  0
   15.1933   14.4669   18.3380 C   0  0  0  0  0  0  0  0  0  0  0  0
   14.4517   15.8897   20.1443 C   0  0  0  0  0  0  0  0  0  0  0  0
   14.1020   13.6252   18.5529 C   0  0  0  0  0  0  0  0  0  0  0  0
   13.3603   15.0480   20.3592 C   0  0  0  0  0  0  0  0  0  0  0  0
    7.4762   11.9463   25.1571 C   0  0  0  0  0  0  0  0  0  0  0  0
    7.4858   10.5619   25.2126 C   0  0  0  0  0  0  0  0  0  0  0  0
    9.3045   10.4295   23.8151 C   0  0  0  0  0  0  0  0  0  0  0  0
   13.1855   13.9157   19.5635 C   0  0  0  0  0  0  0  0  0  0  0  0
    8.4446   12.5734   24.3811 C   0  0  0  0  0  0  0  0  0  0  0  0
    9.3799   11.8077   23.6940 C   0  0  0  0  0  0  0  0  0  0  0  0
   10.5894   12.2736   21.5420 C   0  0  0  0  0  0  0  0  0  0  0  0
    8.4552   14.0653   24.3061 C   0  0  0  0  0  0  0  0  0  0  0  0
   12.0182   13.0163   19.7937 C   0  0  0  0  0  0  0  0  0  0  0  0
    8.3783    9.7846   24.5592 N   0  0  0  0  0  0  0  0  0  0  0  0
   10.3712   12.4251   22.8976 N   0  0  0  0  0  0  0  0  0  0  0  0
    9.9657   11.5709   20.7561 O   0  0  0  0  0  0  0  0  0  0  0  0
   11.6557   13.0554   21.1685 O   0  0  0  0  0  0  0  0  0  0  0  0
   11.6599    8.1594   22.0974 H   0  0  0  0  0  0  0  0  0  0  0  0
   16.2187   16.2537   18.9670 H   0  0  0  0  0  0  0  0  0  0  0  0
   15.9074   14.2399   17.5517 H   0  0  0  0  0  0  0  0  0  0  0  0
   14.5881   16.7705   20.7646 H   0  0  0  0  0  0  0  0  0  0  0  0
   13.9737   12.7453   17.9279 H   0  0  0  0  0  0  0  0  0  0  0  0
   12.6513   15.2823   21.1488 H   0  0  0  0  0  0  0  0  0  0  0  0
    6.7324   12.5146   25.7053 H   0  0  0  0  0  0  0  0  0  0  0  0
    6.7519   10.0242   25.8035 H   0  0  0  0  0  0  0  0  0  0  0  0
    9.0859   14.4808   25.1003 H   0  0  0  0  0  0  0  0  0  0  0  0
    8.8386   14.4104   23.3381 H   0  0  0  0  0  0  0  0  0  0  0  0
    7.4429   14.4743   24.4130 H   0  0  0  0  0  0  0  0  0  0  0  0
   11.1510   13.3234   19.1933 H   0  0  0  0  0  0  0  0  0  0  0  0
   12.2566   11.9792   19.5209 H   0  0  0  0  0  0  0  0  0  0  0  0
   11.0016   13.0591   23.3825 H   0  0  0  0  0  0  0  0  0  0  0  0
  1  2  3  0  0  0  0
  2 10  1  0  0  0  0
  3  4  1  0  0  0  0
  3  5  2  0  0  0  0
  4  6  2  0  0  0  0
  5  7  1  0  0  0  0
  6 11  1  0  0  0  0
  7 11  2  0  0  0  0
  8  9  2  0  0  0  0
  8 12  1  0  0  0  0
  9 17  1  0  0  0  0
 10 13  1  0  0  0  0
 10 17  2  0  0  0  0
 11 16  1  0  0  0  0
 12 13  2  0  0  0  0
 12 15  1  0  0  0  0
 13 18  1  0  0  0  0
 14 18  1  0  0  0  0
 14 19  2  0  0  0  0
 14 20  1  0  0  0  0
 16 20  1  0  0  0  0
  1 21  1  0  0  0  0
  3 22  1  0  0  0  0
  4 23  1  0  0  0  0
  5 24  1  0  0  0  0
  6 25  1  0  0  0  0
  7 26  1  0  0  0  0
  8 27  1  0  0  0  0
  9 28  1  0  0  0  0
 15 29  1  0  0  0  0
 15 30  1  0  0  0  0
 15 31  1  0  0  0  0
 16 32  1  0  0  0  0
 16 33  1  0  0  0  0
 18 34  1  0  0  0  0
M  END
> <id>
EN300-37397008

> <smiles>
CC=1C=CN=C(C#C)C1NC(=O)OCC=2C=CC=CC2

> <IUPAC Name>
benzyl N-(2-ethynyl-4-methylpyridin-3-yl)carbamate

> <CAS>
2770525-01-2

> <URL>
https://www.enaminestore.com/catalog/EN300-37397008

> <ROCS_ShapeQuery>
_x1140_x0812_0A_x1140_0A_x1097_0A_x0365_0A_x1097_0A_x0310_0A

> <ROCS_TanimotoCombo>
0.641 

> <ROCS_ShapeTanimoto>
0.222 

> <ROCS_ColorTanimoto>
0.419 

> <ROCS_RefTversky>
0.206 

> <ROCS_RefColorTversky>
0.524 

> <ROCS_RefTverskyCombo>
0.730 

> <ROCS_FitTversky>
1.524 

> <ROCS_FitColorTversky>
0.678 

> <ROCS_FitTverskyCombo>
2.202 

> <ROCS_ColorScore>
-4.136

> <ROCS_Overlap>
2118.269

> <ROCS_Rank>
74                  

$$$$
untitled-dbase-540948_0
  -OEChem-02092423213D

 16 16  0     0  0  0  0  0  0999 V2000
    8.3917   12.5271   24.0196 C   0  0  0  0  0  0  0  0  0  0  0  0
    7.3901   12.0567   24.8615 C   0  0  0  0  0  0  0  0  0  0  0  0
    9.2799   11.6303   23.4362 C   0  0  0  0  0  0  0  0  0  0  0  0
    9.1252   10.2840   23.7245 C   0  0  0  0  0  0  0  0  0  0  0  0
    7.3199   10.6912   25.0858 C   0  0  0  0  0  0  0  0  0  0  0  0
    8.1646    9.7895   24.5372 N   0  0  0  0  0  0  0  0  0  0  0  0
   10.2945   12.1046   22.5837 N   0  0  0  0  0  0  0  0  0  0  0  0
   10.0264    9.3625   23.1341 N   0  0  0  0  0  0  0  0  0  0  0  0
    6.3413   10.2033   25.9117 O   0  0  0  0  0  0  0  0  0  0  0  0
    8.4705   13.5936   23.8256 H   0  0  0  0  0  0  0  0  0  0  0  0
    6.6896   12.7432   25.3242 H   0  0  0  0  0  0  0  0  0  0  0  0
   10.3374   13.0815   22.3680 H   0  0  0  0  0  0  0  0  0  0  0  0
   10.9005   11.4489   22.1303 H   0  0  0  0  0  0  0  0  0  0  0  0
   10.7114    9.7024   22.4953 H   0  0  0  0  0  0  0  0  0  0  0  0
    9.8937    8.3887   23.2981 H   0  0  0  0  0  0  0  0  0  0  0  0
    5.8003   10.9329   26.2444 H   0  0  0  0  0  0  0  0  0  0  0  0
  1  2  2  0  0  0  0
  1  3  1  0  0  0  0
  2  5  1  0  0  0  0
  3  4  2  0  0  0  0
  3  7  1  0  0  0  0
  4  6  1  0  0  0  0
  4  8  1  0  0  0  0
  5  6  2  0  0  0  0
  5  9  1  0  0  0  0
  1 10  1  0  0  0  0
  2 11  1  0  0  0  0
  7 12  1  0  0  0  0
  7 13  1  0  0  0  0
  8 14  1  0  0  0  0
  8 15  1  0  0  0  0
  9 16  1  0  0  0  0
M  END
> <id>
EN300-1295564

> <smiles>
NC=1C=CC(O)=NC1N

> <MDLNUMBER>
MFCD19204337

> <IUPAC Name>
5,6-diaminopyridin-2-ol

> <CAS>
138650-05-2

> <URL>
https://www.enaminestore.com/catalog/EN300-1295564

> <ROCS_ShapeQuery>
_x1140_x0812_0A_x1140_0A_x1097_0A_x0365_0A_x1097_0A_x0310_0A

> <ROCS_TanimotoCombo>
0.641 

> <ROCS_ShapeTanimoto>
0.203 

> <ROCS_ColorTanimoto>
0.439 

> <ROCS_RefTversky>
0.184 

> <ROCS_RefColorTversky>
0.610 

> <ROCS_RefTverskyCombo>
0.794 

> <ROCS_FitTversky>
2.059 

> <ROCS_FitColorTversky>
0.609 

> <ROCS_FitTverskyCombo>
2.668 

> <ROCS_ColorScore>
-4.884

> <ROCS_Overlap>
1879.813

> <ROCS_Rank>
75                  

$$$$
untitled-dbase-477066_2
  -OEChem-02092423213D

 32 33  0     0  0  0  0  0  0999 V2000
    8.4786   12.4119   24.1852 C   0  0  0  0  0  0  0  0  0  0  0  0
    9.2273   11.4847   23.4755 C   0  0  0  0  0  0  0  0  0  0  0  0
    7.4977   11.9788   25.0827 C   0  0  0  0  0  0  0  0  0  0  0  0
    8.9585   10.1469   23.6878 C   0  0  0  0  0  0  0  0  0  0  0  0
    7.2748   10.6002   25.2251 C   0  0  0  0  0  0  0  0  0  0  0  0
   10.2524   11.9368   22.5473 C   0  0  0  0  0  0  0  0  0  0  0  0
    6.6704   12.9837   25.8414 C   0  0  0  0  0  0  0  0  0  0  0  0
    6.0241   12.3531   27.0742 C   0  0  0  0  0  0  0  0  0  0  0  0
    5.3421   11.0439   26.6970 C   0  0  0  0  0  0  0  0  0  0  0  0
    9.7299    9.0951   22.9589 C   0  0  0  0  0  0  0  0  0  0  0  0
   13.2316   13.9706   23.2431 C   0  0  0  0  0  0  0  0  0  0  0  0
   12.2786   13.1829   22.3697 C   0  0  0  0  0  0  0  0  0  0  0  0
    8.0106    9.6896   24.5374 N   0  0  0  0  0  0  0  0  0  0  0  0
    6.2987   10.1356   26.0981 N   0  0  0  0  0  0  0  0  0  0  0  0
   10.2587   11.6856   21.3352 O   0  0  0  0  0  0  0  0  0  0  0  0
   11.2121   12.6781   23.1804 O   0  0  0  0  0  0  0  0  0  0  0  0
    8.6541   13.4763   24.0482 H   0  0  0  0  0  0  0  0  0  0  0  0
    7.2945   13.8271   26.1588 H   0  0  0  0  0  0  0  0  0  0  0  0
    5.8938   13.3727   25.1716 H   0  0  0  0  0  0  0  0  0  0  0  0
    6.7844   12.1643   27.8433 H   0  0  0  0  0  0  0  0  0  0  0  0
    5.2964   13.0477   27.5082 H   0  0  0  0  0  0  0  0  0  0  0  0
    4.9074   10.5774   27.5873 H   0  0  0  0  0  0  0  0  0  0  0  0
    4.5232   11.2303   25.9921 H   0  0  0  0  0  0  0  0  0  0  0  0
   10.6182    8.8097   23.5338 H   0  0  0  0  0  0  0  0  0  0  0  0
    9.1184    8.2002   22.7919 H   0  0  0  0  0  0  0  0  0  0  0  0
   10.0507    9.4520   21.9726 H   0  0  0  0  0  0  0  0  0  0  0  0
   12.7215   14.8154   23.7142 H   0  0  0  0  0  0  0  0  0  0  0  0
   13.6552   13.3324   24.0256 H   0  0  0  0  0  0  0  0  0  0  0  0
   14.0720   14.3502   22.6525 H   0  0  0  0  0  0  0  0  0  0  0  0
   12.7950   12.3396   21.9016 H   0  0  0  0  0  0  0  0  0  0  0  0
   11.8557   13.8223   21.5890 H   0  0  0  0  0  0  0  0  0  0  0  0
    6.1544    9.1356   26.1659 H   0  0  0  0  0  0  0  0  0  0  0  0
  1  2  1  0  0  0  0
  1  3  2  0  0  0  0
  2  4  2  0  0  0  0
  2  6  1  0  0  0  0
  3  5  1  0  0  0  0
  3  7  1  0  0  0  0
  4 10  1  0  0  0  0
  4 13  1  0  0  0  0
  5 13  2  0  0  0  0
  5 14  1  0  0  0  0
  6 15  2  0  0  0  0
  6 16  1  0  0  0  0
  7  8  1  0  0  0  0
  8  9  1  0  0  0  0
  9 14  1  0  0  0  0
 11 12  1  0  0  0  0
 12 16  1  0  0  0  0
  1 17  1  0  0  0  0
  7 18  1  0  0  0  0
  7 19  1  0  0  0  0
  8 20  1  0  0  0  0
  8 21  1  0  0  0  0
  9 22  1  0  0  0  0
  9 23  1  0  0  0  0
 10 24  1  0  0  0  0
 10 25  1  0  0  0  0
 10 26  1  0  0  0  0
 11 27  1  0  0  0  0
 11 28  1  0  0  0  0
 11 29  1  0  0  0  0
 12 30  1  0  0  0  0
 12 31  1  0  0  0  0
 14 32  1  0  0  0  0
M  END
> <id>
EN300-27730626

> <smiles>
CCOC(=O)C=1C=C2CCCNC2=NC1C

> <IUPAC Name>
ethyl 2-methyl-5,6,7,8-tetrahydro-1,8-naphthyridine-3-carboxylate

> <CAS>
2580221-25-4

> <URL>
https://www.enaminestore.com/catalog/EN300-27730626

> <ROCS_ShapeQuery>
_x1140_x0812_0A_x1140_0A_x1097_0A_x0365_0A_x1097_0A_x0310_0A

> <ROCS_TanimotoCombo>
0.641 

> <ROCS_ShapeTanimoto>
0.279 

> <ROCS_ColorTanimoto>
0.362 

> <ROCS_RefTversky>
0.244 

> <ROCS_RefColorTversky>
0.440 

> <ROCS_RefTverskyCombo>
0.684 

> <ROCS_FitTversky>
2.060 

> <ROCS_FitColorTversky>
0.670 

> <ROCS_FitTverskyCombo>
2.731 

> <ROCS_ColorScore>
-3.456

> <ROCS_Overlap>
2500.672

> <ROCS_Rank>
76                  

$$$$
untitled-dbase-466473_3
  -OEChem-02092423213D

 25 26  0     0  0  0  0  0  0999 V2000
    9.8860   14.2535   24.8252 C   0  0  0  0  0  0  0  0  0  0  0  0
   10.7264   15.2954   24.4332 C   0  0  0  0  0  0  0  0  0  0  0  0
   11.2423   14.1111   22.3916 C   0  0  0  0  0  0  0  0  0  0  0  0
    7.7186   12.0020   25.1960 C   0  0  0  0  0  0  0  0  0  0  0  0
    9.7238   13.1403   24.0005 C   0  0  0  0  0  0  0  0  0  0  0  0
   11.4046   15.2242   23.2164 C   0  0  0  0  0  0  0  0  0  0  0  0
   10.4019   13.0691   22.7836 C   0  0  0  0  0  0  0  0  0  0  0  0
    8.8487   12.0721   24.4253 C   0  0  0  0  0  0  0  0  0  0  0  0
    7.3937   10.6345   25.1892 C   0  0  0  0  0  0  0  0  0  0  0  0
   12.8872   16.1035   21.5779 C   0  0  0  0  0  0  0  0  0  0  0  0
    8.2563    9.9117   24.4694 N   0  0  0  0  0  0  0  0  0  0  0  0
    6.3129   10.1574   25.8569 N   0  0  0  0  0  0  0  0  0  0  0  0
    9.1796   10.8309   23.9858 O   0  0  0  0  0  0  0  0  0  0  0  0
   10.2619   11.9929   21.9577 O   0  0  0  0  0  0  0  0  0  0  0  0
   12.2246   16.2411   22.8340 O   0  0  0  0  0  0  0  0  0  0  0  0
    9.3648   14.3249   25.7770 H   0  0  0  0  0  0  0  0  0  0  0  0
   10.8489   16.1600   25.0799 H   0  0  0  0  0  0  0  0  0  0  0  0
   11.7713   14.0565   21.4433 H   0  0  0  0  0  0  0  0  0  0  0  0
    7.2094   12.8191   25.6871 H   0  0  0  0  0  0  0  0  0  0  0  0
   13.5091   16.9831   21.3949 H   0  0  0  0  0  0  0  0  0  0  0  0
   12.1447   15.9973   20.7830 H   0  0  0  0  0  0  0  0  0  0  0  0
   13.5190   15.2126   21.6050 H   0  0  0  0  0  0  0  0  0  0  0  0
    5.7184   10.7675   26.4306 H   0  0  0  0  0  0  0  0  0  0  0  0
    6.0993    9.1534   25.8932 H   0  0  0  0  0  0  0  0  0  0  0  0
   10.8020   12.1111   21.1613 H   0  0  0  0  0  0  0  0  0  0  0  0
  1  2  2  0  0  0  0
  1  5  1  0  0  0  0
  2  6  1  0  0  0  0
  3  6  2  0  0  0  0
  3  7  1  0  0  0  0
  4  8  2  0  0  0  0
  4  9  1  0  0  0  0
  5  7  2  0  0  0  0
  5  8  1  0  0  0  0
  6 15  1  0  0  0  0
  7 14  1  0  0  0  0
  8 13  1  0  0  0  0
  9 11  2  0  0  0  0
  9 12  1  0  0  0  0
 10 15  1  0  0  0  0
 11 13  1  0  0  0  0
  1 16  1  0  0  0  0
  2 17  1  0  0  0  0
  3 18  1  0  0  0  0
  4 19  1  0  0  0  0
 10 20  1  0  0  0  0
 10 21  1  0  0  0  0
 10 22  1  0  0  0  0
 12 23  1  0  0  0  0
 12 24  1  0  0  0  0
 14 25  1  0  0  0  0
M  END
> <id>
EN300-1816836

> <smiles>
COC=1C=CC(C2=CC(N)=NO2)=C(O)C1

> <IUPAC Name>
2-(3-amino-1,2-oxazol-5-yl)-5-methoxyphenol

> <CAS>
1897017-68-3

> <URL>
https://www.enaminestore.com/catalog/EN300-1816836

> <ROCS_ShapeQuery>
_x1140_x0812_0A_x1140_0A_x1097_0A_x0365_0A_x1097_0A_x0310_0A

> <ROCS_TanimotoCombo>
0.641 

> <ROCS_ShapeTanimoto>
0.208 

> <ROCS_ColorTanimoto>
0.432 

> <ROCS_RefTversky>
0.192 

> <ROCS_RefColorTversky>
0.604 

> <ROCS_RefTverskyCombo>
0.796 

> <ROCS_FitTversky>
1.657 

> <ROCS_FitColorTversky>
0.603 

> <ROCS_FitTverskyCombo>
2.261 

> <ROCS_ColorScore>
-4.830

> <ROCS_Overlap>
1973.100

> <ROCS_Rank>
77                  

$$$$
untitled-dbase-559820_1
  -OEChem-02092423213D

 24 24  0     0  0  0  0  0  0999 V2000
    6.4879   13.0434   25.8380 B   0  0  0  0  0  0  0  0  0  0  0  0
    8.2859   12.4317   24.0901 C   0  0  0  0  0  0  0  0  0  0  0  0
    7.4146   10.6752   25.4363 C   0  0  0  0  0  0  0  0  0  0  0  0
    7.4237   12.0193   25.1000 C   0  0  0  0  0  0  0  0  0  0  0  0
    9.1011   11.5005   23.4564 C   0  0  0  0  0  0  0  0  0  0  0  0
    9.0171   10.1796   23.8664 C   0  0  0  0  0  0  0  0  0  0  0  0
   10.0001   11.9406   22.3980 C   0  0  0  0  0  0  0  0  0  0  0  0
   11.9083   13.4487   21.7987 C   0  0  0  0  0  0  0  0  0  0  0  0
    8.1918    9.7414   24.8434 N   0  0  0  0  0  0  0  0  0  0  0  0
    9.8424    9.2236   23.2224 N   0  0  0  0  0  0  0  0  0  0  0  0
   10.9617   12.8966   22.7410 N   0  0  0  0  0  0  0  0  0  0  0  0
    9.8847   11.4884   21.2463 O   0  0  0  0  0  0  0  0  0  0  0  0
    6.4931   14.3766   25.5079 O   0  0  0  0  0  0  0  0  0  0  0  0
    5.6544   12.5898   26.8323 O   0  0  0  0  0  0  0  0  0  0  0  0
    8.3318   13.4760   23.7843 H   0  0  0  0  0  0  0  0  0  0  0  0
    6.7677   10.2773   26.2144 H   0  0  0  0  0  0  0  0  0  0  0  0
   12.8463   12.8758   21.8422 H   0  0  0  0  0  0  0  0  0  0  0  0
   11.4903   13.3911   20.7829 H   0  0  0  0  0  0  0  0  0  0  0  0
   12.1087   14.4999   22.0537 H   0  0  0  0  0  0  0  0  0  0  0  0
   10.4205    9.5191   22.4666 H   0  0  0  0  0  0  0  0  0  0  0  0
    9.7553    8.2643   23.4775 H   0  0  0  0  0  0  0  0  0  0  0  0
   10.9705   13.2781   23.6813 H   0  0  0  0  0  0  0  0  0  0  0  0
    5.8738   14.9113   26.0311 H   0  0  0  0  0  0  0  0  0  0  0  0
    5.1290   13.3154   27.2094 H   0  0  0  0  0  0  0  0  0  0  0  0
  1  4  1  0  0  0  0
  1 13  1  0  0  0  0
  1 14  1  0  0  0  0
  2  4  2  0  0  0  0
  2  5  1  0  0  0  0
  3  4  1  0  0  0  0
  3  9  2  0  0  0  0
  5  6  2  0  0  0  0
  5  7  1  0  0  0  0
  6  9  1  0  0  0  0
  6 10  1  0  0  0  0
  7 11  1  0  0  0  0
  7 12  2  0  0  0  0
  8 11  1  0  0  0  0
  2 15  1  0  0  0  0
  3 16  1  0  0  0  0
  8 17  1  0  0  0  0
  8 18  1  0  0  0  0
  8 19  1  0  0  0  0
 10 20  1  0  0  0  0
 10 21  1  0  0  0  0
 11 22  1  0  0  0  0
 13 23  1  0  0  0  0
 14 24  1  0  0  0  0
M  END
> <id>
EN300-7492298

> <smiles>
CNC(=O)C=1C=C(C=NC1N)B(O)O

> <IUPAC Name>
[6-amino-5-(methylcarbamoyl)pyridin-3-yl]boronic acid

> <URL>
https://www.enaminestore.com/catalog/EN300-7492298

> <ROCS_ShapeQuery>
_x1140_x0812_0A_x1140_0A_x1097_0A_x0365_0A_x1097_0A_x0310_0A

> <ROCS_TanimotoCombo>
0.640 

> <ROCS_ShapeTanimoto>
0.247 

> <ROCS_ColorTanimoto>
0.393 

> <ROCS_RefTversky>
0.220 

> <ROCS_RefColorTversky>
0.501 

> <ROCS_RefTverskyCombo>
0.720 

> <ROCS_FitTversky>
2.017 

> <ROCS_FitColorTversky>
0.648 

> <ROCS_FitTverskyCombo>
2.665 

> <ROCS_ColorScore>
-3.955

> <ROCS_Overlap>
2251.640

> <ROCS_Rank>
78                  

$$$$
untitled-dbase-481547_5
  -OEChem-02092423213D

 22 22  0     0  0  0  0  0  0999 V2000
    9.1018   11.5294   23.4980 C   0  0  0  0  0  0  0  0  0  0  0  0
    9.0159   10.1894   23.8055 C   0  0  0  0  0  0  0  0  0  0  0  0
    7.2380   10.6186   25.1784 C   0  0  0  0  0  0  0  0  0  0  0  0
    7.3245   11.9587   24.8714 C   0  0  0  0  0  0  0  0  0  0  0  0
   10.1006   12.0675   22.5872 C   0  0  0  0  0  0  0  0  0  0  0  0
   11.3716   14.8425   21.7583 C   0  0  0  0  0  0  0  0  0  0  0  0
   11.9255   13.5934   22.4099 C   0  0  0  0  0  0  0  0  0  0  0  0
    8.2577   12.4381   24.0254 N   0  0  0  0  0  0  0  0  0  0  0  0
    8.0824    9.7100   24.6513 N   0  0  0  0  0  0  0  0  0  0  0  0
    9.9304    9.2852   23.2195 N   0  0  0  0  0  0  0  0  0  0  0  0
   10.2152   11.7368   21.3998 O   0  0  0  0  0  0  0  0  0  0  0  0
    6.2850   10.1491   26.0379 O   0  0  0  0  0  0  0  0  0  0  0  0
   10.9005   12.9888   23.2059 O   0  0  0  0  0  0  0  0  0  0  0  0
    6.2683   13.1402   25.5239 Cl  0  0  0  0  0  0  0  0  0  0  0  0
   10.5236   14.6017   21.1111 H   0  0  0  0  0  0  0  0  0  0  0  0
   11.0444   15.5610   22.5170 H   0  0  0  0  0  0  0  0  0  0  0  0
   12.1424   15.3399   21.1603 H   0  0  0  0  0  0  0  0  0  0  0  0
   12.7731   13.8411   23.0558 H   0  0  0  0  0  0  0  0  0  0  0  0
   12.2511   12.8762   21.6505 H   0  0  0  0  0  0  0  0  0  0  0  0
   10.5932    9.6277   22.5558 H   0  0  0  0  0  0  0  0  0  0  0  0
    9.8353    8.3092   23.4079 H   0  0  0  0  0  0  0  0  0  0  0  0
    6.3721    9.1894   26.1363 H   0  0  0  0  0  0  0  0  0  0  0  0
  1  2  2  0  0  0  0
  1  5  1  0  0  0  0
  1  8  1  0  0  0  0
  2  9  1  0  0  0  0
  2 10  1  0  0  0  0
  3  4  1  0  0  0  0
  3  9  2  0  0  0  0
  3 12  1  0  0  0  0
  4  8  2  0  0  0  0
  4 14  1  0  0  0  0
  5 11  2  0  0  0  0
  5 13  1  0  0  0  0
  6  7  1  0  0  0  0
  7 13  1  0  0  0  0
  6 15  1  0  0  0  0
  6 16  1  0  0  0  0
  6 17  1  0  0  0  0
  7 18  1  0  0  0  0
  7 19  1  0  0  0  0
 10 20  1  0  0  0  0
 10 21  1  0  0  0  0
 12 22  1  0  0  0  0
M  END
> <id>
EN300-27723275

> <smiles>
CCOC(=O)C=1N=C(Cl)C(O)=NC1N

> <IUPAC Name>
ethyl 3-amino-6-chloro-5-hydroxypyrazine-2-carboxylate

> <CAS>
2580222-80-4

> <URL>
https://www.enaminestore.com/catalog/EN300-27723275

> <ROCS_ShapeQuery>
_x1140_x0812_0A_x1140_0A_x1097_0A_x0365_0A_x1097_0A_x0310_0A

> <ROCS_TanimotoCombo>
0.640 

> <ROCS_ShapeTanimoto>
0.258 

> <ROCS_ColorTanimoto>
0.382 

> <ROCS_RefTversky>
0.228 

> <ROCS_RefColorTversky>
0.554 

> <ROCS_RefTverskyCombo>
0.781 

> <ROCS_FitTversky>
2.077 

> <ROCS_FitColorTversky>
0.552 

> <ROCS_FitTverskyCombo>
2.630 

> <ROCS_ColorScore>
-4.429

> <ROCS_Overlap>
2333.283

> <ROCS_Rank>
79                  

$$$$
untitled-dbase-139613_8
  -OEChem-02092423213D

 32 33  0     0  0  0  0  0  0999 V2000
    8.7710   10.9956   23.7258 C   0  0  0  0  0  0  0  0  0  0  0  0
    8.7210   12.2807   24.2238 C   0  0  0  0  0  0  0  0  0  0  0  0
    7.2445   10.6914   25.2709 C   0  0  0  0  0  0  0  0  0  0  0  0
    9.6571   10.5622   22.6162 C   0  0  0  0  0  0  0  0  0  0  0  0
   11.0596   13.3508   23.7160 C   0  0  0  0  0  0  0  0  0  0  0  0
   10.4009   14.2278   24.7345 C   0  0  0  0  0  0  0  0  0  0  0  0
    9.5498   13.4709   23.7359 C   0  0  0  0  0  0  0  0  0  0  0  0
   12.3483    9.6994   22.9563 C   0  0  0  0  0  0  0  0  0  0  0  0
   11.4638    7.3915   22.5087 C   0  0  0  0  0  0  0  0  0  0  0  0
   11.2866    9.1639   20.7381 C   0  0  0  0  0  0  0  0  0  0  0  0
   11.2738    8.8827   22.2399 C   0  0  0  0  0  0  0  0  0  0  0  0
    7.9253   10.0827   24.3253 N   0  0  0  0  0  0  0  0  0  0  0  0
    6.3189   10.0834   26.0598 N   0  0  0  0  0  0  0  0  0  0  0  0
   10.0129   11.3045   21.7141 O   0  0  0  0  0  0  0  0  0  0  0  0
    9.9973    9.2546   22.7613 O   0  0  0  0  0  0  0  0  0  0  0  0
    7.5705   12.3615   25.4932 S   0  0  0  0  0  0  0  0  0  0  0  0
   11.5939   13.8309   22.9052 H   0  0  0  0  0  0  0  0  0  0  0  0
   11.5102   12.4284   24.0621 H   0  0  0  0  0  0  0  0  0  0  0  0
   10.4069   13.8954   25.7656 H   0  0  0  0  0  0  0  0  0  0  0  0
   10.4900   15.3004   24.6116 H   0  0  0  0  0  0  0  0  0  0  0  0
    9.0964   14.0550   22.9392 H   0  0  0  0  0  0  0  0  0  0  0  0
   12.2154   10.7704   22.7659 H   0  0  0  0  0  0  0  0  0  0  0  0
   12.3268    9.5333   24.0383 H   0  0  0  0  0  0  0  0  0  0  0  0
   13.3472    9.4413   22.5864 H   0  0  0  0  0  0  0  0  0  0  0  0
   10.6950    6.8017   21.9966 H   0  0  0  0  0  0  0  0  0  0  0  0
   11.3609    7.1713   23.5774 H   0  0  0  0  0  0  0  0  0  0  0  0
   12.4469    7.0430   22.1761 H   0  0  0  0  0  0  0  0  0  0  0  0
   10.5159    8.5782   20.2240 H   0  0  0  0  0  0  0  0  0  0  0  0
   11.1148   10.2239   20.5247 H   0  0  0  0  0  0  0  0  0  0  0  0
   12.2451    8.8704   20.2949 H   0  0  0  0  0  0  0  0  0  0  0  0
    6.0603    9.0998   25.9266 H   0  0  0  0  0  0  0  0  0  0  0  0
    5.7763   10.6073   26.7548 H   0  0  0  0  0  0  0  0  0  0  0  0
  1  2  2  0  0  0  0
  1  4  1  0  0  0  0
  1 12  1  0  0  0  0
  2  7  1  0  0  0  0
  2 16  1  0  0  0  0
  3 12  2  0  0  0  0
  3 13  1  0  0  0  0
  3 16  1  0  0  0  0
  4 14  2  0  0  0  0
  4 15  1  0  0  0  0
  5  6  1  0  0  0  0
  5  7  1  0  0  0  0
  6  7  1  0  0  0  0
  8 11  1  0  0  0  0
  9 11  1  0  0  0  0
 10 11  1  0  0  0  0
 11 15  1  0  0  0  0
  5 17  1  0  0  0  0
  5 18  1  0  0  0  0
  6 19  1  0  0  0  0
  6 20  1  0  0  0  0
  7 21  1  0  0  0  0
  8 22  1  0  0  0  0
  8 23  1  0  0  0  0
  8 24  1  0  0  0  0
  9 25  1  0  0  0  0
  9 26  1  0  0  0  0
  9 27  1  0  0  0  0
 10 28  1  0  0  0  0
 10 29  1  0  0  0  0
 10 30  1  0  0  0  0
 13 31  1  0  0  0  0
 13 32  1  0  0  0  0
M  END
> <id>
EN300-1458444

> <smiles>
CC(C)(C)OC(=O)C=1N=C(N)SC1C2CC2

> <IUPAC Name>
tert-butyl 2-amino-5-cyclopropyl-1,3-thiazole-4-carboxylate

> <CAS>
2168100-12-5

> <URL>
https://www.enaminestore.com/catalog/EN300-1458444

> <ROCS_ShapeQuery>
_x1140_x0812_0A_x1140_0A_x1097_0A_x0365_0A_x1097_0A_x0310_0A

> <ROCS_TanimotoCombo>
0.640 

> <ROCS_ShapeTanimoto>
0.232 

> <ROCS_ColorTanimoto>
0.408 

> <ROCS_RefTversky>
0.210 

> <ROCS_RefColorTversky>
0.514 

> <ROCS_RefTverskyCombo>
0.724 

> <ROCS_FitTversky>
1.809 

> <ROCS_FitColorTversky>
0.664 

> <ROCS_FitTverskyCombo>
2.474 

> <ROCS_ColorScore>
-4.058

> <ROCS_Overlap>
2156.647

> <ROCS_Rank>
80                  

$$$$
untitled-dbase-412456_1
  -OEChem-02092423213D

 31 32  0     0  0  0  0  0  0999 V2000
    7.6409   13.8362   24.2470 C   0  0  0  0  0  0  0  0  0  0  0  0
    8.6033   13.3858   23.3743 C   0  0  0  0  0  0  0  0  0  0  0  0
    7.1290   12.6988   24.8773 C   0  0  0  0  0  0  0  0  0  0  0  0
    7.7721   11.5676   24.3938 C   0  0  0  0  0  0  0  0  0  0  0  0
    6.1169   12.5714   25.8677 C   0  0  0  0  0  0  0  0  0  0  0  0
    5.7943   11.3517   26.3249 C   0  0  0  0  0  0  0  0  0  0  0  0
    7.4348   10.2276   24.8779 C   0  0  0  0  0  0  0  0  0  0  0  0
    9.5917   11.2158   22.6891 C   0  0  0  0  0  0  0  0  0  0  0  0
   12.1329    9.9785   22.4177 C   0  0  0  0  0  0  0  0  0  0  0  0
   11.1100    8.0377   23.6410 C   0  0  0  0  0  0  0  0  0  0  0  0
   10.1839    8.7413   21.4149 C   0  0  0  0  0  0  0  0  0  0  0  0
   10.8403    9.2177   22.7099 C   0  0  0  0  0  0  0  0  0  0  0  0
    8.7037   11.9984   23.4463 N   0  0  0  0  0  0  0  0  0  0  0  0
    6.4245   10.2185   25.8529 N   0  0  0  0  0  0  0  0  0  0  0  0
    7.9536    9.1790   24.5015 O   0  0  0  0  0  0  0  0  0  0  0  0
    9.9602   11.5494   21.5762 O   0  0  0  0  0  0  0  0  0  0  0  0
    9.9353   10.0990   23.3820 O   0  0  0  0  0  0  0  0  0  0  0  0
    7.3578   14.8688   24.3964 H   0  0  0  0  0  0  0  0  0  0  0  0
    9.2312   13.9544   22.7012 H   0  0  0  0  0  0  0  0  0  0  0  0
    5.6134   13.4536   26.2483 H   0  0  0  0  0  0  0  0  0  0  0  0
    5.0334   11.1917   27.0783 H   0  0  0  0  0  0  0  0  0  0  0  0
   11.9435   10.8264   21.7497 H   0  0  0  0  0  0  0  0  0  0  0  0
   12.5952   10.3557   23.3357 H   0  0  0  0  0  0  0  0  0  0  0  0
   12.8572    9.3360   21.9041 H   0  0  0  0  0  0  0  0  0  0  0  0
   10.1854    7.4890   23.8533 H   0  0  0  0  0  0  0  0  0  0  0  0
   11.4929    8.3832   24.6081 H   0  0  0  0  0  0  0  0  0  0  0  0
   11.8357    7.3405   23.2098 H   0  0  0  0  0  0  0  0  0  0  0  0
    9.2568    8.1956   21.6242 H   0  0  0  0  0  0  0  0  0  0  0  0
    9.9494    9.5787   20.7498 H   0  0  0  0  0  0  0  0  0  0  0  0
   10.8389    8.0443   20.8796 H   0  0  0  0  0  0  0  0  0  0  0  0
    6.1395    9.3213   26.2349 H   0  0  0  0  0  0  0  0  0  0  0  0
  1  2  2  0  0  0  0
  1  3  1  0  0  0  0
  2 13  1  0  0  0  0
  3  4  2  0  0  0  0
  3  5  1  0  0  0  0
  4  7  1  0  0  0  0
  4 13  1  0  0  0  0
  5  6  2  0  0  0  0
  6 14  1  0  0  0  0
  7 14  1  0  0  0  0
  7 15  2  0  0  0  0
  8 13  1  0  0  0  0
  8 16  2  0  0  0  0
  8 17  1  0  0  0  0
  9 12  1  0  0  0  0
 10 12  1  0  0  0  0
 11 12  1  0  0  0  0
 12 17  1  0  0  0  0
  1 18  1  0  0  0  0
  2 19  1  0  0  0  0
  5 20  1  0  0  0  0
  6 21  1  0  0  0  0
  9 22  1  0  0  0  0
  9 23  1  0  0  0  0
  9 24  1  0  0  0  0
 10 25  1  0  0  0  0
 10 26  1  0  0  0  0
 10 27  1  0  0  0  0
 11 28  1  0  0  0  0
 11 29  1  0  0  0  0
 11 30  1  0  0  0  0
 14 31  1  0  0  0  0
M  END
> <id>
EN300-186849

> <smiles>
CC(C)(C)OC(=O)N1C=CC=2C=CNC(=O)C12

> <MDLNUMBER>
MFCD28118573

> <IUPAC Name>
tert-butyl 7-oxo-1H,6H,7H-pyrrolo[2,3-c]pyridine-1-carboxylate

> <CAS>
1803590-95-5

> <Purity>
95

> <URL>
https://www.enaminestore.com/catalog/EN300-186849

> <ROCS_ShapeQuery>
_x1140_x0812_0A_x1140_0A_x1097_0A_x0365_0A_x1097_0A_x0310_0A

> <ROCS_TanimotoCombo>
0.640 

> <ROCS_ShapeTanimoto>
0.263 

> <ROCS_ColorTanimoto>
0.377 

> <ROCS_RefTversky>
0.234 

> <ROCS_RefColorTversky>
0.485 

> <ROCS_RefTverskyCombo>
0.720 

> <ROCS_FitTversky>
1.874 

> <ROCS_FitColorTversky>
0.627 

> <ROCS_FitTverskyCombo>
2.501 

> <ROCS_ColorScore>
-3.836

> <ROCS_Overlap>
2405.853

> <ROCS_Rank>
81                  

$$$$
untitled-dbase-499010_3
  -OEChem-02092423213D

 33 33  0     0  0  0  0  0  0999 V2000
    7.7447   12.0878   25.2518 C   0  0  0  0  0  0  0  0  0  0  0  0
    7.7382   10.6970   25.4371 C   0  0  0  0  0  0  0  0  0  0  0  0
    8.4148   12.2738   24.0673 C   0  0  0  0  0  0  0  0  0  0  0  0
    9.4600   10.6614   22.4610 C   0  0  0  0  0  0  0  0  0  0  0  0
    7.1637   13.1196   26.1289 C   0  0  0  0  0  0  0  0  0  0  0  0
    7.1490    9.9370   26.5536 C   0  0  0  0  0  0  0  0  0  0  0  0
    8.7261   13.5389   23.3686 C   0  0  0  0  0  0  0  0  0  0  0  0
   11.6426    9.3024   23.6521 C   0  0  0  0  0  0  0  0  0  0  0  0
   10.8814    7.3087   22.3274 C   0  0  0  0  0  0  0  0  0  0  0  0
   11.6272    9.3907   21.1369 C   0  0  0  0  0  0  0  0  0  0  0  0
   10.9362    8.8340   22.3808 C   0  0  0  0  0  0  0  0  0  0  0  0
    8.3542   10.0412   24.4519 N   0  0  0  0  0  0  0  0  0  0  0  0
    8.7677   11.0226   23.6133 N   0  0  0  0  0  0  0  0  0  0  0  0
    9.8536   11.5077   21.6744 O   0  0  0  0  0  0  0  0  0  0  0  0
    9.5885    9.3130   22.4060 O   0  0  0  0  0  0  0  0  0  0  0  0
    7.8949   13.4637   26.8800 H   0  0  0  0  0  0  0  0  0  0  0  0
    6.8261   14.0055   25.5626 H   0  0  0  0  0  0  0  0  0  0  0  0
    6.2757   12.7517   26.6727 H   0  0  0  0  0  0  0  0  0  0  0  0
    6.1002    9.6665   26.3437 H   0  0  0  0  0  0  0  0  0  0  0  0
    7.6997    9.0016   26.7570 H   0  0  0  0  0  0  0  0  0  0  0  0
    7.1630   10.5078   27.4990 H   0  0  0  0  0  0  0  0  0  0  0  0
    9.6981   13.9415   23.6949 H   0  0  0  0  0  0  0  0  0  0  0  0
    8.7665   13.4058   22.2749 H   0  0  0  0  0  0  0  0  0  0  0  0
    7.9614   14.3110   23.5554 H   0  0  0  0  0  0  0  0  0  0  0  0
   11.6840   10.3967   23.6942 H   0  0  0  0  0  0  0  0  0  0  0  0
   11.1364    8.9387   24.5522 H   0  0  0  0  0  0  0  0  0  0  0  0
   12.6811    8.9527   23.6739 H   0  0  0  0  0  0  0  0  0  0  0  0
   10.3753    6.9682   21.4168 H   0  0  0  0  0  0  0  0  0  0  0  0
   10.3041    6.9092   23.1691 H   0  0  0  0  0  0  0  0  0  0  0  0
   11.8829    6.8673   22.3532 H   0  0  0  0  0  0  0  0  0  0  0  0
   11.1207    9.0548   20.2248 H   0  0  0  0  0  0  0  0  0  0  0  0
   11.6430   10.4854   21.1402 H   0  0  0  0  0  0  0  0  0  0  0  0
   12.6591    9.0277   21.0690 H   0  0  0  0  0  0  0  0  0  0  0  0
  1  2  1  0  0  0  0
  1  3  2  0  0  0  0
  1  5  1  0  0  0  0
  2  6  1  0  0  0  0
  2 12  2  0  0  0  0
  3  7  1  0  0  0  0
  3 13  1  0  0  0  0
  4 13  1  0  0  0  0
  4 14  2  0  0  0  0
  4 15  1  0  0  0  0
  8 11  1  0  0  0  0
  9 11  1  0  0  0  0
 10 11  1  0  0  0  0
 11 15  1  0  0  0  0
 12 13  1  0  0  0  0
  5 16  1  0  0  0  0
  5 17  1  0  0  0  0
  5 18  1  0  0  0  0
  6 19  1  0  0  0  0
  6 20  1  0  0  0  0
  6 21  1  0  0  0  0
  7 22  1  0  0  0  0
  7 23  1  0  0  0  0
  7 24  1  0  0  0  0
  8 25  1  0  0  0  0
  8 26  1  0  0  0  0
  8 27  1  0  0  0  0
  9 28  1  0  0  0  0
  9 29  1  0  0  0  0
  9 30  1  0  0  0  0
 10 31  1  0  0  0  0
 10 32  1  0  0  0  0
 10 33  1  0  0  0  0
M  END
> <id>
EN300-28262801

> <smiles>
CC1=NN(C(=O)OC(C)(C)C)C(C)=C1C

> <IUPAC Name>
tert-butyl 3,4,5-trimethyl-1H-pyrazole-1-carboxylate

> <CAS>
2680712-76-7

> <URL>
https://www.enaminestore.com/catalog/EN300-28262801

> <ROCS_ShapeQuery>
_x1140_x0812_0A_x1140_0A_x1097_0A_x0365_0A_x1097_0A_x0310_0A

> <ROCS_TanimotoCombo>
0.640 

> <ROCS_ShapeTanimoto>
0.227 

> <ROCS_ColorTanimoto>
0.413 

> <ROCS_RefTversky>
0.206 

> <ROCS_RefColorTversky>
0.450 

> <ROCS_RefTverskyCombo>
0.656 

> <ROCS_FitTversky>
1.805 

> <ROCS_FitColorTversky>
0.835 

> <ROCS_FitTverskyCombo>
2.640 

> <ROCS_ColorScore>
-3.508

> <ROCS_Overlap>
2111.313

> <ROCS_Rank>
82                  

$$$$
untitled-dbase-356476_9
  -OEChem-02092423213D

 25 26  0     0  0  0  0  0  0999 V2000
   11.9159   15.3028   22.2952 C   0  0  0  0  0  0  0  0  0  0  0  0
    6.3101   12.1196   27.4556 C   0  0  0  0  0  0  0  0  0  0  0  0
    7.0890   12.6914   26.4538 C   0  0  0  0  0  0  0  0  0  0  0  0
    6.1502   10.7401   27.4966 C   0  0  0  0  0  0  0  0  0  0  0  0
    8.5009   12.4317   24.4686 C   0  0  0  0  0  0  0  0  0  0  0  0
    8.8895   10.2471   23.6459 C   0  0  0  0  0  0  0  0  0  0  0  0
    7.7114   11.8824   25.4879 C   0  0  0  0  0  0  0  0  0  0  0  0
    9.1020   11.6058   23.5297 C   0  0  0  0  0  0  0  0  0  0  0  0
    7.5533   10.4811   25.5233 C   0  0  0  0  0  0  0  0  0  0  0  0
    6.7691    9.9360   26.5363 C   0  0  0  0  0  0  0  0  0  0  0  0
    9.9245   12.1507   22.4642 C   0  0  0  0  0  0  0  0  0  0  0  0
   11.3929   14.0535   21.7452 C   0  0  0  0  0  0  0  0  0  0  0  0
   12.3333   16.2948   22.7288 N   0  0  0  0  0  0  0  0  0  0  0  0
    8.1355    9.6771   24.6136 N   0  0  0  0  0  0  0  0  0  0  0  0
   10.5616   13.3732   22.7122 N   0  0  0  0  0  0  0  0  0  0  0  0
   10.0300   11.5535   21.3770 O   0  0  0  0  0  0  0  0  0  0  0  0
    6.5970    8.6067   26.6006 F   0  0  0  0  0  0  0  0  0  0  0  0
    5.8308   12.7478   28.2001 H   0  0  0  0  0  0  0  0  0  0  0  0
    7.2077   13.7725   26.4309 H   0  0  0  0  0  0  0  0  0  0  0  0
    5.5443   10.2851   28.2746 H   0  0  0  0  0  0  0  0  0  0  0  0
    8.6454   13.5089   24.4096 H   0  0  0  0  0  0  0  0  0  0  0  0
    9.3301    9.5445   22.9449 H   0  0  0  0  0  0  0  0  0  0  0  0
   10.7826   14.2390   20.8567 H   0  0  0  0  0  0  0  0  0  0  0  0
   12.2043   13.3737   21.4703 H   0  0  0  0  0  0  0  0  0  0  0  0
   10.3923   13.8500   23.5918 H   0  0  0  0  0  0  0  0  0  0  0  0
  1 12  1  0  0  0  0
  1 13  3  0  0  0  0
  2  3  1  0  0  0  0
  2  4  2  0  0  0  0
  3  7  2  0  0  0  0
  4 10  1  0  0  0  0
  5  7  1  0  0  0  0
  5  8  2  0  0  0  0
  6  8  1  0  0  0  0
  6 14  2  0  0  0  0
  7  9  1  0  0  0  0
  8 11  1  0  0  0  0
  9 10  2  0  0  0  0
  9 14  1  0  0  0  0
 10 17  1  0  0  0  0
 11 15  1  0  0  0  0
 11 16  2  0  0  0  0
 12 15  1  0  0  0  0
  2 18  1  0  0  0  0
  3 19  1  0  0  0  0
  4 20  1  0  0  0  0
  5 21  1  0  0  0  0
  6 22  1  0  0  0  0
 12 23  1  0  0  0  0
 12 24  1  0  0  0  0
 15 25  1  0  0  0  0
M  END
> <id>
EN300-6661907

> <smiles>
FC=1C=CC=C2C=C(C=NC12)C(=O)NCC#N

> <IUPAC Name>
N-(cyanomethyl)-8-fluoroquinoline-3-carboxamide

> <CAS>
2093605-53-7

> <URL>
https://www.enaminestore.com/catalog/EN300-6661907

> <ROCS_ShapeQuery>
_x1140_x0812_0A_x1140_0A_x1097_0A_x0365_0A_x1097_0A_x0310_0A

> <ROCS_TanimotoCombo>
0.640 

> <ROCS_ShapeTanimoto>
0.245 

> <ROCS_ColorTanimoto>
0.395 

> <ROCS_RefTversky>
0.221 

> <ROCS_RefColorTversky>
0.502 

> <ROCS_RefTverskyCombo>
0.723 

> <ROCS_FitTversky>
1.783 

> <ROCS_FitColorTversky>
0.650 

> <ROCS_FitTverskyCombo>
2.433 

> <ROCS_ColorScore>
-3.967

> <ROCS_Overlap>
2266.460

> <ROCS_Rank>
83                  

$$$$
untitled-dbase-287377_8
  -OEChem-02092423213D

 28 28  0     0  0  0  0  0  0999 V2000
    8.4760   12.8122   25.3203 C   0  0  0  0  0  0  0  0  0  0  0  0
    9.1461   12.4054   24.1719 C   0  0  0  0  0  0  0  0  0  0  0  0
    7.5489   11.9635   25.9150 C   0  0  0  0  0  0  0  0  0  0  0  0
    8.8556   11.1503   23.6618 C   0  0  0  0  0  0  0  0  0  0  0  0
    7.3298   10.7284   25.3267 C   0  0  0  0  0  0  0  0  0  0  0  0
    9.5430   10.6625   22.4395 C   0  0  0  0  0  0  0  0  0  0  0  0
   11.9227    9.8139   23.0892 C   0  0  0  0  0  0  0  0  0  0  0  0
   11.0045    7.4782   23.1919 C   0  0  0  0  0  0  0  0  0  0  0  0
   11.3836    8.5761   20.9651 C   0  0  0  0  0  0  0  0  0  0  0  0
   10.9931    8.7990   22.4254 C   0  0  0  0  0  0  0  0  0  0  0  0
    7.9615   10.2983   24.2115 N   0  0  0  0  0  0  0  0  0  0  0  0
    6.3822    9.8747   25.9442 N   0  0  0  0  0  0  0  0  0  0  0  0
    9.9371   11.4030   21.5519 O   0  0  0  0  0  0  0  0  0  0  0  0
    9.6598    9.3089   22.4668 O   0  0  0  0  0  0  0  0  0  0  0  0
    8.6749   13.7890   25.7507 H   0  0  0  0  0  0  0  0  0  0  0  0
    9.8721   13.0590   23.7000 H   0  0  0  0  0  0  0  0  0  0  0  0
    7.0219   12.2724   26.8118 H   0  0  0  0  0  0  0  0  0  0  0  0
   11.9173   10.7634   22.5419 H   0  0  0  0  0  0  0  0  0  0  0  0
   11.6321   10.0089   24.1266 H   0  0  0  0  0  0  0  0  0  0  0  0
   12.9594    9.4584   23.0811 H   0  0  0  0  0  0  0  0  0  0  0  0
   10.3389    6.7470   22.7192 H   0  0  0  0  0  0  0  0  0  0  0  0
   10.6343    7.6170   24.2142 H   0  0  0  0  0  0  0  0  0  0  0  0
   12.0105    7.0493   23.2428 H   0  0  0  0  0  0  0  0  0  0  0  0
   10.7169    7.8481   20.4887 H   0  0  0  0  0  0  0  0  0  0  0  0
   11.3452    9.5074   20.3907 H   0  0  0  0  0  0  0  0  0  0  0  0
   12.3960    8.1629   20.8911 H   0  0  0  0  0  0  0  0  0  0  0  0
    5.9498   10.1695   26.7925 H   0  0  0  0  0  0  0  0  0  0  0  0
    6.2401    8.9624   25.5687 H   0  0  0  0  0  0  0  0  0  0  0  0
  1  2  2  0  0  0  0
  1  3  1  0  0  0  0
  2  4  1  0  0  0  0
  3  5  2  0  0  0  0
  4  6  1  0  0  0  0
  4 11  2  0  0  0  0
  5 11  1  0  0  0  0
  5 12  1  0  0  0  0
  6 13  2  0  0  0  0
  6 14  1  0  0  0  0
  7 10  1  0  0  0  0
  8 10  1  0  0  0  0
  9 10  1  0  0  0  0
 10 14  1  0  0  0  0
  1 15  1  0  0  0  0
  2 16  1  0  0  0  0
  3 17  1  0  0  0  0
  7 18  1  0  0  0  0
  7 19  1  0  0  0  0
  7 20  1  0  0  0  0
  8 21  1  0  0  0  0
  8 22  1  0  0  0  0
  8 23  1  0  0  0  0
  9 24  1  0  0  0  0
  9 25  1  0  0  0  0
  9 26  1  0  0  0  0
 12 27  1  0  0  0  0
 12 28  1  0  0  0  0
M  END
> <id>
EN300-910972

> <smiles>
CC(C)(C)OC(=O)C=1C=CC=C(N)N1

> <MDLNUMBER>
MFCD24127898

> <IUPAC Name>
tert-butyl 6-aminopyridine-2-carboxylate

> <CAS>
1499890-31-1

> <URL>
https://www.enaminestore.com/catalog/EN300-910972

> <ROCS_ShapeQuery>
_x1140_x0812_0A_x1140_0A_x1097_0A_x0365_0A_x1097_0A_x0310_0A

> <ROCS_TanimotoCombo>
0.640 

> <ROCS_ShapeTanimoto>
0.215 

> <ROCS_ColorTanimoto>
0.425 

> <ROCS_RefTversky>
0.196 

> <ROCS_RefColorTversky>
0.529 

> <ROCS_RefTverskyCombo>
0.725 

> <ROCS_FitTversky>
1.788 

> <ROCS_FitColorTversky>
0.684 

> <ROCS_FitTverskyCombo>
2.473 

> <ROCS_ColorScore>
-4.178

> <ROCS_Overlap>
2009.281

> <ROCS_Rank>
84                  

$$$$
untitled-dbase-158391_3
  -OEChem-02092423213D

 22 22  0     0  0  0  0  0  0999 V2000
    9.2960   12.3907   24.5264 C   0  0  0  0  0  0  0  0  0  0  0  0
    7.9901   10.6707   25.5228 C   0  0  0  0  0  0  0  0  0  0  0  0
    9.3838   11.6154   23.3755 C   0  0  0  0  0  0  0  0  0  0  0  0
    8.5877   11.9166   25.6250 C   0  0  0  0  0  0  0  0  0  0  0  0
    8.7507   10.3829   23.3741 C   0  0  0  0  0  0  0  0  0  0  0  0
   11.2254    8.8553   22.5572 C   0  0  0  0  0  0  0  0  0  0  0  0
    8.8091    9.5038   22.1673 C   0  0  0  0  0  0  0  0  0  0  0  0
    9.8071    8.3507   22.3436 C   0  0  0  0  0  0  0  0  0  0  0  0
    8.0535    9.8889   24.4218 N   0  0  0  0  0  0  0  0  0  0  0  0
   10.0980   12.0854   22.2588 N   0  0  0  0  0  0  0  0  0  0  0  0
    8.4878   12.6401   26.7455 F   0  0  0  0  0  0  0  0  0  0  0  0
    9.7760   13.3641   24.5798 H   0  0  0  0  0  0  0  0  0  0  0  0
    7.4269   10.2561   26.3524 H   0  0  0  0  0  0  0  0  0  0  0  0
   11.5502    9.4790   21.7184 H   0  0  0  0  0  0  0  0  0  0  0  0
   11.2968    9.4477   23.4749 H   0  0  0  0  0  0  0  0  0  0  0  0
   11.9188    8.0126   22.6421 H   0  0  0  0  0  0  0  0  0  0  0  0
    7.8120    9.0892   21.9453 H   0  0  0  0  0  0  0  0  0  0  0  0
    9.0879   10.0910   21.2769 H   0  0  0  0  0  0  0  0  0  0  0  0
    9.5139    7.7310   23.1998 H   0  0  0  0  0  0  0  0  0  0  0  0
    9.7866    7.7007   21.4604 H   0  0  0  0  0  0  0  0  0  0  0  0
   10.5020   13.0019   22.2834 H   0  0  0  0  0  0  0  0  0  0  0  0
   10.1141   11.5382   21.4196 H   0  0  0  0  0  0  0  0  0  0  0  0
  1  3  1  0  0  0  0
  1  4  2  0  0  0  0
  2  4  1  0  0  0  0
  2  9  2  0  0  0  0
  3  5  2  0  0  0  0
  3 10  1  0  0  0  0
  4 11  1  0  0  0  0
  5  7  1  0  0  0  0
  5  9  1  0  0  0  0
  6  8  1  0  0  0  0
  7  8  1  0  0  0  0
  1 12  1  0  0  0  0
  2 13  1  0  0  0  0
  6 14  1  0  0  0  0
  6 15  1  0  0  0  0
  6 16  1  0  0  0  0
  7 17  1  0  0  0  0
  7 18  1  0  0  0  0
  8 19  1  0  0  0  0
  8 20  1  0  0  0  0
 10 21  1  0  0  0  0
 10 22  1  0  0  0  0
M  END
> <id>
EN300-1622605

> <smiles>
CCCC=1N=CC(F)=CC1N

> <IUPAC Name>
5-fluoro-2-propylpyridin-3-amine

> <CAS>
1935616-59-3

> <URL>
https://www.enaminestore.com/catalog/EN300-1622605

> <ROCS_ShapeQuery>
_x1140_x0812_0A_x1140_0A_x1097_0A_x0365_0A_x1097_0A_x0310_0A

> <ROCS_TanimotoCombo>
0.639 

> <ROCS_ShapeTanimoto>
0.184 

> <ROCS_ColorTanimoto>
0.455 

> <ROCS_RefTversky>
0.170 

> <ROCS_RefColorTversky>
0.518 

> <ROCS_RefTverskyCombo>
0.688 

> <ROCS_FitTversky>
1.772 

> <ROCS_FitColorTversky>
0.789 

> <ROCS_FitTverskyCombo>
2.562 

> <ROCS_ColorScore>
-4.065

> <ROCS_Overlap>
1744.146

> <ROCS_Rank>
85                  

$$$$
untitled-dbase-491783_5
  -OEChem-02092423213D

 23 23  0     0  0  0  0  0  0999 V2000
    9.1086   11.5279   23.4917 C   0  0  0  0  0  0  0  0  0  0  0  0
    9.0267   10.1872   23.7973 C   0  0  0  0  0  0  0  0  0  0  0  0
    7.2482   10.6092   25.1716 C   0  0  0  0  0  0  0  0  0  0  0  0
    7.3306   11.9499   24.8665 C   0  0  0  0  0  0  0  0  0  0  0  0
   10.1057   12.0705   22.5819 C   0  0  0  0  0  0  0  0  0  0  0  0
   11.3681   14.8508   21.7574 C   0  0  0  0  0  0  0  0  0  0  0  0
   11.9259   13.6024   22.4071 C   0  0  0  0  0  0  0  0  0  0  0  0
    8.2621   12.4333   24.0209 N   0  0  0  0  0  0  0  0  0  0  0  0
    8.0950    9.7038   24.6427 N   0  0  0  0  0  0  0  0  0  0  0  0
    9.9438    9.2867   23.2100 N   0  0  0  0  0  0  0  0  0  0  0  0
    6.2517   10.1556   26.0645 N   0  0  0  0  0  0  0  0  0  0  0  0
   10.2215   11.7420   21.3940 O   0  0  0  0  0  0  0  0  0  0  0  0
   10.9027   12.9934   23.2020 O   0  0  0  0  0  0  0  0  0  0  0  0
    6.2796   13.1447   25.5112 Cl  0  0  0  0  0  0  0  0  0  0  0  0
   10.5210   14.6083   21.1097 H   0  0  0  0  0  0  0  0  0  0  0  0
   11.0386   15.5671   22.5171 H   0  0  0  0  0  0  0  0  0  0  0  0
   12.1374   15.3515   21.1602 H   0  0  0  0  0  0  0  0  0  0  0  0
   12.7727   13.8518   23.0534 H   0  0  0  0  0  0  0  0  0  0  0  0
   12.2538   12.8875   21.6466 H   0  0  0  0  0  0  0  0  0  0  0  0
   10.6057    9.6320   22.5468 H   0  0  0  0  0  0  0  0  0  0  0  0
    9.8517    8.3100   23.3971 H   0  0  0  0  0  0  0  0  0  0  0  0
    5.6492   10.8231   26.4994 H   0  0  0  0  0  0  0  0  0  0  0  0
    6.2292    9.1893   26.3163 H   0  0  0  0  0  0  0  0  0  0  0  0
  1  2  2  0  0  0  0
  1  5  1  0  0  0  0
  1  8  1  0  0  0  0
  2  9  1  0  0  0  0
  2 10  1  0  0  0  0
  3  4  1  0  0  0  0
  3  9  2  0  0  0  0
  3 11  1  0  0  0  0
  4  8  2  0  0  0  0
  4 14  1  0  0  0  0
  5 12  2  0  0  0  0
  5 13  1  0  0  0  0
  6  7  1  0  0  0  0
  7 13  1  0  0  0  0
  6 15  1  0  0  0  0
  6 16  1  0  0  0  0
  6 17  1  0  0  0  0
  7 18  1  0  0  0  0
  7 19  1  0  0  0  0
 10 20  1  0  0  0  0
 10 21  1  0  0  0  0
 11 22  1  0  0  0  0
 11 23  1  0  0  0  0
M  END
> <id>
EN300-8674290

> <smiles>
CCOC(=O)C=1N=C(Cl)C(N)=NC1N

> <MDLNUMBER>
MFCD18070821

> <IUPAC Name>
ethyl 3,5-diamino-6-chloropyrazine-2-carboxylate

> <CAS>
1259479-84-9

> <URL>
https://www.enaminestore.com/catalog/EN300-8674290

> <ROCS_ShapeQuery>
_x1140_x0812_0A_x1140_0A_x1097_0A_x0365_0A_x1097_0A_x0310_0A

> <ROCS_TanimotoCombo>
0.639 

> <ROCS_ShapeTanimoto>
0.258 

> <ROCS_ColorTanimoto>
0.381 

> <ROCS_RefTversky>
0.227 

> <ROCS_RefColorTversky>
0.552 

> <ROCS_RefTverskyCombo>
0.780 

> <ROCS_FitTversky>
2.078 

> <ROCS_FitColorTversky>
0.551 

> <ROCS_FitTverskyCombo>
2.629 

> <ROCS_ColorScore>
-4.418

> <ROCS_Overlap>
2330.492

> <ROCS_Rank>
86                  

$$$$
untitled-dbase-450473_0
  -OEChem-02092423213D

 21 21  0     0  0  0  0  0  0999 V2000
    7.6085   12.1828   25.0136 C   0  0  0  0  0  0  0  0  0  0  0  0
    7.5018   10.8243   25.2644 C   0  0  0  0  0  0  0  0  0  0  0  0
    8.5459   12.5998   24.0752 C   0  0  0  0  0  0  0  0  0  0  0  0
    9.3370   11.6588   23.4255 C   0  0  0  0  0  0  0  0  0  0  0  0
    9.1531   10.3237   23.7475 C   0  0  0  0  0  0  0  0  0  0  0  0
    8.6802   14.0593   23.7873 C   0  0  0  0  0  0  0  0  0  0  0  0
    9.8422    7.9584   23.3529 C   0  0  0  0  0  0  0  0  0  0  0  0
    8.2526    9.8807   24.6533 N   0  0  0  0  0  0  0  0  0  0  0  0
   10.2920   12.0617   22.4705 N   0  0  0  0  0  0  0  0  0  0  0  0
    9.9539    9.3557   23.0904 N   0  0  0  0  0  0  0  0  0  0  0  0
    6.9751   12.8910   25.5370 H   0  0  0  0  0  0  0  0  0  0  0  0
    6.7860   10.4478   25.9876 H   0  0  0  0  0  0  0  0  0  0  0  0
    9.4211   14.5117   24.4564 H   0  0  0  0  0  0  0  0  0  0  0  0
    8.9941   14.2313   22.7504 H   0  0  0  0  0  0  0  0  0  0  0  0
    7.7236   14.5792   23.9218 H   0  0  0  0  0  0  0  0  0  0  0  0
    9.0647    7.7884   24.1123 H   0  0  0  0  0  0  0  0  0  0  0  0
    9.5706    7.4319   22.4260 H   0  0  0  0  0  0  0  0  0  0  0  0
   10.8054    7.5767   23.7226 H   0  0  0  0  0  0  0  0  0  0  0  0
   10.3635   13.0299   22.2290 H   0  0  0  0  0  0  0  0  0  0  0  0
   10.8173   11.3652   21.9809 H   0  0  0  0  0  0  0  0  0  0  0  0
   10.6138    9.6996   22.4236 H   0  0  0  0  0  0  0  0  0  0  0  0
  1  2  1  0  0  0  0
  1  3  2  0  0  0  0
  2  8  2  0  0  0  0
  3  4  1  0  0  0  0
  3  6  1  0  0  0  0
  4  5  2  0  0  0  0
  4  9  1  0  0  0  0
  5  8  1  0  0  0  0
  5 10  1  0  0  0  0
  7 10  1  0  0  0  0
  1 11  1  0  0  0  0
  2 12  1  0  0  0  0
  6 13  1  0  0  0  0
  6 14  1  0  0  0  0
  6 15  1  0  0  0  0
  7 16  1  0  0  0  0
  7 17  1  0  0  0  0
  7 18  1  0  0  0  0
  9 19  1  0  0  0  0
  9 20  1  0  0  0  0
 10 21  1  0  0  0  0
M  END
> <id>
EN300-2908013

> <smiles>
CNC=1N=CC=C(C)C1N

> <MDLNUMBER>
MFCD08692207

> <IUPAC Name>
N2,4-dimethylpyridine-2,3-diamine

> <CAS>
155790-14-0

> <Purity>
95

> <URL>
https://www.enaminestore.com/catalog/EN300-2908013

> <ROCS_ShapeQuery>
_x1140_x0812_0A_x1140_0A_x1097_0A_x0365_0A_x1097_0A_x0310_0A

> <ROCS_TanimotoCombo>
0.638 

> <ROCS_ShapeTanimoto>
0.201 

> <ROCS_ColorTanimoto>
0.437 

> <ROCS_RefTversky>
0.183 

> <ROCS_RefColorTversky>
0.504 

> <ROCS_RefTverskyCombo>
0.687 

> <ROCS_FitTversky>
1.973 

> <ROCS_FitColorTversky>
0.768 

> <ROCS_FitTverskyCombo>
2.741 

> <ROCS_ColorScore>
-3.957

> <ROCS_Overlap>
1872.683

> <ROCS_Rank>
87                  

$$$$
untitled-dbase-499023_3
  -OEChem-02092423213D

 30 30  0     0  0  0  0  0  0999 V2000
    7.7474   12.0890   25.2512 C   0  0  0  0  0  0  0  0  0  0  0  0
    7.7419   10.6984   25.4387 C   0  0  0  0  0  0  0  0  0  0  0  0
    8.4162   12.2735   24.0659 C   0  0  0  0  0  0  0  0  0  0  0  0
    9.4609   10.6593   22.4609 C   0  0  0  0  0  0  0  0  0  0  0  0
    7.1558    9.9334   26.5545 C   0  0  0  0  0  0  0  0  0  0  0  0
    8.7281   13.5362   23.3622 C   0  0  0  0  0  0  0  0  0  0  0  0
   11.6454    9.3035   23.6520 C   0  0  0  0  0  0  0  0  0  0  0  0
   10.8841    7.3073   22.3310 C   0  0  0  0  0  0  0  0  0  0  0  0
   11.6275    9.3879   21.1366 C   0  0  0  0  0  0  0  0  0  0  0  0
   10.9380    8.8327   22.3821 C   0  0  0  0  0  0  0  0  0  0  0  0
    8.3573   10.0415   24.4539 N   0  0  0  0  0  0  0  0  0  0  0  0
    8.7695   11.0219   23.6134 N   0  0  0  0  0  0  0  0  0  0  0  0
    9.8531   11.5046   21.6727 O   0  0  0  0  0  0  0  0  0  0  0  0
    9.5901    9.3109   22.4079 O   0  0  0  0  0  0  0  0  0  0  0  0
    7.0712   13.2546   26.2763 Cl  0  0  0  0  0  0  0  0  0  0  0  0
    6.1079    9.6608   26.3444 H   0  0  0  0  0  0  0  0  0  0  0  0
    7.7098    8.9996   26.7544 H   0  0  0  0  0  0  0  0  0  0  0  0
    7.1693   10.5024   27.5007 H   0  0  0  0  0  0  0  0  0  0  0  0
    9.7006   13.9388   23.6864 H   0  0  0  0  0  0  0  0  0  0  0  0
    8.7673   13.3988   22.2691 H   0  0  0  0  0  0  0  0  0  0  0  0
    7.9642   14.3093   23.5471 H   0  0  0  0  0  0  0  0  0  0  0  0
   11.6862   10.3979   23.6924 H   0  0  0  0  0  0  0  0  0  0  0  0
   11.1403    8.9408   24.5532 H   0  0  0  0  0  0  0  0  0  0  0  0
   12.6841    8.9544   23.6733 H   0  0  0  0  0  0  0  0  0  0  0  0
   10.3774    6.9651   21.4215 H   0  0  0  0  0  0  0  0  0  0  0  0
   10.3079    6.9087   23.1739 H   0  0  0  0  0  0  0  0  0  0  0  0
   11.8859    6.8665   22.3565 H   0  0  0  0  0  0  0  0  0  0  0  0
   11.1203    9.0504   20.2256 H   0  0  0  0  0  0  0  0  0  0  0  0
   11.6427   10.4826   21.1383 H   0  0  0  0  0  0  0  0  0  0  0  0
   12.6596    9.0255   21.0683 H   0  0  0  0  0  0  0  0  0  0  0  0
  1  2  1  0  0  0  0
  1  3  2  0  0  0  0
  1 15  1  0  0  0  0
  2  5  1  0  0  0  0
  2 11  2  0  0  0  0
  3  6  1  0  0  0  0
  3 12  1  0  0  0  0
  4 12  1  0  0  0  0
  4 13  2  0  0  0  0
  4 14  1  0  0  0  0
  7 10  1  0  0  0  0
  8 10  1  0  0  0  0
  9 10  1  0  0  0  0
 10 14  1  0  0  0  0
 11 12  1  0  0  0  0
  5 16  1  0  0  0  0
  5 17  1  0  0  0  0
  5 18  1  0  0  0  0
  6 19  1  0  0  0  0
  6 20  1  0  0  0  0
  6 21  1  0  0  0  0
  7 22  1  0  0  0  0
  7 23  1  0  0  0  0
  7 24  1  0  0  0  0
  8 25  1  0  0  0  0
  8 26  1  0  0  0  0
  8 27  1  0  0  0  0
  9 28  1  0  0  0  0
  9 29  1  0  0  0  0
  9 30  1  0  0  0  0
M  END
> <id>
EN300-28262837

> <smiles>
CC1=NN(C(=O)OC(C)(C)C)C(C)=C1Cl

> <IUPAC Name>
tert-butyl 4-chloro-3,5-dimethyl-1H-pyrazole-1-carboxylate

> <CAS>
2680809-30-5

> <URL>
https://www.enaminestore.com/catalog/EN300-28262837

> <ROCS_ShapeQuery>
_x1140_x0812_0A_x1140_0A_x1097_0A_x0365_0A_x1097_0A_x0310_0A

> <ROCS_TanimotoCombo>
0.638 

> <ROCS_ShapeTanimoto>
0.225 

> <ROCS_ColorTanimoto>
0.413 

> <ROCS_RefTversky>
0.205 

> <ROCS_RefColorTversky>
0.450 

> <ROCS_RefTverskyCombo>
0.654 

> <ROCS_FitTversky>
1.803 

> <ROCS_FitColorTversky>
0.835 

> <ROCS_FitTverskyCombo>
2.639 

> <ROCS_ColorScore>
-3.508

> <ROCS_Overlap>
2098.943

> <ROCS_Rank>
88                  

$$$$
untitled-dbase-357738_4
  -OEChem-02092423213D

 27 27  0     1  0  0  0  0  0999 V2000
    7.7507   11.9920   25.4944 C   0  0  0  0  0  0  0  0  0  0  0  0
    8.4870   12.5570   24.4591 C   0  0  0  0  0  0  0  0  0  0  0  0
    7.6435   10.6112   25.5355 C   0  0  0  0  0  0  0  0  0  0  0  0
    9.0852   11.7356   23.5100 C   0  0  0  0  0  0  0  0  0  0  0  0
    8.9184   10.3663   23.6400 C   0  0  0  0  0  0  0  0  0  0  0  0
    9.8501   12.3374   22.4264 C   0  0  0  0  0  0  0  0  0  0  0  0
   11.7721    9.5498   21.7682 C   0  0  0  0  0  0  0  0  0  0  0  0
   10.8700    7.5327   22.9779 C   0  0  0  0  0  0  0  0  0  0  0  0
    8.8362    9.1356   21.4862 C   0  0  0  0  0  0  0  0  0  0  0  0
   10.8920    9.0525   22.9057 C   0  0  0  0  0  0  0  0  0  0  0  0
    8.2104    9.7808   24.6318 N   0  0  0  0  0  0  0  0  0  0  0  0
    9.5077    9.5436   22.6993 N   0  0  3  0  0  0  0  0  0  0  0  0
    9.9531   11.8230   21.3106 O   0  0  0  0  0  0  0  0  0  0  0  0
    7.2744   12.6130   26.2443 H   0  0  0  0  0  0  0  0  0  0  0  0
    8.5872   13.6377   24.4022 H   0  0  0  0  0  0  0  0  0  0  0  0
    7.0800   10.1213   26.3228 H   0  0  0  0  0  0  0  0  0  0  0  0
   10.3564   13.3037   22.6359 H   0  0  0  0  0  0  0  0  0  0  0  0
   11.4258    9.1568   20.8068 H   0  0  0  0  0  0  0  0  0  0  0  0
   11.7704   10.6441   21.7101 H   0  0  0  0  0  0  0  0  0  0  0  0
   12.8100    9.2297   21.9114 H   0  0  0  0  0  0  0  0  0  0  0  0
   10.5082    7.1046   22.0367 H   0  0  0  0  0  0  0  0  0  0  0  0
   10.2105    7.1900   23.7819 H   0  0  0  0  0  0  0  0  0  0  0  0
   11.8709    7.1260   23.1610 H   0  0  0  0  0  0  0  0  0  0  0  0
    9.5017    8.4861   20.8987 H   0  0  0  0  0  0  0  0  0  0  0  0
    7.9191    8.5848   21.7425 H   0  0  0  0  0  0  0  0  0  0  0  0
    8.5760   10.0255   20.8942 H   0  0  0  0  0  0  0  0  0  0  0  0
   11.2565    9.4577   23.8560 H   0  0  0  0  0  0  0  0  0  0  0  0
  1  2  2  0  0  0  0
  1  3  1  0  0  0  0
  2  4  1  0  0  0  0
  3 11  2  0  0  0  0
  4  5  2  0  0  0  0
  4  6  1  0  0  0  0
  5 11  1  0  0  0  0
  5 12  1  0  0  0  0
  6 13  2  0  0  0  0
  7 10  1  0  0  0  0
  8 10  1  0  0  0  0
  9 12  1  0  0  0  0
 10 12  1  0  0  0  0
  1 14  1  0  0  0  0
  2 15  1  0  0  0  0
  3 16  1  0  0  0  0
  6 17  1  0  0  0  0
  7 18  1  0  0  0  0
  7 19  1  0  0  0  0
  7 20  1  0  0  0  0
  8 21  1  0  0  0  0
  8 22  1  0  0  0  0
  8 23  1  0  0  0  0
  9 24  1  0  0  0  0
  9 25  1  0  0  0  0
  9 26  1  0  0  0  0
 10 27  1  0  0  0  0
M  END
> <id>
EN300-725580

> <smiles>
CC(C)N(C)C=1N=CC=CC1C=O

> <MDLNUMBER>
MFCD31443190

> <IUPAC Name>
2-[methyl(propan-2-yl)amino]pyridine-3-carbaldehyde

> <CAS>
1702868-35-6

> <URL>
https://www.enaminestore.com/catalog/EN300-725580

> <ROCS_ShapeQuery>
_x1140_x0812_0A_x1140_0A_x1097_0A_x0365_0A_x1097_0A_x0310_0A

> <ROCS_TanimotoCombo>
0.638 

> <ROCS_ShapeTanimoto>
0.214 

> <ROCS_ColorTanimoto>
0.424 

> <ROCS_RefTversky>
0.195 

> <ROCS_RefColorTversky>
0.458 

> <ROCS_RefTverskyCombo>
0.653 

> <ROCS_FitTversky>
1.865 

> <ROCS_FitColorTversky>
0.850 

> <ROCS_FitTverskyCombo>
2.715 

> <ROCS_ColorScore>
-3.572

> <ROCS_Overlap>
1998.218

> <ROCS_Rank>
89                  

$$$$
untitled-dbase-137252_3
  -OEChem-02092423213D

 25 25  0     0  0  0  0  0  0999 V2000
    9.2960   12.3901   24.5263 C   0  0  0  0  0  0  0  0  0  0  0  0
    7.9907   10.6705   25.5241 C   0  0  0  0  0  0  0  0  0  0  0  0
    8.5883   11.9165   25.6254 C   0  0  0  0  0  0  0  0  0  0  0  0
    9.3832   11.6144   23.3757 C   0  0  0  0  0  0  0  0  0  0  0  0
    8.7502   10.3819   23.3751 C   0  0  0  0  0  0  0  0  0  0  0  0
    8.4766   12.7222   26.8708 C   0  0  0  0  0  0  0  0  0  0  0  0
   11.2249    8.8548   22.5574 C   0  0  0  0  0  0  0  0  0  0  0  0
    8.8083    9.5027   22.1682 C   0  0  0  0  0  0  0  0  0  0  0  0
    9.8067    8.3499   22.3442 C   0  0  0  0  0  0  0  0  0  0  0  0
    8.0536    9.8882   24.4234 N   0  0  0  0  0  0  0  0  0  0  0  0
   10.0974   12.0839   22.2587 N   0  0  0  0  0  0  0  0  0  0  0  0
    9.7776   13.3642   24.5682 H   0  0  0  0  0  0  0  0  0  0  0  0
    7.4268   10.2485   26.3502 H   0  0  0  0  0  0  0  0  0  0  0  0
    7.5915   13.3712   26.8323 H   0  0  0  0  0  0  0  0  0  0  0  0
    8.3949   12.0803   27.7593 H   0  0  0  0  0  0  0  0  0  0  0  0
    9.3624   13.3556   27.0210 H   0  0  0  0  0  0  0  0  0  0  0  0
   11.5493    9.4787   21.7184 H   0  0  0  0  0  0  0  0  0  0  0  0
   11.2965    9.4473   23.4750 H   0  0  0  0  0  0  0  0  0  0  0  0
   11.9185    8.0124   22.6420 H   0  0  0  0  0  0  0  0  0  0  0  0
    7.8112    9.0879   21.9467 H   0  0  0  0  0  0  0  0  0  0  0  0
    9.0867   10.0900   21.2778 H   0  0  0  0  0  0  0  0  0  0  0  0
    9.5139    7.7301   23.2005 H   0  0  0  0  0  0  0  0  0  0  0  0
    9.7861    7.6999   21.4610 H   0  0  0  0  0  0  0  0  0  0  0  0
   10.5016   13.0003   22.2831 H   0  0  0  0  0  0  0  0  0  0  0  0
   10.1131   11.5365   21.4197 H   0  0  0  0  0  0  0  0  0  0  0  0
  1  3  2  0  0  0  0
  1  4  1  0  0  0  0
  2  3  1  0  0  0  0
  2 10  2  0  0  0  0
  3  6  1  0  0  0  0
  4  5  2  0  0  0  0
  4 11  1  0  0  0  0
  5  8  1  0  0  0  0
  5 10  1  0  0  0  0
  7  9  1  0  0  0  0
  8  9  1  0  0  0  0
  1 12  1  0  0  0  0
  2 13  1  0  0  0  0
  6 14  1  0  0  0  0
  6 15  1  0  0  0  0
  6 16  1  0  0  0  0
  7 17  1  0  0  0  0
  7 18  1  0  0  0  0
  7 19  1  0  0  0  0
  8 20  1  0  0  0  0
  8 21  1  0  0  0  0
  9 22  1  0  0  0  0
  9 23  1  0  0  0  0
 11 24  1  0  0  0  0
 11 25  1  0  0  0  0
M  END
> <id>
EN300-1622071

> <smiles>
CCCC=1N=CC(C)=CC1N

> <IUPAC Name>
5-methyl-2-propylpyridin-3-amine

> <CAS>
1865277-72-0

> <URL>
https://www.enaminestore.com/catalog/EN300-1622071

> <ROCS_ShapeQuery>
_x1140_x0812_0A_x1140_0A_x1097_0A_x0365_0A_x1097_0A_x0310_0A

> <ROCS_TanimotoCombo>
0.638 

> <ROCS_ShapeTanimoto>
0.183 

> <ROCS_ColorTanimoto>
0.455 

> <ROCS_RefTversky>
0.170 

> <ROCS_RefColorTversky>
0.518 

> <ROCS_RefTverskyCombo>
0.687 

> <ROCS_FitTversky>
1.773 

> <ROCS_FitColorTversky>
0.789 

> <ROCS_FitTverskyCombo>
2.563 

> <ROCS_ColorScore>
-4.065

> <ROCS_Overlap>
1736.656

> <ROCS_Rank>
90                  

$$$$
untitled-dbase-463113_3
  -OEChem-02092423213D

 14 14  0     0  0  0  0  0  0999 V2000
   11.3559    8.6535   22.5310 C   0  0  0  0  0  0  0  0  0  0  0  0
   10.6504    9.6249   22.5508 C   0  0  0  0  0  0  0  0  0  0  0  0
    9.0883   12.2412   24.4973 C   0  0  0  0  0  0  0  0  0  0  0  0
    8.9779   11.0888   23.7477 C   0  0  0  0  0  0  0  0  0  0  0  0
    7.4237   10.6645   25.2358 C   0  0  0  0  0  0  0  0  0  0  0  0
    9.7821   10.8085   22.5916 C   0  0  0  0  0  0  0  0  0  0  0  0
    8.0242   10.1833   24.1700 N   0  0  0  0  0  0  0  0  0  0  0  0
    6.4301   10.0255   25.9087 N   0  0  0  0  0  0  0  0  0  0  0  0
    9.8063   11.5238   21.5678 O   0  0  0  0  0  0  0  0  0  0  0  0
    7.9556   12.2011   25.7843 S   0  0  0  0  0  0  0  0  0  0  0  0
   11.9812    7.7917   22.5145 H   0  0  0  0  0  0  0  0  0  0  0  0
    9.7535   13.0821   24.3580 H   0  0  0  0  0  0  0  0  0  0  0  0
    6.0517    9.1282   25.5864 H   0  0  0  0  0  0  0  0  0  0  0  0
    5.9564   10.4588   26.7087 H   0  0  0  0  0  0  0  0  0  0  0  0
  1  2  3  0  0  0  0
  2  6  1  0  0  0  0
  3  4  2  0  0  0  0
  3 10  1  0  0  0  0
  4  6  1  0  0  0  0
  4  7  1  0  0  0  0
  5  7  2  0  0  0  0
  5  8  1  0  0  0  0
  5 10  1  0  0  0  0
  6  9  2  0  0  0  0
  1 11  1  0  0  0  0
  3 12  1  0  0  0  0
  8 13  1  0  0  0  0
  8 14  1  0  0  0  0
M  END
> <id>
EN300-796510

> <smiles>
NC1=NC(=CS1)C(=O)C#C

> <MDLNUMBER>
MFCD31468097

> <IUPAC Name>
1-(2-amino-1,3-thiazol-4-yl)prop-2-yn-1-one

> <CAS>
2137717-21-4

> <URL>
https://www.enaminestore.com/catalog/EN300-796510

> <ROCS_ShapeQuery>
_x1140_x0812_0A_x1140_0A_x1097_0A_x0365_0A_x1097_0A_x0310_0A

> <ROCS_TanimotoCombo>
0.638 

> <ROCS_ShapeTanimoto>
0.184 

> <ROCS_ColorTanimoto>
0.453 

> <ROCS_RefTversky>
0.170 

> <ROCS_RefColorTversky>
0.553 

> <ROCS_RefTverskyCombo>
0.723 

> <ROCS_FitTversky>
1.855 

> <ROCS_FitColorTversky>
0.716 

> <ROCS_FitTverskyCombo>
2.570 

> <ROCS_ColorScore>
-4.370

> <ROCS_Overlap>
1739.488

> <ROCS_Rank>
91                  

$$$$
untitled-dbase-145452_8
  -OEChem-02092423213D

 22 22  0     0  0  0  0  0  0999 V2000
    8.3062   12.0695   25.5320 C   0  0  0  0  0  0  0  0  0  0  0  0
    9.0862   12.5226   24.4739 C   0  0  0  0  0  0  0  0  0  0  0  0
    7.8332   10.7682   25.4783 C   0  0  0  0  0  0  0  0  0  0  0  0
    9.3655   11.6727   23.4095 C   0  0  0  0  0  0  0  0  0  0  0  0
    8.8453   10.3891   23.4510 C   0  0  0  0  0  0  0  0  0  0  0  0
   11.4283    9.2096   23.6742 C   0  0  0  0  0  0  0  0  0  0  0  0
   11.4774    7.9353   21.5031 C   0  0  0  0  0  0  0  0  0  0  0  0
   10.9766    9.1839   22.2189 C   0  0  0  0  0  0  0  0  0  0  0  0
    8.0836    9.9133   24.4614 N   0  0  0  0  0  0  0  0  0  0  0  0
   10.1284   12.1235   22.3796 O   0  0  0  0  0  0  0  0  0  0  0  0
    9.1552    9.2506   22.1385 S   0  0  0  0  0  0  0  0  0  0  0  0
    8.0758   12.7142   26.3722 H   0  0  0  0  0  0  0  0  0  0  0  0
    9.4727   13.5379   24.4857 H   0  0  0  0  0  0  0  0  0  0  0  0
    7.2206   10.3666   26.2787 H   0  0  0  0  0  0  0  0  0  0  0  0
   11.0514    8.3284   24.2053 H   0  0  0  0  0  0  0  0  0  0  0  0
   12.5211    9.1947   23.7529 H   0  0  0  0  0  0  0  0  0  0  0  0
   11.0570   10.0955   24.2020 H   0  0  0  0  0  0  0  0  0  0  0  0
   11.1013    7.0344   22.0008 H   0  0  0  0  0  0  0  0  0  0  0  0
   12.5717    7.8809   21.5144 H   0  0  0  0  0  0  0  0  0  0  0  0
   11.1418    7.8995   20.4604 H   0  0  0  0  0  0  0  0  0  0  0  0
   11.3631   10.0715   21.7067 H   0  0  0  0  0  0  0  0  0  0  0  0
   10.3963   13.0442   22.5342 H   0  0  0  0  0  0  0  0  0  0  0  0
  1  2  2  0  0  0  0
  1  3  1  0  0  0  0
  2  4  1  0  0  0  0
  3  9  2  0  0  0  0
  4  5  2  0  0  0  0
  4 10  1  0  0  0  0
  5  9  1  0  0  0  0
  5 11  1  0  0  0  0
  6  8  1  0  0  0  0
  7  8  1  0  0  0  0
  8 11  1  0  0  0  0
  1 12  1  0  0  0  0
  2 13  1  0  0  0  0
  3 14  1  0  0  0  0
  6 15  1  0  0  0  0
  6 16  1  0  0  0  0
  6 17  1  0  0  0  0
  7 18  1  0  0  0  0
  7 19  1  0  0  0  0
  7 20  1  0  0  0  0
  8 21  1  0  0  0  0
 10 22  1  0  0  0  0
M  END
> <id>
EN300-1600113

> <smiles>
CC(C)SC=1N=CC=CC1O

> <MDLNUMBER>
MFCD28337984

> <IUPAC Name>
2-(propan-2-ylsulfanyl)pyridin-3-ol

> <CAS>
145099-52-1

> <URL>
https://www.enaminestore.com/catalog/EN300-1600113

> <ROCS_ShapeQuery>
_x1140_x0812_0A_x1140_0A_x1097_0A_x0365_0A_x1097_0A_x0310_0A

> <ROCS_TanimotoCombo>
0.638 

> <ROCS_ShapeTanimoto>
0.187 

> <ROCS_ColorTanimoto>
0.450 

> <ROCS_RefTversky>
0.173 

> <ROCS_RefColorTversky>
0.514 

> <ROCS_RefTverskyCombo>
0.687 

> <ROCS_FitTversky>
1.835 

> <ROCS_FitColorTversky>
0.784 

> <ROCS_FitTverskyCombo>
2.619 

> <ROCS_ColorScore>
-4.036

> <ROCS_Overlap>
1769.344

> <ROCS_Rank>
92                  

$$$$
untitled-dbase-434251_4
  -OEChem-02092423213D

 22 22  0     0  0  0  0  0  0999 V2000
    9.2975   12.3907   24.5287 C   0  0  0  0  0  0  0  0  0  0  0  0
    7.9917   10.6705   25.5248 C   0  0  0  0  0  0  0  0  0  0  0  0
    9.3842   11.6163   23.3772 C   0  0  0  0  0  0  0  0  0  0  0  0
    8.5899   11.9160   25.6275 C   0  0  0  0  0  0  0  0  0  0  0  0
    8.7506   10.3841   23.3753 C   0  0  0  0  0  0  0  0  0  0  0  0
   11.2244    8.8568   22.5553 C   0  0  0  0  0  0  0  0  0  0  0  0
    8.8080    9.5061   22.1674 C   0  0  0  0  0  0  0  0  0  0  0  0
    9.8059    8.3526   22.3420 C   0  0  0  0  0  0  0  0  0  0  0  0
    8.0541    9.8895   24.4231 N   0  0  0  0  0  0  0  0  0  0  0  0
   10.0991   12.0864   22.2609 N   0  0  0  0  0  0  0  0  0  0  0  0
    8.4614   12.8423   27.0650 Cl  0  0  0  0  0  0  0  0  0  0  0  0
    9.7810   13.3644   24.5675 H   0  0  0  0  0  0  0  0  0  0  0  0
    7.4266   10.2437   26.3479 H   0  0  0  0  0  0  0  0  0  0  0  0
   11.5488    9.4814   21.7169 H   0  0  0  0  0  0  0  0  0  0  0  0
   11.2964    9.4484   23.4736 H   0  0  0  0  0  0  0  0  0  0  0  0
   11.9177    8.0140   22.6389 H   0  0  0  0  0  0  0  0  0  0  0  0
    7.8107    9.0920   21.9458 H   0  0  0  0  0  0  0  0  0  0  0  0
    9.0864   10.0943   21.2776 H   0  0  0  0  0  0  0  0  0  0  0  0
    9.5130    7.7321   23.1977 H   0  0  0  0  0  0  0  0  0  0  0  0
    9.7848    7.7035   21.4582 H   0  0  0  0  0  0  0  0  0  0  0  0
   10.5043   13.0023   22.2865 H   0  0  0  0  0  0  0  0  0  0  0  0
   10.1144   11.5400   21.4213 H   0  0  0  0  0  0  0  0  0  0  0  0
  1  3  1  0  0  0  0
  1  4  2  0  0  0  0
  2  4  1  0  0  0  0
  2  9  2  0  0  0  0
  3  5  2  0  0  0  0
  3 10  1  0  0  0  0
  4 11  1  0  0  0  0
  5  7  1  0  0  0  0
  5  9  1  0  0  0  0
  6  8  1  0  0  0  0
  7  8  1  0  0  0  0
  1 12  1  0  0  0  0
  2 13  1  0  0  0  0
  6 14  1  0  0  0  0
  6 15  1  0  0  0  0
  6 16  1  0  0  0  0
  7 17  1  0  0  0  0
  7 18  1  0  0  0  0
  8 19  1  0  0  0  0
  8 20  1  0  0  0  0
 10 21  1  0  0  0  0
 10 22  1  0  0  0  0
M  END
> <id>
EN300-1622344

> <smiles>
CCCC=1N=CC(Cl)=CC1N

> <IUPAC Name>
5-chloro-2-propylpyridin-3-amine

> <CAS>
1849235-58-0

> <URL>
https://www.enaminestore.com/catalog/EN300-1622344

> <ROCS_ShapeQuery>
_x1140_x0812_0A_x1140_0A_x1097_0A_x0365_0A_x1097_0A_x0310_0A

> <ROCS_TanimotoCombo>
0.637 

> <ROCS_ShapeTanimoto>
0.182 

> <ROCS_ColorTanimoto>
0.455 

> <ROCS_RefTversky>
0.169 

> <ROCS_RefColorTversky>
0.518 

> <ROCS_RefTverskyCombo>
0.687 

> <ROCS_FitTversky>
1.775 

> <ROCS_FitColorTversky>
0.789 

> <ROCS_FitTverskyCombo>
2.565 

> <ROCS_ColorScore>
-4.066

> <ROCS_Overlap>
1727.691

> <ROCS_Rank>
93                  

$$$$
untitled-dbase-462417_2
  -OEChem-02092423213D

 27 27  0     0  0  0  0  0  0999 V2000
    8.7823   12.5474   24.4520 C   0  0  0  0  0  0  0  0  0  0  0  0
    7.8549   11.9709   25.3127 C   0  0  0  0  0  0  0  0  0  0  0  0
    9.3525   11.7829   23.4402 C   0  0  0  0  0  0  0  0  0  0  0  0
    7.5341   10.6366   25.1211 C   0  0  0  0  0  0  0  0  0  0  0  0
    8.9648   10.4570   23.3325 C   0  0  0  0  0  0  0  0  0  0  0  0
   11.0741    9.2944   24.1258 C   0  0  0  0  0  0  0  0  0  0  0  0
   10.4047    7.4708   22.5335 C   0  0  0  0  0  0  0  0  0  0  0  0
   11.8006    9.3929   21.7181 C   0  0  0  0  0  0  0  0  0  0  0  0
   10.6967    8.9623   22.6829 C   0  0  0  0  0  0  0  0  0  0  0  0
    8.0671    9.8621   24.1497 N   0  0  0  0  0  0  0  0  0  0  0  0
   10.2917   12.3529   22.5627 N   0  0  0  0  0  0  0  0  0  0  0  0
    6.6236   10.0455   25.9573 O   0  0  0  0  0  0  0  0  0  0  0  0
    9.5015    9.6700   22.3513 O   0  0  0  0  0  0  0  0  0  0  0  0
    9.0519   13.5927   24.5772 H   0  0  0  0  0  0  0  0  0  0  0  0
    7.4009   12.5535   26.1067 H   0  0  0  0  0  0  0  0  0  0  0  0
   11.2845   10.3641   24.2372 H   0  0  0  0  0  0  0  0  0  0  0  0
   10.2760    9.0224   24.8243 H   0  0  0  0  0  0  0  0  0  0  0  0
   11.9880    8.7671   24.4223 H   0  0  0  0  0  0  0  0  0  0  0  0
   10.1335    7.2279   21.4997 H   0  0  0  0  0  0  0  0  0  0  0  0
    9.5506    7.1763   23.1540 H   0  0  0  0  0  0  0  0  0  0  0  0
   11.2672    6.8597   22.8183 H   0  0  0  0  0  0  0  0  0  0  0  0
   11.5302    9.1548   20.6830 H   0  0  0  0  0  0  0  0  0  0  0  0
   11.9982   10.4677   21.7851 H   0  0  0  0  0  0  0  0  0  0  0  0
   12.7321    8.8540   21.9262 H   0  0  0  0  0  0  0  0  0  0  0  0
   10.5119   13.3272   22.6425 H   0  0  0  0  0  0  0  0  0  0  0  0
   10.6585   11.8027   21.8097 H   0  0  0  0  0  0  0  0  0  0  0  0
    6.3120   10.6890   26.6089 H   0  0  0  0  0  0  0  0  0  0  0  0
  1  2  2  0  0  0  0
  1  3  1  0  0  0  0
  2  4  1  0  0  0  0
  3  5  2  0  0  0  0
  3 11  1  0  0  0  0
  4 10  2  0  0  0  0
  4 12  1  0  0  0  0
  5 10  1  0  0  0  0
  5 13  1  0  0  0  0
  6  9  1  0  0  0  0
  7  9  1  0  0  0  0
  8  9  1  0  0  0  0
  9 13  1  0  0  0  0
  1 14  1  0  0  0  0
  2 15  1  0  0  0  0
  6 16  1  0  0  0  0
  6 17  1  0  0  0  0
  6 18  1  0  0  0  0
  7 19  1  0  0  0  0
  7 20  1  0  0  0  0
  7 21  1  0  0  0  0
  8 22  1  0  0  0  0
  8 23  1  0  0  0  0
  8 24  1  0  0  0  0
 11 25  1  0  0  0  0
 11 26  1  0  0  0  0
 12 27  1  0  0  0  0
M  END
> <id>
EN300-1294893

> <smiles>
CC(C)(C)OC=1N=C(O)C=CC1N

> <MDLNUMBER>
MFCD11622482

> <IUPAC Name>
5-amino-6-(tert-butoxy)pyridin-2-ol

> <CAS>
1094858-73-7

> <URL>
https://www.enaminestore.com/catalog/EN300-1294893

> <ROCS_ShapeQuery>
_x1140_x0812_0A_x1140_0A_x1097_0A_x0365_0A_x1097_0A_x0310_0A

> <ROCS_TanimotoCombo>
0.637 

> <ROCS_ShapeTanimoto>
0.226 

> <ROCS_ColorTanimoto>
0.411 

> <ROCS_RefTversky>
0.204 

> <ROCS_RefColorTversky>
0.583 

> <ROCS_RefTverskyCombo>
0.787 

> <ROCS_FitTversky>
1.935 

> <ROCS_FitColorTversky>
0.582 

> <ROCS_FitTverskyCombo>
2.517 

> <ROCS_ColorScore>
-4.665

> <ROCS_Overlap>
2089.451

> <ROCS_Rank>
94                  

$$$$
untitled-dbase-90673_0
  -OEChem-02092423213D

 28 28  0     0  0  0  0  0  0999 V2000
   11.1398    8.9622   22.4618 C   0  0  0  0  0  0  0  0  0  0  0  0
   10.3669    9.6682   23.0501 C   0  0  0  0  0  0  0  0  0  0  0  0
    7.5648   10.7104   25.2554 C   0  0  0  0  0  0  0  0  0  0  0  0
    7.6218   12.0995   25.1418 C   0  0  0  0  0  0  0  0  0  0  0  0
    8.4765    9.9158   24.5602 C   0  0  0  0  0  0  0  0  0  0  0  0
    8.5903   12.6940   24.3329 C   0  0  0  0  0  0  0  0  0  0  0  0
    9.4450   10.5103   23.7513 C   0  0  0  0  0  0  0  0  0  0  0  0
    9.5019   11.8994   23.6377 C   0  0  0  0  0  0  0  0  0  0  0  0
   10.6060   13.8962   22.6509 C   0  0  0  0  0  0  0  0  0  0  0  0
   12.5311   17.6982   22.4958 C   0  0  0  0  0  0  0  0  0  0  0  0
   11.7665   14.1796   21.7026 C   0  0  0  0  0  0  0  0  0  0  0  0
   11.9865   15.6638   21.4528 C   0  0  0  0  0  0  0  0  0  0  0  0
   10.4601   12.5242   22.8355 N   0  0  0  0  0  0  0  0  0  0  0  0
    9.9367   14.7979   23.1437 O   0  0  0  0  0  0  0  0  0  0  0  0
   12.3066   16.3071   22.6797 O   0  0  0  0  0  0  0  0  0  0  0  0
   11.8250    8.3360   21.9398 H   0  0  0  0  0  0  0  0  0  0  0  0
    6.8107   10.2477   25.8853 H   0  0  0  0  0  0  0  0  0  0  0  0
    6.9121   12.7181   25.6833 H   0  0  0  0  0  0  0  0  0  0  0  0
    8.4181    8.8345   24.6601 H   0  0  0  0  0  0  0  0  0  0  0  0
    8.6241   13.7776   24.2529 H   0  0  0  0  0  0  0  0  0  0  0  0
   12.7738   18.1590   23.4564 H   0  0  0  0  0  0  0  0  0  0  0  0
   11.6349   18.1602   22.0740 H   0  0  0  0  0  0  0  0  0  0  0  0
   13.3679   17.8352   21.8068 H   0  0  0  0  0  0  0  0  0  0  0  0
   11.5475   13.6818   20.7508 H   0  0  0  0  0  0  0  0  0  0  0  0
   12.6710   13.7327   22.1321 H   0  0  0  0  0  0  0  0  0  0  0  0
   12.8285   15.8058   20.7679 H   0  0  0  0  0  0  0  0  0  0  0  0
   11.0987   16.1399   21.0246 H   0  0  0  0  0  0  0  0  0  0  0  0
   11.1121   11.9201   22.3400 H   0  0  0  0  0  0  0  0  0  0  0  0
  1  2  3  0  0  0  0
  2  7  1  0  0  0  0
  3  4  1  0  0  0  0
  3  5  2  0  0  0  0
  4  6  2  0  0  0  0
  5  7  1  0  0  0  0
  6  8  1  0  0  0  0
  7  8  2  0  0  0  0
  8 13  1  0  0  0  0
  9 11  1  0  0  0  0
  9 13  1  0  0  0  0
  9 14  2  0  0  0  0
 10 15  1  0  0  0  0
 11 12  1  0  0  0  0
 12 15  1  0  0  0  0
  1 16  1  0  0  0  0
  3 17  1  0  0  0  0
  4 18  1  0  0  0  0
  5 19  1  0  0  0  0
  6 20  1  0  0  0  0
 10 21  1  0  0  0  0
 10 22  1  0  0  0  0
 10 23  1  0  0  0  0
 11 24  1  0  0  0  0
 11 25  1  0  0  0  0
 12 26  1  0  0  0  0
 12 27  1  0  0  0  0
 13 28  1  0  0  0  0
M  END
> <id>
EN300-743925

> <smiles>
COCCC(=O)NC=1C=CC=CC1C#C

> <MDLNUMBER>
MFCD31455112

> <IUPAC Name>
N-(2-ethynylphenyl)-3-methoxypropanamide

> <CAS>
2138177-09-8

> <URL>
https://www.enaminestore.com/catalog/EN300-743925

> <ROCS_ShapeQuery>
_x1140_x0812_0A_x1140_0A_x1097_0A_x0365_0A_x1097_0A_x0310_0A

> <ROCS_TanimotoCombo>
0.637 

> <ROCS_ShapeTanimoto>
0.222 

> <ROCS_ColorTanimoto>
0.414 

> <ROCS_RefTversky>
0.202 

> <ROCS_RefColorTversky>
0.485 

> <ROCS_RefTverskyCombo>
0.688 

> <ROCS_FitTversky>
1.804 

> <ROCS_FitColorTversky>
0.739 

> <ROCS_FitTverskyCombo>
2.544 

> <ROCS_ColorScore>
-3.808

> <ROCS_Overlap>
2075.301

> <ROCS_Rank>
95                  

$$$$
untitled-dbase-426765_5
  -OEChem-02092423213D

 28 29  0     1  0  0  0  0  0999 V2000
    9.5946   10.7134   22.2305 C   0  0  0  0  0  0  0  0  0  0  0  0
    8.7551   10.9535   26.4022 C   0  0  0  0  0  0  0  0  0  0  0  0
    9.0860   12.2535   24.1831 C   0  0  0  0  0  0  0  0  0  0  0  0
    8.0794   10.0353   24.0753 C   0  0  0  0  0  0  0  0  0  0  0  0
    8.3005   12.0315   25.4464 C   0  0  1  0  0  0  0  0  0  0  0  0
    7.6782   10.6668   25.3797 C   0  0  2  0  0  0  0  0  0  0  0  0
   11.3183    8.9626   22.4930 C   0  0  0  0  0  0  0  0  0  0  0  0
    9.9248    9.2610   21.9958 C   0  0  0  0  0  0  0  0  0  0  0  0
    7.5642   13.2138   25.9962 C   0  0  0  0  0  0  0  0  0  0  0  0
    8.9720   10.9993   23.4353 N   0  0  0  0  0  0  0  0  0  0  0  0
    6.3129   10.4036   25.8529 N   0  0  0  0  0  0  0  0  0  0  0  0
    9.8733   11.5613   21.3809 O   0  0  0  0  0  0  0  0  0  0  0  0
    8.3172   13.8839   26.8974 F   0  0  0  0  0  0  0  0  0  0  0  0
    7.2294   14.0817   25.0150 F   0  0  0  0  0  0  0  0  0  0  0  0
    6.4234   12.8351   26.6157 F   0  0  0  0  0  0  0  0  0  0  0  0
    9.7363   10.5145   26.2602 H   0  0  0  0  0  0  0  0  0  0  0  0
    8.4687   11.0334   27.4450 H   0  0  0  0  0  0  0  0  0  0  0  0
    8.6633   13.0560   23.5698 H   0  0  0  0  0  0  0  0  0  0  0  0
   10.1391   12.4699   24.3868 H   0  0  0  0  0  0  0  0  0  0  0  0
    8.6076    9.0861   24.2151 H   0  0  0  0  0  0  0  0  0  0  0  0
    7.2266    9.8712   23.4073 H   0  0  0  0  0  0  0  0  0  0  0  0
   12.0460    9.5748   21.9515 H   0  0  0  0  0  0  0  0  0  0  0  0
   11.5764    7.9086   22.3443 H   0  0  0  0  0  0  0  0  0  0  0  0
   11.4152    9.1798   23.5619 H   0  0  0  0  0  0  0  0  0  0  0  0
    9.1810    8.6630   22.5203 H   0  0  0  0  0  0  0  0  0  0  0  0
    9.8415    9.0777   20.9255 H   0  0  0  0  0  0  0  0  0  0  0  0
    5.7188   11.0907   25.4592 H   0  0  0  0  0  0  0  0  0  0  0  0
    6.0584    9.4961   25.5503 H   0  0  0  0  0  0  0  0  0  0  0  0
  1  8  1  0  0  0  0
  1 10  1  0  0  0  0
  1 12  2  0  0  0  0
  2  5  1  0  0  0  0
  2  6  1  0  0  0  0
  3  5  1  0  0  0  0
  3 10  1  0  0  0  0
  4  6  1  0  0  0  0
  4 10  1  0  0  0  0
  5  6  1  0  0  0  0
  5  9  1  6  0  0  0
  6 11  1  6  0  0  0
  7  8  1  0  0  0  0
  9 13  1  0  0  0  0
  9 14  1  0  0  0  0
  9 15  1  0  0  0  0
  2 16  1  0  0  0  0
  2 17  1  0  0  0  0
  3 18  1  0  0  0  0
  3 19  1  0  0  0  0
  4 20  1  0  0  0  0
  4 21  1  0  0  0  0
  7 22  1  0  0  0  0
  7 23  1  0  0  0  0
  7 24  1  0  0  0  0
  8 25  1  0  0  0  0
  8 26  1  0  0  0  0
 11 27  1  0  0  0  0
 11 28  1  0  0  0  0
M  END
> <id>
EN300-1154636

> <smiles>
CCC(=O)N1C[C@@]2(N)C[C@]2(C1)C(F)(F)F |&1:6,9,r|

> <IUPAC Name>
rac-1-[(1R,5R)-1-amino-5-(trifluoromethyl)-3-azabicyclo[3.1.0]hexan-3-yl]propan-1-one

> <CAS>
2138548-49-7

> <URL>
https://www.enaminestore.com/catalog/EN300-1154636

> <ROCS_ShapeQuery>
_x1140_x0812_0A_x1140_0A_x1097_0A_x0365_0A_x1097_0A_x0310_0A

> <ROCS_TanimotoCombo>
0.637 

> <ROCS_ShapeTanimoto>
0.225 

> <ROCS_ColorTanimoto>
0.412 

> <ROCS_RefTversky>
0.205 

> <ROCS_RefColorTversky>
0.577 

> <ROCS_RefTverskyCombo>
0.782 

> <ROCS_FitTversky>
1.783 

> <ROCS_FitColorTversky>
0.590 

> <ROCS_FitTverskyCombo>
2.373 

> <ROCS_ColorScore>
-4.607

> <ROCS_Overlap>
2101.118

> <ROCS_Rank>
96                  

$$$$
untitled-dbase-529896_1
  -OEChem-02092423213D

 22 22  0     0  0  0  0  0  0999 V2000
    8.7682   12.5328   24.6508 C   0  0  0  0  0  0  0  0  0  0  0  0
    7.6639   12.0092   25.3138 C   0  0  0  0  0  0  0  0  0  0  0  0
    9.5688   11.6982   23.8789 C   0  0  0  0  0  0  0  0  0  0  0  0
    9.2250   10.3581   23.8030 C   0  0  0  0  0  0  0  0  0  0  0  0
    7.4052   10.6552   25.1735 C   0  0  0  0  0  0  0  0  0  0  0  0
    5.7977   10.6862   27.0815 C   0  0  0  0  0  0  0  0  0  0  0  0
   10.7534   12.2534   23.1668 C   0  0  0  0  0  0  0  0  0  0  0  0
   10.0489    9.4147   22.9891 C   0  0  0  0  0  0  0  0  0  0  0  0
    8.1600    9.8132   24.4326 N   0  0  0  0  0  0  0  0  0  0  0  0
    6.2760   10.1369   25.8549 N   0  0  0  0  0  0  0  0  0  0  0  0
   10.9324   13.5944   23.3610 F   0  0  0  0  0  0  0  0  0  0  0  0
   11.9365   11.6804   23.5404 F   0  0  0  0  0  0  0  0  0  0  0  0
   10.6798   12.0881   21.8132 F   0  0  0  0  0  0  0  0  0  0  0  0
   11.1117   10.0107   22.3737 F   0  0  0  0  0  0  0  0  0  0  0  0
   10.5843    8.3919   23.7174 F   0  0  0  0  0  0  0  0  0  0  0  0
    9.3320    8.8209   21.9922 F   0  0  0  0  0  0  0  0  0  0  0  0
    8.9971   13.5911   24.7418 H   0  0  0  0  0  0  0  0  0  0  0  0
    7.0334   12.6535   25.9178 H   0  0  0  0  0  0  0  0  0  0  0  0
    6.4323   11.5351   27.3758 H   0  0  0  0  0  0  0  0  0  0  0  0
    4.7617   11.0315   26.9492 H   0  0  0  0  0  0  0  0  0  0  0  0
    5.8300    9.9153   27.8656 H   0  0  0  0  0  0  0  0  0  0  0  0
    5.8193    9.3539   25.4336 H   0  0  0  0  0  0  0  0  0  0  0  0
  1  2  2  0  0  0  0
  1  3  1  0  0  0  0
  2  5  1  0  0  0  0
  3  4  2  0  0  0  0
  3  7  1  0  0  0  0
  4  8  1  0  0  0  0
  4  9  1  0  0  0  0
  5  9  2  0  0  0  0
  5 10  1  0  0  0  0
  6 10  1  0  0  0  0
  7 11  1  0  0  0  0
  7 12  1  0  0  0  0
  7 13  1  0  0  0  0
  8 14  1  0  0  0  0
  8 15  1  0  0  0  0
  8 16  1  0  0  0  0
  1 17  1  0  0  0  0
  2 18  1  0  0  0  0
  6 19  1  0  0  0  0
  6 20  1  0  0  0  0
  6 21  1  0  0  0  0
 10 22  1  0  0  0  0
M  END
> <id>
EN300-362628

> <smiles>
CNC=1C=CC(=C(N1)C(F)(F)F)C(F)(F)F

> <MDLNUMBER>
MFCD30727563

> <IUPAC Name>
N-methyl-5,6-bis(trifluoromethyl)pyridin-2-amine

> <CAS>
2092588-24-2

> <URL>
https://www.enaminestore.com/catalog/EN300-362628

> <ROCS_ShapeQuery>
_x1140_x0812_0A_x1140_0A_x1097_0A_x0365_0A_x1097_0A_x0310_0A

> <ROCS_TanimotoCombo>
0.636 

> <ROCS_ShapeTanimoto>
0.279 

> <ROCS_ColorTanimoto>
0.358 

> <ROCS_RefTversky>
0.244 

> <ROCS_RefColorTversky>
0.374 

> <ROCS_RefTverskyCombo>
0.618 

> <ROCS_FitTversky>
2.014 

> <ROCS_FitColorTversky>
0.891 

> <ROCS_FitTverskyCombo>
2.905 

> <ROCS_ColorScore>
-2.897

> <ROCS_Overlap>
2506.951

> <ROCS_Rank>
97                  

$$$$
untitled-dbase-510728_5
  -OEChem-02092423213D

 27 27  0     0  0  0  0  0  0999 V2000
    7.7379   10.6899   25.4362 C   0  0  0  0  0  0  0  0  0  0  0  0
    8.4085   12.2676   24.0645 C   0  0  0  0  0  0  0  0  0  0  0  0
    7.7392   12.0805   25.2492 C   0  0  0  0  0  0  0  0  0  0  0  0
    9.4596   10.6572   22.4600 C   0  0  0  0  0  0  0  0  0  0  0  0
   11.6474    9.3079   23.6526 C   0  0  0  0  0  0  0  0  0  0  0  0
   10.8935    7.3098   22.3302 C   0  0  0  0  0  0  0  0  0  0  0  0
   11.6314    9.3931   21.1372 C   0  0  0  0  0  0  0  0  0  0  0  0
    7.1558   13.1104   26.1232 C   0  0  0  0  0  0  0  0  0  0  0  0
   10.9426    8.8353   22.3818 C   0  0  0  0  0  0  0  0  0  0  0  0
    8.3562   10.0353   24.4518 N   0  0  0  0  0  0  0  0  0  0  0  0
    8.7661   11.0172   23.6119 N   0  0  0  0  0  0  0  0  0  0  0  0
    9.8499   11.5040   21.6723 O   0  0  0  0  0  0  0  0  0  0  0  0
    9.5932    9.3093   22.4066 O   0  0  0  0  0  0  0  0  0  0  0  0
    6.5431   12.6178   27.2502 F   0  0  0  0  0  0  0  0  0  0  0  0
    8.0613   14.0253   26.6038 F   0  0  0  0  0  0  0  0  0  0  0  0
    6.1912   13.8671   25.5055 F   0  0  0  0  0  0  0  0  0  0  0  0
    7.3119   10.1194   26.2494 H   0  0  0  0  0  0  0  0  0  0  0  0
    8.6548   13.1681   23.5182 H   0  0  0  0  0  0  0  0  0  0  0  0
   11.6847   10.4024   23.6934 H   0  0  0  0  0  0  0  0  0  0  0  0
   11.1426    8.9433   24.5532 H   0  0  0  0  0  0  0  0  0  0  0  0
   12.6872    8.9621   23.6747 H   0  0  0  0  0  0  0  0  0  0  0  0
   10.3887    6.9662   21.4201 H   0  0  0  0  0  0  0  0  0  0  0  0
   10.3179    6.9091   23.1725 H   0  0  0  0  0  0  0  0  0  0  0  0
   11.8967    6.8721   22.3565 H   0  0  0  0  0  0  0  0  0  0  0  0
   11.1261    9.0543   20.2256 H   0  0  0  0  0  0  0  0  0  0  0  0
   11.6432   10.4879   21.1392 H   0  0  0  0  0  0  0  0  0  0  0  0
   12.6647    9.0339   21.0697 H   0  0  0  0  0  0  0  0  0  0  0  0
  1  3  1  0  0  0  0
  1 10  2  0  0  0  0
  2  3  2  0  0  0  0
  2 11  1  0  0  0  0
  3  8  1  0  0  0  0
  4 11  1  0  0  0  0
  4 12  2  0  0  0  0
  4 13  1  0  0  0  0
  5  9  1  0  0  0  0
  6  9  1  0  0  0  0
  7  9  1  0  0  0  0
  8 14  1  0  0  0  0
  8 15  1  0  0  0  0
  8 16  1  0  0  0  0
  9 13  1  0  0  0  0
 10 11  1  0  0  0  0
  1 17  1  0  0  0  0
  2 18  1  0  0  0  0
  5 19  1  0  0  0  0
  5 20  1  0  0  0  0
  5 21  1  0  0  0  0
  6 22  1  0  0  0  0
  6 23  1  0  0  0  0
  6 24  1  0  0  0  0
  7 25  1  0  0  0  0
  7 26  1  0  0  0  0
  7 27  1  0  0  0  0
M  END
> <id>
EN300-22121786

> <smiles>
CC(C)(C)OC(=O)N1C=C(C=N1)C(F)(F)F

> <IUPAC Name>
tert-butyl 4-(trifluoromethyl)-1H-pyrazole-1-carboxylate

> <CAS>
2171036-81-8

> <URL>
https://www.enaminestore.com/catalog/EN300-22121786

> <ROCS_ShapeQuery>
_x1140_x0812_0A_x1140_0A_x1097_0A_x0365_0A_x1097_0A_x0310_0A

> <ROCS_TanimotoCombo>
0.636 

> <ROCS_ShapeTanimoto>
0.223 

> <ROCS_ColorTanimoto>
0.413 

> <ROCS_RefTversky>
0.204 

> <ROCS_RefColorTversky>
0.450 

> <ROCS_RefTverskyCombo>
0.654 

> <ROCS_FitTversky>
1.710 

> <ROCS_FitColorTversky>
0.835 

> <ROCS_FitTverskyCombo>
2.545 

> <ROCS_ColorScore>
-3.508

> <ROCS_Overlap>
2095.428

> <ROCS_Rank>
98                  

$$$$
untitled-dbase-583943_5
  -OEChem-02092423213D

 21 21  0     0  0  0  0  0  0999 V2000
    8.5157   12.5298   24.1318 C   0  0  0  0  0  0  0  0  0  0  0  0
    7.5354   12.0357   24.9853 C   0  0  0  0  0  0  0  0  0  0  0  0
    9.0883   10.2891   23.5770 C   0  0  0  0  0  0  0  0  0  0  0  0
    9.3112   11.6464   23.4107 C   0  0  0  0  0  0  0  0  0  0  0  0
    7.3919   10.6609   25.0810 C   0  0  0  0  0  0  0  0  0  0  0  0
    5.6305   11.7061   27.6493 C   0  0  0  0  0  0  0  0  0  0  0  0
    5.2938   10.9749   26.3945 C   0  0  0  0  0  0  0  0  0  0  0  0
    8.1458    9.7717   24.3965 N   0  0  0  0  0  0  0  0  0  0  0  0
   10.3100   12.1153   22.5418 N   0  0  0  0  0  0  0  0  0  0  0  0
    6.3894   10.1733   25.9561 N   0  0  0  0  0  0  0  0  0  0  0  0
    8.6513   13.6037   24.0357 H   0  0  0  0  0  0  0  0  0  0  0  0
    6.9105   12.7179   25.5523 H   0  0  0  0  0  0  0  0  0  0  0  0
    9.6774    9.5507   23.0413 H   0  0  0  0  0  0  0  0  0  0  0  0
    6.4987   12.3580   27.4727 H   0  0  0  0  0  0  0  0  0  0  0  0
    4.7702   12.3174   27.9594 H   0  0  0  0  0  0  0  0  0  0  0  0
    5.8709   10.9823   28.4421 H   0  0  0  0  0  0  0  0  0  0  0  0
    4.4253   10.3256   26.5793 H   0  0  0  0  0  0  0  0  0  0  0  0
    5.0459   11.7043   25.6094 H   0  0  0  0  0  0  0  0  0  0  0  0
   10.4207   13.1024   22.4035 H   0  0  0  0  0  0  0  0  0  0  0  0
   10.8385   11.4594   21.9975 H   0  0  0  0  0  0  0  0  0  0  0  0
    6.4836    9.2262   26.2610 H   0  0  0  0  0  0  0  0  0  0  0  0
  1  2  2  0  0  0  0
  1  4  1  0  0  0  0
  2  5  1  0  0  0  0
  3  4  2  0  0  0  0
  3  8  1  0  0  0  0
  4  9  1  0  0  0  0
  5  8  2  0  0  0  0
  5 10  1  0  0  0  0
  6  7  1  0  0  0  0
  7 10  1  0  0  0  0
  1 11  1  0  0  0  0
  2 12  1  0  0  0  0
  3 13  1  0  0  0  0
  6 14  1  0  0  0  0
  6 15  1  0  0  0  0
  6 16  1  0  0  0  0
  7 17  1  0  0  0  0
  7 18  1  0  0  0  0
  9 19  1  0  0  0  0
  9 20  1  0  0  0  0
 10 21  1  0  0  0  0
M  END
> <id>
EN300-176774

> <smiles>
CCNC=1C=CC(N)=CN1

> <MDLNUMBER>
MFCD09047874

> <IUPAC Name>
N2-ethylpyridine-2,5-diamine

> <CAS>
52025-39-5

> <Purity>
95

> <URL>
https://www.enaminestore.com/catalog/EN300-176774

> <ROCS_ShapeQuery>
_x1140_x0812_0A_x1140_0A_x1097_0A_x0365_0A_x1097_0A_x0310_0A

> <ROCS_TanimotoCombo>
0.636 

> <ROCS_ShapeTanimoto>
0.201 

> <ROCS_ColorTanimoto>
0.435 

> <ROCS_RefTversky>
0.183 

> <ROCS_RefColorTversky>
0.502 

> <ROCS_RefTverskyCombo>
0.685 

> <ROCS_FitTversky>
1.981 

> <ROCS_FitColorTversky>
0.765 

> <ROCS_FitTverskyCombo>
2.746 

> <ROCS_ColorScore>
-3.942

> <ROCS_Overlap>
1870.273

> <ROCS_Rank>
99                  

$$$$
untitled-dbase-58014_5
  -OEChem-02092423213D

 21 21  0     0  0  0  0  0  0999 V2000
    8.5157   12.5298   24.1318 C   0  0  0  0  0  0  0  0  0  0  0  0
    7.5354   12.0357   24.9853 C   0  0  0  0  0  0  0  0  0  0  0  0
    9.0883   10.2891   23.5770 C   0  0  0  0  0  0  0  0  0  0  0  0
    9.3112   11.6464   23.4107 C   0  0  0  0  0  0  0  0  0  0  0  0
    7.3919   10.6609   25.0810 C   0  0  0  0  0  0  0  0  0  0  0  0
    5.6305   11.7061   27.6493 C   0  0  0  0  0  0  0  0  0  0  0  0
    5.2938   10.9749   26.3945 C   0  0  0  0  0  0  0  0  0  0  0  0
    8.1458    9.7717   24.3965 N   0  0  0  0  0  0  0  0  0  0  0  0
   10.3100   12.1153   22.5418 N   0  0  0  0  0  0  0  0  0  0  0  0
    6.3894   10.1733   25.9561 N   0  0  0  0  0  0  0  0  0  0  0  0
    8.6513   13.6037   24.0357 H   0  0  0  0  0  0  0  0  0  0  0  0
    6.9105   12.7179   25.5523 H   0  0  0  0  0  0  0  0  0  0  0  0
    9.6774    9.5507   23.0413 H   0  0  0  0  0  0  0  0  0  0  0  0
    6.4987   12.3580   27.4727 H   0  0  0  0  0  0  0  0  0  0  0  0
    4.7702   12.3174   27.9594 H   0  0  0  0  0  0  0  0  0  0  0  0
    5.8709   10.9823   28.4421 H   0  0  0  0  0  0  0  0  0  0  0  0
    4.4253   10.3256   26.5793 H   0  0  0  0  0  0  0  0  0  0  0  0
    5.0459   11.7043   25.6094 H   0  0  0  0  0  0  0  0  0  0  0  0
   10.4207   13.1024   22.4035 H   0  0  0  0  0  0  0  0  0  0  0  0
   10.8385   11.4594   21.9975 H   0  0  0  0  0  0  0  0  0  0  0  0
    6.4836    9.2262   26.2610 H   0  0  0  0  0  0  0  0  0  0  0  0
  1  2  2  0  0  0  0
  1  4  1  0  0  0  0
  2  5  1  0  0  0  0
  3  4  2  0  0  0  0
  3  8  1  0  0  0  0
  4  9  1  0  0  0  0
  5  8  2  0  0  0  0
  5 10  1  0  0  0  0
  6  7  1  0  0  0  0
  7 10  1  0  0  0  0
  1 11  1  0  0  0  0
  2 12  1  0  0  0  0
  3 13  1  0  0  0  0
  6 14  1  0  0  0  0
  6 15  1  0  0  0  0
  6 16  1  0  0  0  0
  7 17  1  0  0  0  0
  7 18  1  0  0  0  0
  9 19  1  0  0  0  0
  9 20  1  0  0  0  0
 10 21  1  0  0  0  0
M  END
> <id>
EN300-177538

> <smiles>
Cl.Cl.CCNC=1C=CC(N)=CN1

> <MDLNUMBER>
MFCD26097052

> <IUPAC Name>
N2-ethylpyridine-2,5-diamine dihydrochloride

> <CAS>
1439897-72-9

> <URL>
https://www.enaminestore.com/catalog/EN300-177538

> <Saltdate>
Cl

> <ROCS_ShapeQuery>
_x1140_x0812_0A_x1140_0A_x1097_0A_x0365_0A_x1097_0A_x0310_0A

> <ROCS_TanimotoCombo>
0.636 

> <ROCS_ShapeTanimoto>
0.201 

> <ROCS_ColorTanimoto>
0.435 

> <ROCS_RefTversky>
0.183 

> <ROCS_RefColorTversky>
0.502 

> <ROCS_RefTverskyCombo>
0.685 

> <ROCS_FitTversky>
1.981 

> <ROCS_FitColorTversky>
0.765 

> <ROCS_FitTverskyCombo>
2.746 

> <ROCS_ColorScore>
-3.942

> <ROCS_Overlap>
1870.273

> <ROCS_Rank>
100                 

$$$$
untitled-dbase-94731_2
  -OEChem-02092423213D

 21 21  0     0  0  0  0  0  0999 V2000
    7.9380   12.2097   23.7147 C   0  0  0  0  0  0  0  0  0  0  0  0
    8.9545   11.3951   23.2590 C   0  0  0  0  0  0  0  0  0  0  0  0
    8.9825   10.1217   23.7899 C   0  0  0  0  0  0  0  0  0  0  0  0
    7.1488   10.5568   25.0609 C   0  0  0  0  0  0  0  0  0  0  0  0
    9.9116   11.8862   22.2806 C   0  0  0  0  0  0  0  0  0  0  0  0
    5.1407   10.9468   26.4896 C   0  0  0  0  0  0  0  0  0  0  0  0
    7.0145   11.8216   24.6185 N   0  0  0  0  0  0  0  0  0  0  0  0
    8.0922    9.6676   24.6963 N   0  0  0  0  0  0  0  0  0  0  0  0
   10.0033    9.2371   23.3615 N   0  0  0  0  0  0  0  0  0  0  0  0
   11.0653   12.5029   22.7560 N   0  0  0  0  0  0  0  0  0  0  0  0
    6.1988   10.1154   26.0074 N   0  0  0  0  0  0  0  0  0  0  0  0
    9.7042   11.7772   21.0592 O   0  0  0  0  0  0  0  0  0  0  0  0
    7.8261   13.2300   23.3604 H   0  0  0  0  0  0  0  0  0  0  0  0
    5.2030   11.9351   26.0107 H   0  0  0  0  0  0  0  0  0  0  0  0
    4.1723   10.4836   26.2497 H   0  0  0  0  0  0  0  0  0  0  0  0
    5.2324   11.0614   27.5798 H   0  0  0  0  0  0  0  0  0  0  0  0
   10.6400    9.5418   22.6578 H   0  0  0  0  0  0  0  0  0  0  0  0
   10.0033    8.3010   23.7038 H   0  0  0  0  0  0  0  0  0  0  0  0
   11.2040   12.5912   23.7569 H   0  0  0  0  0  0  0  0  0  0  0  0
   11.7709   12.8663   22.1234 H   0  0  0  0  0  0  0  0  0  0  0  0
    6.2939    9.1752   26.3400 H   0  0  0  0  0  0  0  0  0  0  0  0
  1  2  1  0  0  0  0
  1  7  2  0  0  0  0
  2  3  2  0  0  0  0
  2  5  1  0  0  0  0
  3  8  1  0  0  0  0
  3  9  1  0  0  0  0
  4  7  1  0  0  0  0
  4  8  2  0  0  0  0
  4 11  1  0  0  0  0
  5 10  1  0  0  0  0
  5 12  2  0  0  0  0
  6 11  1  0  0  0  0
  1 13  1  0  0  0  0
  6 14  1  0  0  0  0
  6 15  1  0  0  0  0
  6 16  1  0  0  0  0
  9 17  1  0  0  0  0
  9 18  1  0  0  0  0
 10 19  1  0  0  0  0
 10 20  1  0  0  0  0
 11 21  1  0  0  0  0
M  END
> <id>
EN300-2100945

> <smiles>
CNC=1N=CC(C(=O)N)=C(N)N1

> <MDLNUMBER>
MFCD20671424

> <IUPAC Name>
4-amino-2-(methylamino)pyrimidine-5-carboxamide

> <CAS>
98197-53-6

> <Purity>
95

> <URL>
https://www.enaminestore.com/catalog/EN300-2100945

> <MP>
265-270

> <ROCS_ShapeQuery>
_x1140_x0812_0A_x1140_0A_x1097_0A_x0365_0A_x1097_0A_x0310_0A

> <ROCS_TanimotoCombo>
0.635 

> <ROCS_ShapeTanimoto>
0.225 

> <ROCS_ColorTanimoto>
0.410 

> <ROCS_RefTversky>
0.202 

> <ROCS_RefColorTversky>
0.582 

> <ROCS_RefTverskyCombo>
0.785 

> <ROCS_FitTversky>
1.987 

> <ROCS_FitColorTversky>
0.582 

> <ROCS_FitTverskyCombo>
2.568 

> <ROCS_ColorScore>
-4.660

> <ROCS_Overlap>
2071.701

> <ROCS_Rank>
101                 

$$$$
untitled-dbase-137202_5
  -OEChem-02092423213D

 22 23  0     0  0  0  0  0  0999 V2000
    7.6103   12.1883   25.0069 C   0  0  0  0  0  0  0  0  0  0  0  0
    8.5508   12.6002   24.0693 C   0  0  0  0  0  0  0  0  0  0  0  0
    7.5003   10.8309   25.2619 C   0  0  0  0  0  0  0  0  0  0  0  0
    9.3414   11.6555   23.4246 C   0  0  0  0  0  0  0  0  0  0  0  0
    9.1541   10.3219   23.7506 C   0  0  0  0  0  0  0  0  0  0  0  0
    7.9167    8.0912   22.2010 C   0  0  0  0  0  0  0  0  0  0  0  0
    8.6805    8.6012   21.0141 C   0  0  0  0  0  0  0  0  0  0  0  0
    9.4016    8.3066   22.3005 C   0  0  0  0  0  0  0  0  0  0  0  0
    8.2506    9.8837   24.6558 N   0  0  0  0  0  0  0  0  0  0  0  0
   10.2941   12.0703   22.4754 N   0  0  0  0  0  0  0  0  0  0  0  0
    9.9554    9.3518   23.0974 N   0  0  0  0  0  0  0  0  0  0  0  0
    6.9831   12.9070   25.5218 H   0  0  0  0  0  0  0  0  0  0  0  0
    8.6583   13.6592   23.8499 H   0  0  0  0  0  0  0  0  0  0  0  0
    6.7818   10.4573   25.9842 H   0  0  0  0  0  0  0  0  0  0  0  0
    7.2593    8.7840   22.7118 H   0  0  0  0  0  0  0  0  0  0  0  0
    7.5564    7.0703   22.1689 H   0  0  0  0  0  0  0  0  0  0  0  0
    8.8342    7.9237   20.1833 H   0  0  0  0  0  0  0  0  0  0  0  0
    8.5356    9.6362   20.7298 H   0  0  0  0  0  0  0  0  0  0  0  0
   10.0234    7.4183   22.3194 H   0  0  0  0  0  0  0  0  0  0  0  0
   10.3607   13.0411   22.2386 H   0  0  0  0  0  0  0  0  0  0  0  0
   10.8266   11.3811   21.9811 H   0  0  0  0  0  0  0  0  0  0  0  0
   10.9437    9.4311   23.2217 H   0  0  0  0  0  0  0  0  0  0  0  0
  1  2  2  0  0  0  0
  1  3  1  0  0  0  0
  2  4  1  0  0  0  0
  3  9  2  0  0  0  0
  4  5  2  0  0  0  0
  4 10  1  0  0  0  0
  5  9  1  0  0  0  0
  5 11  1  0  0  0  0
  6  7  1  0  0  0  0
  6  8  1  0  0  0  0
  7  8  1  0  0  0  0
  8 11  1  0  0  0  0
  1 12  1  0  0  0  0
  2 13  1  0  0  0  0
  3 14  1  0  0  0  0
  6 15  1  0  0  0  0
  6 16  1  0  0  0  0
  7 17  1  0  0  0  0
  7 18  1  0  0  0  0
  8 19  1  0  0  0  0
 10 20  1  0  0  0  0
 10 21  1  0  0  0  0
 11 22  1  0  0  0  0
M  END
> <id>
EN300-93662

> <smiles>
NC=1C=CC=NC1NC2CC2

> <MDLNUMBER>
MFCD00174354

> <IUPAC Name>
N2-cyclopropylpyridine-2,3-diamine

> <CAS>
290313-23-4

> <Purity>
95

> <URL>
https://www.enaminestore.com/catalog/EN300-93662

> <ROCS_ShapeQuery>
_x1140_x0812_0A_x1140_0A_x1097_0A_x0365_0A_x1097_0A_x0310_0A

> <ROCS_TanimotoCombo>
0.635 

> <ROCS_ShapeTanimoto>
0.198 

> <ROCS_ColorTanimoto>
0.437 

> <ROCS_RefTversky>
0.181 

> <ROCS_RefColorTversky>
0.504 

> <ROCS_RefTverskyCombo>
0.685 

> <ROCS_FitTversky>
1.862 

> <ROCS_FitColorTversky>
0.768 

> <ROCS_FitTverskyCombo>
2.630 

> <ROCS_ColorScore>
-3.957

> <ROCS_Overlap>
1855.282

> <ROCS_Rank>
102                 

$$$$
untitled-dbase-451137_4
  -OEChem-02092423213D

 21 21  0     0  0  0  0  0  0999 V2000
    8.8874   12.4406   24.2407 C   0  0  0  0  0  0  0  0  0  0  0  0
    9.3952   11.5400   23.3268 C   0  0  0  0  0  0  0  0  0  0  0  0
    9.0130   10.2264   23.5075 C   0  0  0  0  0  0  0  0  0  0  0  0
    7.7690   10.7857   25.3260 C   0  0  0  0  0  0  0  0  0  0  0  0
   11.0210    9.0802   22.5377 C   0  0  0  0  0  0  0  0  0  0  0  0
    9.4982    9.1608   22.5798 C   0  0  0  0  0  0  0  0  0  0  0  0
    6.8655   10.3669   26.4359 C   0  0  0  0  0  0  0  0  0  0  0  0
    8.0686   12.0968   25.2564 N   0  0  0  0  0  0  0  0  0  0  0  0
    8.1983    9.8124   24.5001 N   0  0  0  0  0  0  0  0  0  0  0  0
   10.2421   11.9513   22.2905 N   0  0  0  0  0  0  0  0  0  0  0  0
    5.7387   11.7110   26.8580 Cl  0  0  0  0  0  0  0  0  0  0  0  0
    5.8888    8.9362   25.9327 Cl  0  0  0  0  0  0  0  0  0  0  0  0
    7.6926    9.9017   27.9667 Cl  0  0  0  0  0  0  0  0  0  0  0  0
    9.1273   13.4981   24.1869 H   0  0  0  0  0  0  0  0  0  0  0  0
   11.4580   10.0406   22.2439 H   0  0  0  0  0  0  0  0  0  0  0  0
   11.3478    8.3243   21.8168 H   0  0  0  0  0  0  0  0  0  0  0  0
   11.4281    8.8119   23.5185 H   0  0  0  0  0  0  0  0  0  0  0  0
    9.0923    8.1816   22.8776 H   0  0  0  0  0  0  0  0  0  0  0  0
    9.1172    9.3384   21.5620 H   0  0  0  0  0  0  0  0  0  0  0  0
   10.4516   12.9275   22.1761 H   0  0  0  0  0  0  0  0  0  0  0  0
   10.5594   11.2818   21.6114 H   0  0  0  0  0  0  0  0  0  0  0  0
  1  2  1  0  0  0  0
  1  8  2  0  0  0  0
  2  3  2  0  0  0  0
  2 10  1  0  0  0  0
  3  6  1  0  0  0  0
  3  9  1  0  0  0  0
  4  7  1  0  0  0  0
  4  8  1  0  0  0  0
  4  9  2  0  0  0  0
  5  6  1  0  0  0  0
  7 11  1  0  0  0  0
  7 12  1  0  0  0  0
  7 13  1  0  0  0  0
  1 14  1  0  0  0  0
  5 15  1  0  0  0  0
  5 16  1  0  0  0  0
  5 17  1  0  0  0  0
  6 18  1  0  0  0  0
  6 19  1  0  0  0  0
 10 20  1  0  0  0  0
 10 21  1  0  0  0  0
M  END
> <id>
EN300-790270

> <smiles>
CCC=1N=C(N=CC1N)C(Cl)(Cl)Cl

> <MDLNUMBER>
MFCD31466322

> <IUPAC Name>
4-ethyl-2-(trichloromethyl)pyrimidin-5-amine

> <CAS>
2137715-71-8

> <URL>
https://www.enaminestore.com/catalog/EN300-790270

> <ROCS_ShapeQuery>
_x1140_x0812_0A_x1140_0A_x1097_0A_x0365_0A_x1097_0A_x0310_0A

> <ROCS_TanimotoCombo>
0.635 

> <ROCS_ShapeTanimoto>
0.224 

> <ROCS_ColorTanimoto>
0.411 

> <ROCS_RefTversky>
0.202 

> <ROCS_RefColorTversky>
0.516 

> <ROCS_RefTverskyCombo>
0.718 

> <ROCS_FitTversky>
1.974 

> <ROCS_FitColorTversky>
0.668 

> <ROCS_FitTverskyCombo>
2.642 

> <ROCS_ColorScore>
-4.080

> <ROCS_Overlap>
2066.561

> <ROCS_Rank>
103                 

$$$$
untitled-dbase-518927_0
  -OEChem-02092423213D

 20 20  0     0  0  0  0  0  0999 V2000
    8.9527   12.4294   24.4609 C   0  0  0  0  0  0  0  0  0  0  0  0
    9.3360   11.5487   23.4555 C   0  0  0  0  0  0  0  0  0  0  0  0
    8.1602   11.9760   25.5096 C   0  0  0  0  0  0  0  0  0  0  0  0
    8.9040   10.2352   23.5444 C   0  0  0  0  0  0  0  0  0  0  0  0
    7.7806   10.6434   25.5064 C   0  0  0  0  0  0  0  0  0  0  0  0
   10.1654   12.0209   22.3572 C   0  0  0  0  0  0  0  0  0  0  0  0
   12.2688   13.0064   21.8150 C   0  0  0  0  0  0  0  0  0  0  0  0
    9.2837    9.2424   22.4945 C   0  0  0  0  0  0  0  0  0  0  0  0
    8.1335    9.7582   24.5475 N   0  0  0  0  0  0  0  0  0  0  0  0
    9.8329   11.9881   21.1653 O   0  0  0  0  0  0  0  0  0  0  0  0
   11.3623   12.5089   22.8051 O   0  0  0  0  0  0  0  0  0  0  0  0
    7.6950   13.0813   26.7453 Cl  0  0  0  0  0  0  0  0  0  0  0  0
    6.8015    9.9426   26.7379 Cl  0  0  0  0  0  0  0  0  0  0  0  0
   11.1551    8.7586   22.7061 Br  0  0  0  0  0  0  0  0  0  0  0  0
    9.2739   13.4680   24.4227 H   0  0  0  0  0  0  0  0  0  0  0  0
   13.1799   13.3639   22.3009 H   0  0  0  0  0  0  0  0  0  0  0  0
   11.7944   13.8209   21.2618 H   0  0  0  0  0  0  0  0  0  0  0  0
   12.5200   12.1976   21.1246 H   0  0  0  0  0  0  0  0  0  0  0  0
    9.1654    9.6454   21.4833 H   0  0  0  0  0  0  0  0  0  0  0  0
    8.6998    8.3190   22.5692 H   0  0  0  0  0  0  0  0  0  0  0  0
  1  2  1  0  0  0  0
  1  3  2  0  0  0  0
  2  4  2  0  0  0  0
  2  6  1  0  0  0  0
  3  5  1  0  0  0  0
  3 12  1  0  0  0  0
  4  8  1  0  0  0  0
  4  9  1  0  0  0  0
  5  9  2  0  0  0  0
  5 13  1  0  0  0  0
  6 10  2  0  0  0  0
  6 11  1  0  0  0  0
  7 11  1  0  0  0  0
  8 14  1  0  0  0  0
  1 15  1  0  0  0  0
  7 16  1  0  0  0  0
  7 17  1  0  0  0  0
  7 18  1  0  0  0  0
  8 19  1  0  0  0  0
  8 20  1  0  0  0  0
M  END
> <id>
EN300-8890301

> <smiles>
COC(=O)C=1C=C(Cl)C(Cl)=NC1CBr

> <MDLNUMBER>
MFCD25949091

> <IUPAC Name>
methyl 2-(bromomethyl)-5,6-dichloropyridine-3-carboxylate

> <CAS>
1039037-67-6

> <URL>
https://www.enaminestore.com/catalog/EN300-8890301

> <ROCS_ShapeQuery>
_x1140_x0812_0A_x1140_0A_x1097_0A_x0365_0A_x1097_0A_x0310_0A

> <ROCS_TanimotoCombo>
0.634 

> <ROCS_ShapeTanimoto>
0.230 

> <ROCS_ColorTanimoto>
0.404 

> <ROCS_RefTversky>
0.207 

> <ROCS_RefColorTversky>
0.442 

> <ROCS_RefTverskyCombo>
0.650 

> <ROCS_FitTversky>
1.943 

> <ROCS_FitColorTversky>
0.822 

> <ROCS_FitTverskyCombo>
2.765 

> <ROCS_ColorScore>
-3.451

> <ROCS_Overlap>
2124.356

> <ROCS_Rank>
104                 

$$$$
untitled-dbase-528714_8
  -OEChem-02092423213D

 28 28  0     0  0  0  0  0  0999 V2000
    9.2920   10.6346   24.1091 C   0  0  0  0  0  0  0  0  0  0  0  0
    9.2890   11.9426   24.5464 C   0  0  0  0  0  0  0  0  0  0  0  0
    7.4081   10.6028   25.2315 C   0  0  0  0  0  0  0  0  0  0  0  0
   10.2683   10.3909   21.8037 C   0  0  0  0  0  0  0  0  0  0  0  0
   10.2682   13.0240   24.3185 C   0  0  0  0  0  0  0  0  0  0  0  0
    9.3338    9.1537   19.0686 C   0  0  0  0  0  0  0  0  0  0  0  0
    5.7327    8.7989   25.6374 C   0  0  0  0  0  0  0  0  0  0  0  0
   10.3525    9.9873   23.2565 C   0  0  0  0  0  0  0  0  0  0  0  0
   10.6786    9.5783   19.6191 C   0  0  0  0  0  0  0  0  0  0  0  0
    8.2144    9.8647   24.5013 N   0  0  0  0  0  0  0  0  0  0  0  0
    6.2477   10.1559   25.7808 N   0  0  0  0  0  0  0  0  0  0  0  0
    9.8799   11.4749   21.3899 O   0  0  0  0  0  0  0  0  0  0  0  0
   10.6978    9.3481   21.0316 O   0  0  0  0  0  0  0  0  0  0  0  0
    7.8837   12.2318   25.4861 S   0  0  0  0  0  0  0  0  0  0  0  0
   10.0225   13.5968   23.4096 H   0  0  0  0  0  0  0  0  0  0  0  0
   10.3046   13.7334   25.1626 H   0  0  0  0  0  0  0  0  0  0  0  0
   11.2942   12.6348   24.2028 H   0  0  0  0  0  0  0  0  0  0  0  0
    9.1555    8.0904   19.2513 H   0  0  0  0  0  0  0  0  0  0  0  0
    8.5273    9.7321   19.5311 H   0  0  0  0  0  0  0  0  0  0  0  0
    9.2818    9.3405   17.9908 H   0  0  0  0  0  0  0  0  0  0  0  0
    6.4264    8.2058   25.0233 H   0  0  0  0  0  0  0  0  0  0  0  0
    5.6357    8.3367   26.6309 H   0  0  0  0  0  0  0  0  0  0  0  0
    4.7471    8.8305   25.1500 H   0  0  0  0  0  0  0  0  0  0  0  0
   11.3437   10.2591   23.6387 H   0  0  0  0  0  0  0  0  0  0  0  0
   10.2582    8.8969   23.3233 H   0  0  0  0  0  0  0  0  0  0  0  0
   10.8507   10.6426   19.4330 H   0  0  0  0  0  0  0  0  0  0  0  0
   11.4832    8.9989   19.1565 H   0  0  0  0  0  0  0  0  0  0  0  0
    5.6730   10.7975   26.3396 H   0  0  0  0  0  0  0  0  0  0  0  0
  1  2  2  0  0  0  0
  1  8  1  0  0  0  0
  1 10  1  0  0  0  0
  2  5  1  0  0  0  0
  2 14  1  0  0  0  0
  3 10  2  0  0  0  0
  3 11  1  0  0  0  0
  3 14  1  0  0  0  0
  4  8  1  0  0  0  0
  4 12  2  0  0  0  0
  4 13  1  0  0  0  0
  6  9  1  0  0  0  0
  7 11  1  0  0  0  0
  9 13  1  0  0  0  0
  5 15  1  0  0  0  0
  5 16  1  0  0  0  0
  5 17  1  0  0  0  0
  6 18  1  0  0  0  0
  6 19  1  0  0  0  0
  6 20  1  0  0  0  0
  7 21  1  0  0  0  0
  7 22  1  0  0  0  0
  7 23  1  0  0  0  0
  8 24  1  0  0  0  0
  8 25  1  0  0  0  0
  9 26  1  0  0  0  0
  9 27  1  0  0  0  0
 11 28  1  0  0  0  0
M  END
> <id>
EN300-33051273

> <smiles>
CCOC(=O)CC=1N=C(NC)SC1C

> <IUPAC Name>
ethyl 2-[5-methyl-2-(methylamino)-1,3-thiazol-4-yl]acetate

> <CAS>
2021447-50-5

> <URL>
https://www.enaminestore.com/catalog/EN300-33051273

> <ROCS_ShapeQuery>
_x1140_x0812_0A_x1140_0A_x1097_0A_x0365_0A_x1097_0A_x0310_0A

> <ROCS_TanimotoCombo>
0.634 

> <ROCS_ShapeTanimoto>
0.189 

> <ROCS_ColorTanimoto>
0.445 

> <ROCS_RefTversky>
0.176 

> <ROCS_RefColorTversky>
0.474 

> <ROCS_RefTverskyCombo>
0.650 

> <ROCS_FitTversky>
1.657 

> <ROCS_FitColorTversky>
0.880 

> <ROCS_FitTverskyCombo>
2.536 

> <ROCS_ColorScore>
-3.694

> <ROCS_Overlap>
1804.617

> <ROCS_Rank>
105                 

$$$$
untitled-dbase-310633_6
  -OEChem-02092423213D

 30 30  0     0  0  0  0  0  0999 V2000
    8.1024   12.3506   25.3487 C   0  0  0  0  0  0  0  0  0  0  0  0
    7.9694   10.9802   25.4290 C   0  0  0  0  0  0  0  0  0  0  0  0
    9.2046   11.0862   23.6199 C   0  0  0  0  0  0  0  0  0  0  0  0
    9.9716   10.6452   22.4555 C   0  0  0  0  0  0  0  0  0  0  0  0
    9.7477    8.0755   22.6861 C   0  0  0  0  0  0  0  0  0  0  0  0
   11.4856    9.0993   21.1790 C   0  0  0  0  0  0  0  0  0  0  0  0
   11.6818    9.2856   23.6643 C   0  0  0  0  0  0  0  0  0  0  0  0
    4.9347   10.7834   25.9709 C   0  0  0  0  0  0  0  0  0  0  0  0
    7.2204   10.2456   26.4675 C   0  0  0  0  0  0  0  0  0  0  0  0
   10.6909    9.2712   22.4805 C   0  0  0  0  0  0  0  0  0  0  0  0
    8.6004   10.2535   24.4383 N   0  0  0  0  0  0  0  0  0  0  0  0
    5.9521    9.7363   25.9930 N   0  0  0  0  0  0  0  0  0  0  0  0
   10.0535   11.3595   21.4533 O   0  0  0  0  0  0  0  0  0  0  0  0
    9.0558   12.7569   23.9823 S   0  0  0  0  0  0  0  0  0  0  0  0
    7.7018   13.1103   26.0048 H   0  0  0  0  0  0  0  0  0  0  0  0
   10.2850    7.1224   22.6989 H   0  0  0  0  0  0  0  0  0  0  0  0
    9.2196    8.1501   23.6439 H   0  0  0  0  0  0  0  0  0  0  0  0
    8.9921    8.0238   21.8939 H   0  0  0  0  0  0  0  0  0  0  0  0
   12.0126    8.1410   21.1495 H   0  0  0  0  0  0  0  0  0  0  0  0
   12.2347    9.8910   21.0648 H   0  0  0  0  0  0  0  0  0  0  0  0
   10.8266    9.1325   20.3037 H   0  0  0  0  0  0  0  0  0  0  0  0
   12.2235    8.3349   23.7337 H   0  0  0  0  0  0  0  0  0  0  0  0
   12.4205   10.0882   23.5577 H   0  0  0  0  0  0  0  0  0  0  0  0
   11.1678    9.4397   24.6201 H   0  0  0  0  0  0  0  0  0  0  0  0
    5.2657   11.6033   25.3165 H   0  0  0  0  0  0  0  0  0  0  0  0
    3.9900   10.3685   25.5895 H   0  0  0  0  0  0  0  0  0  0  0  0
    4.7815   11.1671   26.9904 H   0  0  0  0  0  0  0  0  0  0  0  0
    7.7890    9.3789   26.8492 H   0  0  0  0  0  0  0  0  0  0  0  0
    6.9987   10.8752   27.3474 H   0  0  0  0  0  0  0  0  0  0  0  0
    5.6331    8.9806   26.6040 H   0  0  0  0  0  0  0  0  0  0  0  0
  1  2  2  0  0  0  0
  1 14  1  0  0  0  0
  2  9  1  0  0  0  0
  2 11  1  0  0  0  0
  3  4  1  0  0  0  0
  3 11  2  0  0  0  0
  3 14  1  0  0  0  0
  4 10  1  0  0  0  0
  4 13  2  0  0  0  0
  5 10  1  0  0  0  0
  6 10  1  0  0  0  0
  7 10  1  0  0  0  0
  8 12  1  0  0  0  0
  9 12  1  0  0  0  0
  1 15  1  0  0  0  0
  5 16  1  0  0  0  0
  5 17  1  0  0  0  0
  5 18  1  0  0  0  0
  6 19  1  0  0  0  0
  6 20  1  0  0  0  0
  6 21  1  0  0  0  0
  7 22  1  0  0  0  0
  7 23  1  0  0  0  0
  7 24  1  0  0  0  0
  8 25  1  0  0  0  0
  8 26  1  0  0  0  0
  8 27  1  0  0  0  0
  9 28  1  0  0  0  0
  9 29  1  0  0  0  0
 12 30  1  0  0  0  0
M  END
> <id>
EN300-1269071

> <smiles>
CNCC1=CSC(=N1)C(=O)C(C)(C)C

> <IUPAC Name>
2,2-dimethyl-1-{4-[(methylamino)methyl]-1,3-thiazol-2-yl}propan-1-one

> <CAS>
2169418-59-9

> <URL>
https://www.enaminestore.com/catalog/EN300-1269071

> <ROCS_ShapeQuery>
_x1140_x0812_0A_x1140_0A_x1097_0A_x0365_0A_x1097_0A_x0310_0A

> <ROCS_TanimotoCombo>
0.634 

> <ROCS_ShapeTanimoto>
0.204 

> <ROCS_ColorTanimoto>
0.430 

> <ROCS_RefTversky>
0.188 

> <ROCS_RefColorTversky>
0.533 

> <ROCS_RefTverskyCombo>
0.720 

> <ROCS_FitTversky>
1.768 

> <ROCS_FitColorTversky>
0.690 

> <ROCS_FitTverskyCombo>
2.458 

> <ROCS_ColorScore>
-4.208

> <ROCS_Overlap>
1923.057

> <ROCS_Rank>
106                 

$$$$
untitled-dbase-433055_3
  -OEChem-02092423213D

 22 22  0     0  0  0  0  0  0999 V2000
    8.5943   11.9151   25.6299 C   0  0  0  0  0  0  0  0  0  0  0  0
    9.3016   12.3894   24.5308 C   0  0  0  0  0  0  0  0  0  0  0  0
    7.9949   10.6701   25.5272 C   0  0  0  0  0  0  0  0  0  0  0  0
    9.3867   11.6153   23.3789 C   0  0  0  0  0  0  0  0  0  0  0  0
    8.7520   10.3836   23.3771 C   0  0  0  0  0  0  0  0  0  0  0  0
   11.2238    8.8545   22.5548 C   0  0  0  0  0  0  0  0  0  0  0  0
    8.8078    9.5062   22.1688 C   0  0  0  0  0  0  0  0  0  0  0  0
    9.8047    8.3517   22.3422 C   0  0  0  0  0  0  0  0  0  0  0  0
    8.0557    9.8894   24.4252 N   0  0  0  0  0  0  0  0  0  0  0  0
   10.0997   12.0862   22.2620 N   0  0  0  0  0  0  0  0  0  0  0  0
    8.5146   12.5013   26.5382 H   0  0  0  0  0  0  0  0  0  0  0  0
    9.7820   13.3629   24.5830 H   0  0  0  0  0  0  0  0  0  0  0  0
    7.4316   10.2550   26.3565 H   0  0  0  0  0  0  0  0  0  0  0  0
   11.5483    9.4791   21.7164 H   0  0  0  0  0  0  0  0  0  0  0  0
   11.2971    9.4455   23.4732 H   0  0  0  0  0  0  0  0  0  0  0  0
   11.9164    8.0110   22.6375 H   0  0  0  0  0  0  0  0  0  0  0  0
    7.8099    9.0931   21.9477 H   0  0  0  0  0  0  0  0  0  0  0  0
    9.0861   10.0944   21.2790 H   0  0  0  0  0  0  0  0  0  0  0  0
    9.5119    7.7311   23.1979 H   0  0  0  0  0  0  0  0  0  0  0  0
    9.7824    7.7030   21.4581 H   0  0  0  0  0  0  0  0  0  0  0  0
   10.5046   13.0023   22.2872 H   0  0  0  0  0  0  0  0  0  0  0  0
   10.1142   11.5402   21.4219 H   0  0  0  0  0  0  0  0  0  0  0  0
  1  2  2  0  0  0  0
  1  3  1  0  0  0  0
  2  4  1  0  0  0  0
  3  9  2  0  0  0  0
  4  5  2  0  0  0  0
  4 10  1  0  0  0  0
  5  7  1  0  0  0  0
  5  9  1  0  0  0  0
  6  8  1  0  0  0  0
  7  8  1  0  0  0  0
  1 11  1  0  0  0  0
  2 12  1  0  0  0  0
  3 13  1  0  0  0  0
  6 14  1  0  0  0  0
  6 15  1  0  0  0  0
  6 16  1  0  0  0  0
  7 17  1  0  0  0  0
  7 18  1  0  0  0  0
  8 19  1  0  0  0  0
  8 20  1  0  0  0  0
 10 21  1  0  0  0  0
 10 22  1  0  0  0  0
M  END
> <id>
EN300-1616514

> <smiles>
CCCC=1N=CC=CC1N

> <MDLNUMBER>
MFCD18818847

> <IUPAC Name>
2-propylpyridin-3-amine

> <CAS>
188670-06-6

> <URL>
https://www.enaminestore.com/catalog/EN300-1616514

> <ROCS_ShapeQuery>
_x1140_x0812_0A_x1140_0A_x1097_0A_x0365_0A_x1097_0A_x0310_0A

> <ROCS_TanimotoCombo>
0.633 

> <ROCS_ShapeTanimoto>
0.178 

> <ROCS_ColorTanimoto>
0.455 

> <ROCS_RefTversky>
0.165 

> <ROCS_RefColorTversky>
0.518 

> <ROCS_RefTverskyCombo>
0.683 

> <ROCS_FitTversky>
1.803 

> <ROCS_FitColorTversky>
0.789 

> <ROCS_FitTverskyCombo>
2.592 

> <ROCS_ColorScore>
-4.065

> <ROCS_Overlap>
1693.374

> <ROCS_Rank>
107                 

$$$$
untitled-dbase-343766_2
  -OEChem-02092423213D

 29 30  0     0  0  0  0  0  0999 V2000
    8.4803   12.4106   24.1858 C   0  0  0  0  0  0  0  0  0  0  0  0
    9.2262   11.4827   23.4742 C   0  0  0  0  0  0  0  0  0  0  0  0
    7.4838   11.9793   25.0669 C   0  0  0  0  0  0  0  0  0  0  0  0
    8.9478   10.1456   23.6779 C   0  0  0  0  0  0  0  0  0  0  0  0
    7.2784   10.6003   25.2302 C   0  0  0  0  0  0  0  0  0  0  0  0
   10.2582   11.9334   22.5530 C   0  0  0  0  0  0  0  0  0  0  0  0
    6.6847   12.9843   25.8551 C   0  0  0  0  0  0  0  0  0  0  0  0
    5.3800   12.3769   26.3688 C   0  0  0  0  0  0  0  0  0  0  0  0
    5.6536   11.0357   27.0380 C   0  0  0  0  0  0  0  0  0  0  0  0
    9.7067    9.0933   22.9366 C   0  0  0  0  0  0  0  0  0  0  0  0
   12.2931   13.1674   22.3912 C   0  0  0  0  0  0  0  0  0  0  0  0
    8.0013    9.6894   24.5294 N   0  0  0  0  0  0  0  0  0  0  0  0
    6.3066   10.1367   26.1084 N   0  0  0  0  0  0  0  0  0  0  0  0
   10.2683   11.6888   21.3396 O   0  0  0  0  0  0  0  0  0  0  0  0
   11.2198   12.6650   23.1945 O   0  0  0  0  0  0  0  0  0  0  0  0
    8.6700   13.4744   24.0630 H   0  0  0  0  0  0  0  0  0  0  0  0
    7.2684   13.3479   26.7088 H   0  0  0  0  0  0  0  0  0  0  0  0
    6.4665   13.8418   25.2068 H   0  0  0  0  0  0  0  0  0  0  0  0
    4.9049   13.0572   27.0875 H   0  0  0  0  0  0  0  0  0  0  0  0
    4.6775   12.2489   25.5378 H   0  0  0  0  0  0  0  0  0  0  0  0
    6.2936   11.1779   27.9151 H   0  0  0  0  0  0  0  0  0  0  0  0
    4.7164   10.5854   27.3859 H   0  0  0  0  0  0  0  0  0  0  0  0
   10.5960    8.7964   23.5041 H   0  0  0  0  0  0  0  0  0  0  0  0
    9.0870    8.2046   22.7663 H   0  0  0  0  0  0  0  0  0  0  0  0
   10.0247    9.4551   21.9512 H   0  0  0  0  0  0  0  0  0  0  0  0
   12.9875   13.7299   23.0202 H   0  0  0  0  0  0  0  0  0  0  0  0
   11.8908   13.8129   21.6064 H   0  0  0  0  0  0  0  0  0  0  0  0
   12.8191   12.3259   21.9341 H   0  0  0  0  0  0  0  0  0  0  0  0
    5.9362    9.2055   25.9639 H   0  0  0  0  0  0  0  0  0  0  0  0
  1  2  1  0  0  0  0
  1  3  2  0  0  0  0
  2  4  2  0  0  0  0
  2  6  1  0  0  0  0
  3  5  1  0  0  0  0
  3  7  1  0  0  0  0
  4 10  1  0  0  0  0
  4 12  1  0  0  0  0
  5 12  2  0  0  0  0
  5 13  1  0  0  0  0
  6 14  2  0  0  0  0
  6 15  1  0  0  0  0
  7  8  1  0  0  0  0
  8  9  1  0  0  0  0
  9 13  1  0  0  0  0
 11 15  1  0  0  0  0
  1 16  1  0  0  0  0
  7 17  1  0  0  0  0
  7 18  1  0  0  0  0
  8 19  1  0  0  0  0
  8 20  1  0  0  0  0
  9 21  1  0  0  0  0
  9 22  1  0  0  0  0
 10 23  1  0  0  0  0
 10 24  1  0  0  0  0
 10 25  1  0  0  0  0
 11 26  1  0  0  0  0
 11 27  1  0  0  0  0
 11 28  1  0  0  0  0
 13 29  1  0  0  0  0
M  END
> <id>
EN300-7445199

> <smiles>
COC(=O)C=1C=C2CCCNC2=NC1C

> <MDLNUMBER>
MFCD32648352

> <IUPAC Name>
methyl 2-methyl-5,6,7,8-tetrahydro-1,8-naphthyridine-3-carboxylate

> <CAS>
2411288-03-2

> <Purity>
95

> <URL>
https://www.enaminestore.com/catalog/EN300-7445199

> <ROCS_ShapeQuery>
_x1140_x0812_0A_x1140_0A_x1097_0A_x0365_0A_x1097_0A_x0310_0A

> <ROCS_TanimotoCombo>
0.633 

> <ROCS_ShapeTanimoto>
0.274 

> <ROCS_ColorTanimoto>
0.360 

> <ROCS_RefTversky>
0.239 

> <ROCS_RefColorTversky>
0.438 

> <ROCS_RefTverskyCombo>
0.678 

> <ROCS_FitTversky>
2.087 

> <ROCS_FitColorTversky>
0.667 

> <ROCS_FitTverskyCombo>
2.755 

> <ROCS_ColorScore>
-3.441

> <ROCS_Overlap>
2455.685

> <ROCS_Rank>
108                 

$$$$
untitled-dbase-134841_8
  -OEChem-02092423213D

 26 26  0     0  0  0  0  0  0999 V2000
    8.0912   12.3486   25.3589 C   0  0  0  0  0  0  0  0  0  0  0  0
    7.9629   10.9780   25.4430 C   0  0  0  0  0  0  0  0  0  0  0  0
    9.1950   11.0833   23.6317 C   0  0  0  0  0  0  0  0  0  0  0  0
    9.9617   10.6419   22.4672 C   0  0  0  0  0  0  0  0  0  0  0  0
    9.9941    8.2160   23.3730 C   0  0  0  0  0  0  0  0  0  0  0  0
   10.8266    8.7508   21.0576 C   0  0  0  0  0  0  0  0  0  0  0  0
   12.0974    9.5004   23.0758 C   0  0  0  0  0  0  0  0  0  0  0  0
    7.2181   10.2436   26.4846 C   0  0  0  0  0  0  0  0  0  0  0  0
   10.6856    9.2704   22.4947 C   0  0  0  0  0  0  0  0  0  0  0  0
    8.5949   10.2508   24.4532 N   0  0  0  0  0  0  0  0  0  0  0  0
   10.0396   11.3538   21.4630 O   0  0  0  0  0  0  0  0  0  0  0  0
    5.9859    9.7580   25.9522 O   0  0  0  0  0  0  0  0  0  0  0  0
    9.0411   12.7545   23.9899 S   0  0  0  0  0  0  0  0  0  0  0  0
    7.6890   13.1087   26.0135 H   0  0  0  0  0  0  0  0  0  0  0  0
   10.5286    7.2612   23.3711 H   0  0  0  0  0  0  0  0  0  0  0  0
    9.9437    8.5445   24.4177 H   0  0  0  0  0  0  0  0  0  0  0  0
    8.9688    8.0269   23.0350 H   0  0  0  0  0  0  0  0  0  0  0  0
   11.3334    7.7817   21.0250 H   0  0  0  0  0  0  0  0  0  0  0  0
   11.4057    9.4465   20.4399 H   0  0  0  0  0  0  0  0  0  0  0  0
    9.8465    8.6187   20.5850 H   0  0  0  0  0  0  0  0  0  0  0  0
   12.6608    8.5609   23.1205 H   0  0  0  0  0  0  0  0  0  0  0  0
   12.6700   10.2091   22.4667 H   0  0  0  0  0  0  0  0  0  0  0  0
   12.0547    9.9048   24.0938 H   0  0  0  0  0  0  0  0  0  0  0  0
    7.7860    9.3789   26.8708 H   0  0  0  0  0  0  0  0  0  0  0  0
    6.9867   10.8835   27.3542 H   0  0  0  0  0  0  0  0  0  0  0  0
    5.5420    9.2877   26.6740 H   0  0  0  0  0  0  0  0  0  0  0  0
  1  2  2  0  0  0  0
  1 13  1  0  0  0  0
  2  8  1  0  0  0  0
  2 10  1  0  0  0  0
  3  4  1  0  0  0  0
  3 10  2  0  0  0  0
  3 13  1  0  0  0  0
  4  9  1  0  0  0  0
  4 11  2  0  0  0  0
  5  9  1  0  0  0  0
  6  9  1  0  0  0  0
  7  9  1  0  0  0  0
  8 12  1  0  0  0  0
  1 14  1  0  0  0  0
  5 15  1  0  0  0  0
  5 16  1  0  0  0  0
  5 17  1  0  0  0  0
  6 18  1  0  0  0  0
  6 19  1  0  0  0  0
  6 20  1  0  0  0  0
  7 21  1  0  0  0  0
  7 22  1  0  0  0  0
  7 23  1  0  0  0  0
  8 24  1  0  0  0  0
  8 25  1  0  0  0  0
 12 26  1  0  0  0  0
M  END
> <id>
EN300-1269151

> <smiles>
CC(C)(C)C(=O)C1=NC(CO)=CS1

> <IUPAC Name>
1-[4-(hydroxymethyl)-1,3-thiazol-2-yl]-2,2-dimethylpropan-1-one

> <CAS>
2167659-11-0

> <URL>
https://www.enaminestore.com/catalog/EN300-1269151

> <ROCS_ShapeQuery>
_x1140_x0812_0A_x1140_0A_x1097_0A_x0365_0A_x1097_0A_x0310_0A

> <ROCS_TanimotoCombo>
0.633 

> <ROCS_ShapeTanimoto>
0.197 

> <ROCS_ColorTanimoto>
0.436 

> <ROCS_RefTversky>
0.181 

> <ROCS_RefColorTversky>
0.538 

> <ROCS_RefTverskyCombo>
0.720 

> <ROCS_FitTversky>
1.770 

> <ROCS_FitColorTversky>
0.697 

> <ROCS_FitTverskyCombo>
2.467 

> <ROCS_ColorScore>
-4.252

> <ROCS_Overlap>
1859.543

> <ROCS_Rank>
109                 

$$$$
untitled-dbase-165768_2
  -OEChem-02092423213D

 28 28  0     0  0  0  0  0  0999 V2000
    7.6965   11.4596   25.9645 C   0  0  0  0  0  0  0  0  0  0  0  0
    8.6087   12.4058   25.5107 C   0  0  0  0  0  0  0  0  0  0  0  0
    7.5792   10.2776   25.2512 C   0  0  0  0  0  0  0  0  0  0  0  0
    9.3650   12.1448   24.3735 C   0  0  0  0  0  0  0  0  0  0  0  0
    9.1732   10.9319   23.7316 C   0  0  0  0  0  0  0  0  0  0  0  0
    9.9293   10.5835   22.5293 C   0  0  0  0  0  0  0  0  0  0  0  0
   10.3441   13.1554   23.8839 C   0  0  0  0  0  0  0  0  0  0  0  0
   10.0899    8.0129   22.7991 C   0  0  0  0  0  0  0  0  0  0  0  0
   11.5758    9.2462   21.1832 C   0  0  0  0  0  0  0  0  0  0  0  0
   11.8818    9.5046   23.6509 C   0  0  0  0  0  0  0  0  0  0  0  0
   10.8386    9.3270   22.5268 C   0  0  0  0  0  0  0  0  0  0  0  0
    8.2966    9.9883   24.1425 N   0  0  0  0  0  0  0  0  0  0  0  0
    9.8515   11.2834   21.5166 O   0  0  0  0  0  0  0  0  0  0  0  0
    7.0960   11.6415   26.8485 H   0  0  0  0  0  0  0  0  0  0  0  0
    8.7223   13.3431   26.0485 H   0  0  0  0  0  0  0  0  0  0  0  0
    6.8828    9.5069   25.5649 H   0  0  0  0  0  0  0  0  0  0  0  0
   11.3275   12.9900   24.3420 H   0  0  0  0  0  0  0  0  0  0  0  0
   10.4574   13.1065   22.7926 H   0  0  0  0  0  0  0  0  0  0  0  0
   10.0178   14.1767   24.1226 H   0  0  0  0  0  0  0  0  0  0  0  0
   10.7583    7.1466   22.7906 H   0  0  0  0  0  0  0  0  0  0  0  0
    9.6109    8.0290   23.7851 H   0  0  0  0  0  0  0  0  0  0  0  0
    9.3065    7.8392   22.0526 H   0  0  0  0  0  0  0  0  0  0  0  0
   12.2325    8.3725   21.1332 H   0  0  0  0  0  0  0  0  0  0  0  0
   12.1959   10.1344   21.0176 H   0  0  0  0  0  0  0  0  0  0  0  0
   10.8709    9.1687   20.3474 H   0  0  0  0  0  0  0  0  0  0  0  0
   12.5574    8.6424   23.6987 H   0  0  0  0  0  0  0  0  0  0  0  0
   12.4905   10.4023   23.4934 H   0  0  0  0  0  0  0  0  0  0  0  0
   11.4052    9.6014   24.6333 H   0  0  0  0  0  0  0  0  0  0  0  0
  1  2  2  0  0  0  0
  1  3  1  0  0  0  0
  2  4  1  0  0  0  0
  3 12  2  0  0  0  0
  4  5  2  0  0  0  0
  4  7  1  0  0  0  0
  5  6  1  0  0  0  0
  5 12  1  0  0  0  0
  6 11  1  0  0  0  0
  6 13  2  0  0  0  0
  8 11  1  0  0  0  0
  9 11  1  0  0  0  0
 10 11  1  0  0  0  0
  1 14  1  0  0  0  0
  2 15  1  0  0  0  0
  3 16  1  0  0  0  0
  7 17  1  0  0  0  0
  7 18  1  0  0  0  0
  7 19  1  0  0  0  0
  8 20  1  0  0  0  0
  8 21  1  0  0  0  0
  8 22  1  0  0  0  0
  9 23  1  0  0  0  0
  9 24  1  0  0  0  0
  9 25  1  0  0  0  0
 10 26  1  0  0  0  0
 10 27  1  0  0  0  0
 10 28  1  0  0  0  0
M  END
> <id>
EN300-716159

> <smiles>
CC=1C=CC=NC1C(=O)C(C)(C)C

> <MDLNUMBER>
MFCD16748766

> <IUPAC Name>
2,2-dimethyl-1-(3-methylpyridin-2-yl)propan-1-one

> <CAS>
1248707-89-2

> <Purity>
95

> <URL>
https://www.enaminestore.com/catalog/EN300-716159

> <ROCS_ShapeQuery>
_x1140_x0812_0A_x1140_0A_x1097_0A_x0365_0A_x1097_0A_x0310_0A

> <ROCS_TanimotoCombo>
0.632 

> <ROCS_ShapeTanimoto>
0.204 

> <ROCS_ColorTanimoto>
0.428 

> <ROCS_RefTversky>
0.187 

> <ROCS_RefColorTversky>
0.461 

> <ROCS_RefTverskyCombo>
0.648 

> <ROCS_FitTversky>
1.795 

> <ROCS_FitColorTversky>
0.856 

> <ROCS_FitTverskyCombo>
2.651 

> <ROCS_ColorScore>
-3.596

> <ROCS_Overlap>
1920.487

> <ROCS_Rank>
110                 

$$$$
untitled-dbase-578088_4
  -OEChem-02092423213D

 23 23  0     0  0  0  0  0  0999 V2000
   10.8382   12.1431   22.9270 B   0  0  0  0  0  0  0  0  0  0  0  0
    9.0613   12.3484   24.7283 C   0  0  0  0  0  0  0  0  0  0  0  0
    7.9846   11.8756   25.4704 C   0  0  0  0  0  0  0  0  0  0  0  0
    9.6176   11.5503   23.7349 C   0  0  0  0  0  0  0  0  0  0  0  0
    9.0651   10.2972   23.5244 C   0  0  0  0  0  0  0  0  0  0  0  0
    7.5051   10.6081   25.1821 C   0  0  0  0  0  0  0  0  0  0  0  0
   11.0750    9.0542   22.6867 C   0  0  0  0  0  0  0  0  0  0  0  0
    9.5983    9.3701   22.4773 C   0  0  0  0  0  0  0  0  0  0  0  0
    8.0194    9.8038   24.2249 N   0  0  0  0  0  0  0  0  0  0  0  0
    6.4075   10.1405   25.9467 N   0  0  0  0  0  0  0  0  0  0  0  0
   12.0014   12.5054   23.5609 O   0  0  0  0  0  0  0  0  0  0  0  0
   10.7255   12.2990   21.5660 O   0  0  0  0  0  0  0  0  0  0  0  0
    9.4426   13.3435   24.9499 H   0  0  0  0  0  0  0  0  0  0  0  0
    7.5439   12.4914   26.2477 H   0  0  0  0  0  0  0  0  0  0  0  0
   11.6767    9.9694   22.6959 H   0  0  0  0  0  0  0  0  0  0  0  0
   11.4480    8.4113   21.8832 H   0  0  0  0  0  0  0  0  0  0  0  0
   11.2365    8.5364   23.6382 H   0  0  0  0  0  0  0  0  0  0  0  0
    9.0230    8.4325   22.4731 H   0  0  0  0  0  0  0  0  0  0  0  0
    9.4580    9.8071   21.4776 H   0  0  0  0  0  0  0  0  0  0  0  0
    6.0566   10.7117   26.6843 H   0  0  0  0  0  0  0  0  0  0  0  0
    6.0733    9.2142   25.7919 H   0  0  0  0  0  0  0  0  0  0  0  0
   12.6801   12.8567   22.9616 H   0  0  0  0  0  0  0  0  0  0  0  0
   11.5391   12.6709   21.1858 H   0  0  0  0  0  0  0  0  0  0  0  0
  1  4  1  0  0  0  0
  1 11  1  0  0  0  0
  1 12  1  0  0  0  0
  2  3  2  0  0  0  0
  2  4  1  0  0  0  0
  3  6  1  0  0  0  0
  4  5  2  0  0  0  0
  5  8  1  0  0  0  0
  5  9  1  0  0  0  0
  6  9  2  0  0  0  0
  6 10  1  0  0  0  0
  7  8  1  0  0  0  0
  2 13  1  0  0  0  0
  3 14  1  0  0  0  0
  7 15  1  0  0  0  0
  7 16  1  0  0  0  0
  7 17  1  0  0  0  0
  8 18  1  0  0  0  0
  8 19  1  0  0  0  0
 10 20  1  0  0  0  0
 10 21  1  0  0  0  0
 11 22  1  0  0  0  0
 12 23  1  0  0  0  0
M  END
> <id>
EN300-45273669

> <smiles>
CCC=1N=C(N)C=CC1B(O)O

> <IUPAC Name>
(6-amino-2-ethylpyridin-3-yl)boronic acid

> <URL>
https://www.enaminestore.com/catalog/EN300-45273669

> <ROCS_ShapeQuery>
_x1140_x0812_0A_x1140_0A_x1097_0A_x0365_0A_x1097_0A_x0310_0A

> <ROCS_TanimotoCombo>
0.632 

> <ROCS_ShapeTanimoto>
0.227 

> <ROCS_ColorTanimoto>
0.405 

> <ROCS_RefTversky>
0.203 

> <ROCS_RefColorTversky>
0.478 

> <ROCS_RefTverskyCombo>
0.681 

> <ROCS_FitTversky>
2.033 

> <ROCS_FitColorTversky>
0.728 

> <ROCS_FitTverskyCombo>
2.761 

> <ROCS_ColorScore>
-3.752

> <ROCS_Overlap>
2081.355

> <ROCS_Rank>
111                 

$$$$
untitled-dbase-350066_6
  -OEChem-02092423213D

 39 40  0     0  0  0  0  0  0999 V2000
   12.5281   15.1315   22.6192 C   0  0  0  0  0  0  0  0  0  0  0  0
    3.6306   11.3601   26.3821 C   0  0  0  0  0  0  0  0  0  0  0  0
    3.9254   11.9041   25.1320 C   0  0  0  0  0  0  0  0  0  0  0  0
    4.6347   10.7442   27.1291 C   0  0  0  0  0  0  0  0  0  0  0  0
    5.2244   11.8320   24.6288 C   0  0  0  0  0  0  0  0  0  0  0  0
    5.9337   10.6721   26.6259 C   0  0  0  0  0  0  0  0  0  0  0  0
    9.5032   11.6526   24.0923 C   0  0  0  0  0  0  0  0  0  0  0  0
    6.2285   11.2160   25.3758 C   0  0  0  0  0  0  0  0  0  0  0  0
    9.3096   10.2624   24.2008 C   0  0  0  0  0  0  0  0  0  0  0  0
    8.3243   12.1993   24.5368 C   0  0  0  0  0  0  0  0  0  0  0  0
   10.8781   12.3562   22.0854 C   0  0  0  0  0  0  0  0  0  0  0  0
   10.2590    9.1890   23.8587 C   0  0  0  0  0  0  0  0  0  0  0  0
    7.9026   13.6090   24.6667 C   0  0  0  0  0  0  0  0  0  0  0  0
   12.2570   13.1064   20.1300 C   0  0  0  0  0  0  0  0  0  0  0  0
   12.9375   13.7439   22.4102 C   0  0  0  0  0  0  0  0  0  0  0  0
   10.7288   12.3820   23.5994 C   0  0  0  0  0  0  0  0  0  0  0  0
   12.2058   16.2334   22.7875 N   0  0  0  0  0  0  0  0  0  0  0  0
    8.1026    9.9456   24.6772 N   0  0  0  0  0  0  0  0  0  0  0  0
    7.5273   11.1444   24.8719 N   0  0  0  0  0  0  0  0  0  0  0  0
   11.9809   13.0419   21.5634 N   0  0  0  0  0  0  0  0  0  0  0  0
   10.0595   11.7573   21.3820 O   0  0  0  0  0  0  0  0  0  0  0  0
    2.6198   11.4175   26.7751 H   0  0  0  0  0  0  0  0  0  0  0  0
    3.1441   12.3849   24.5508 H   0  0  0  0  0  0  0  0  0  0  0  0
    4.4046   10.3221   28.1031 H   0  0  0  0  0  0  0  0  0  0  0  0
    5.4409   12.2607   23.6533 H   0  0  0  0  0  0  0  0  0  0  0  0
    6.7070   10.1898   27.2190 H   0  0  0  0  0  0  0  0  0  0  0  0
   10.8882    8.9206   24.7244 H   0  0  0  0  0  0  0  0  0  0  0  0
    9.7458    8.2705   23.5228 H   0  0  0  0  0  0  0  0  0  0  0  0
   10.9338    9.4773   23.0332 H   0  0  0  0  0  0  0  0  0  0  0  0
    7.4175   13.9641   23.7433 H   0  0  0  0  0  0  0  0  0  0  0  0
    7.1905   13.7520   25.4968 H   0  0  0  0  0  0  0  0  0  0  0  0
    8.7550   14.2769   24.8769 H   0  0  0  0  0  0  0  0  0  0  0  0
   11.7561   13.9856   19.6987 H   0  0  0  0  0  0  0  0  0  0  0  0
   13.3422   13.1871   19.9691 H   0  0  0  0  0  0  0  0  0  0  0  0
   11.8809   12.1946   19.6429 H   0  0  0  0  0  0  0  0  0  0  0  0
   13.9141   13.6905   21.9207 H   0  0  0  0  0  0  0  0  0  0  0  0
   12.9976   13.2036   23.3593 H   0  0  0  0  0  0  0  0  0  0  0  0
   11.6179   11.9278   24.0526 H   0  0  0  0  0  0  0  0  0  0  0  0
   10.6791   13.4244   23.9364 H   0  0  0  0  0  0  0  0  0  0  0  0
  1 15  1  0  0  0  0
  1 17  3  0  0  0  0
  2  3  1  0  0  0  0
  2  4  2  0  0  0  0
  3  5  2  0  0  0  0
  4  6  1  0  0  0  0
  5  8  1  0  0  0  0
  6  8  2  0  0  0  0
  7  9  1  0  0  0  0
  7 10  2  0  0  0  0
  7 16  1  0  0  0  0
  8 19  1  0  0  0  0
  9 12  1  0  0  0  0
  9 18  2  0  0  0  0
 10 13  1  0  0  0  0
 10 19  1  0  0  0  0
 11 16  1  0  0  0  0
 11 20  1  0  0  0  0
 11 21  2  0  0  0  0
 14 20  1  0  0  0  0
 15 20  1  0  0  0  0
 18 19  1  0  0  0  0
  2 22  1  0  0  0  0
  3 23  1  0  0  0  0
  4 24  1  0  0  0  0
  5 25  1  0  0  0  0
  6 26  1  0  0  0  0
 12 27  1  0  0  0  0
 12 28  1  0  0  0  0
 12 29  1  0  0  0  0
 13 30  1  0  0  0  0
 13 31  1  0  0  0  0
 13 32  1  0  0  0  0
 14 33  1  0  0  0  0
 14 34  1  0  0  0  0
 14 35  1  0  0  0  0
 15 36  1  0  0  0  0
 15 37  1  0  0  0  0
 16 38  1  0  0  0  0
 16 39  1  0  0  0  0
M  END
> <id>
EN300-26680686

> <smiles>
CN(CC#N)C(=O)CC=1C(C)=NN(C1C)C=2C=CC=CC2

> <IUPAC Name>
N-(cyanomethyl)-2-(3,5-dimethyl-1-phenyl-1H-pyrazol-4-yl)-N-methylacetamide

> <CAS>
1311750-50-1

> <URL>
https://www.enaminestore.com/catalog/EN300-26680686

> <ROCS_ShapeQuery>
_x1140_x0812_0A_x1140_0A_x1097_0A_x0365_0A_x1097_0A_x0310_0A

> <ROCS_TanimotoCombo>
0.632 

> <ROCS_ShapeTanimoto>
0.261 

> <ROCS_ColorTanimoto>
0.371 

> <ROCS_RefTversky>
0.236 

> <ROCS_RefColorTversky>
0.448 

> <ROCS_RefTverskyCombo>
0.684 

> <ROCS_FitTversky>
1.695 

> <ROCS_FitColorTversky>
0.683 

> <ROCS_FitTverskyCombo>
2.378 

> <ROCS_ColorScore>
-3.518

> <ROCS_Overlap>
2419.876

> <ROCS_Rank>
112                 

$$$$
untitled-dbase-348210_9
  -OEChem-02092423213D

 23 23  0     0  0  0  0  0  0999 V2000
   11.8540   15.2381   22.3431 C   0  0  0  0  0  0  0  0  0  0  0  0
    8.4071   12.1163   24.5260 C   0  0  0  0  0  0  0  0  0  0  0  0
    7.8228   11.0714   25.2668 C   0  0  0  0  0  0  0  0  0  0  0  0
    9.0953   11.4816   23.5210 C   0  0  0  0  0  0  0  0  0  0  0  0
    9.8760   12.0576   22.4723 C   0  0  0  0  0  0  0  0  0  0  0  0
   10.5861    8.3705   23.5733 C   0  0  0  0  0  0  0  0  0  0  0  0
   11.3271   14.0032   21.7649 C   0  0  0  0  0  0  0  0  0  0  0  0
    9.4088    9.0646   22.9101 C   0  0  0  0  0  0  0  0  0  0  0  0
   12.2743   16.2188   22.7991 N   0  0  0  0  0  0  0  0  0  0  0  0
    8.1142    9.8646   24.7743 N   0  0  0  0  0  0  0  0  0  0  0  0
    8.8891   10.1471   23.7132 N   0  0  0  0  0  0  0  0  0  0  0  0
   10.5228   13.2859   22.7279 N   0  0  0  0  0  0  0  0  0  0  0  0
    9.9733   11.5062   21.3469 O   0  0  0  0  0  0  0  0  0  0  0  0
    8.3348   13.1801   24.7010 H   0  0  0  0  0  0  0  0  0  0  0  0
    7.1964   11.1389   26.1447 H   0  0  0  0  0  0  0  0  0  0  0  0
   11.4071    9.0718   23.7562 H   0  0  0  0  0  0  0  0  0  0  0  0
   10.9611    7.5654   22.9339 H   0  0  0  0  0  0  0  0  0  0  0  0
   10.2977    7.9359   24.5361 H   0  0  0  0  0  0  0  0  0  0  0  0
   10.6955   14.2126   20.8969 H   0  0  0  0  0  0  0  0  0  0  0  0
   12.1367   13.3387   21.4500 H   0  0  0  0  0  0  0  0  0  0  0  0
    8.5928    8.3552   22.7312 H   0  0  0  0  0  0  0  0  0  0  0  0
    9.7010    9.4762   21.9374 H   0  0  0  0  0  0  0  0  0  0  0  0
   10.3702   13.7329   23.6261 H   0  0  0  0  0  0  0  0  0  0  0  0
  1  7  1  0  0  0  0
  1  9  3  0  0  0  0
  2  3  1  0  0  0  0
  2  4  2  0  0  0  0
  3 10  2  0  0  0  0
  4  5  1  0  0  0  0
  4 11  1  0  0  0  0
  5 12  1  0  0  0  0
  5 13  2  0  0  0  0
  6  8  1  0  0  0  0
  7 12  1  0  0  0  0
  8 11  1  0  0  0  0
 10 11  1  0  0  0  0
  2 14  1  0  0  0  0
  3 15  1  0  0  0  0
  6 16  1  0  0  0  0
  6 17  1  0  0  0  0
  6 18  1  0  0  0  0
  7 19  1  0  0  0  0
  7 20  1  0  0  0  0
  8 21  1  0  0  0  0
  8 22  1  0  0  0  0
 12 23  1  0  0  0  0
M  END
> <id>
EN300-2544894

> <smiles>
CCN1N=CC=C1C(=O)NCC#N

> <IUPAC Name>
N-(cyanomethyl)-1-ethyl-1H-pyrazole-5-carboxamide

> <CAS>
1880711-02-3

> <URL>
https://www.enaminestore.com/catalog/EN300-2544894

> <ROCS_ShapeQuery>
_x1140_x0812_0A_x1140_0A_x1097_0A_x0365_0A_x1097_0A_x0310_0A

> <ROCS_TanimotoCombo>
0.632 

> <ROCS_ShapeTanimoto>
0.213 

> <ROCS_ColorTanimoto>
0.419 

> <ROCS_RefTversky>
0.194 

> <ROCS_RefColorTversky>
0.489 

> <ROCS_RefTverskyCombo>
0.683 

> <ROCS_FitTversky>
1.846 

> <ROCS_FitColorTversky>
0.745 

> <ROCS_FitTverskyCombo>
2.592 

> <ROCS_ColorScore>
-3.838

> <ROCS_Overlap>
1987.068

> <ROCS_Rank>
113                 

$$$$
untitled-dbase-421973_7
  -OEChem-02092423213D

 25 25  0     0  0  0  0  0  0999 V2000
    8.4561   12.5242   24.2012 C   0  0  0  0  0  0  0  0  0  0  0  0
    7.5543   12.1100   25.1751 C   0  0  0  0  0  0  0  0  0  0  0  0
    9.2302   11.5822   23.5329 C   0  0  0  0  0  0  0  0  0  0  0  0
    7.4651   10.7533   25.4416 C   0  0  0  0  0  0  0  0  0  0  0  0
    9.0662   10.2490   23.8730 C   0  0  0  0  0  0  0  0  0  0  0  0
   10.1708   12.0260   22.5135 C   0  0  0  0  0  0  0  0  0  0  0  0
   12.8571   13.3116   21.4521 C   0  0  0  0  0  0  0  0  0  0  0  0
   11.6320   13.8730   22.1417 C   0  0  0  0  0  0  0  0  0  0  0  0
    6.5079   10.2731   26.4808 C   0  0  0  0  0  0  0  0  0  0  0  0
    8.2005    9.8087   24.8134 N   0  0  0  0  0  0  0  0  0  0  0  0
    9.8523    9.2828   23.1960 N   0  0  0  0  0  0  0  0  0  0  0  0
   10.1331   11.6743   21.3281 O   0  0  0  0  0  0  0  0  0  0  0  0
   11.1025   12.8832   23.0303 O   0  0  0  0  0  0  0  0  0  0  0  0
    5.7980   11.2767   27.0756 F   0  0  0  0  0  0  0  0  0  0  0  0
    5.5675    9.4082   25.9987 F   0  0  0  0  0  0  0  0  0  0  0  0
    7.1287    9.6098   27.4990 F   0  0  0  0  0  0  0  0  0  0  0  0
    8.5466   13.5827   23.9720 H   0  0  0  0  0  0  0  0  0  0  0  0
    6.9439   12.8348   25.7029 H   0  0  0  0  0  0  0  0  0  0  0  0
   13.6288   13.0483   22.1807 H   0  0  0  0  0  0  0  0  0  0  0  0
   12.5990   12.4193   20.8724 H   0  0  0  0  0  0  0  0  0  0  0  0
   13.2709   14.0404   20.7471 H   0  0  0  0  0  0  0  0  0  0  0  0
   10.8642   14.1342   21.4074 H   0  0  0  0  0  0  0  0  0  0  0  0
   11.8918   14.7639   22.7211 H   0  0  0  0  0  0  0  0  0  0  0  0
   10.4614    9.5838   22.4671 H   0  0  0  0  0  0  0  0  0  0  0  0
    9.7082    8.3181   23.3997 H   0  0  0  0  0  0  0  0  0  0  0  0
  1  2  2  0  0  0  0
  1  3  1  0  0  0  0
  2  4  1  0  0  0  0
  3  5  2  0  0  0  0
  3  6  1  0  0  0  0
  4  9  1  0  0  0  0
  4 10  2  0  0  0  0
  5 10  1  0  0  0  0
  5 11  1  0  0  0  0
  6 12  2  0  0  0  0
  6 13  1  0  0  0  0
  7  8  1  0  0  0  0
  8 13  1  0  0  0  0
  9 14  1  0  0  0  0
  9 15  1  0  0  0  0
  9 16  1  0  0  0  0
  1 17  1  0  0  0  0
  2 18  1  0  0  0  0
  7 19  1  0  0  0  0
  7 20  1  0  0  0  0
  7 21  1  0  0  0  0
  8 22  1  0  0  0  0
  8 23  1  0  0  0  0
 11 24  1  0  0  0  0
 11 25  1  0  0  0  0
M  END
> <id>
EN300-23686728

> <smiles>
CCOC(=O)C=1C=CC(=NC1N)C(F)(F)F

> <MDLNUMBER>
MFCD16610939

> <IUPAC Name>
ethyl 2-amino-6-(trifluoromethyl)pyridine-3-carboxylate

> <CAS>
890302-01-9

> <URL>
https://www.enaminestore.com/catalog/EN300-23686728

> <ROCS_ShapeQuery>
_x1140_x0812_0A_x1140_0A_x1097_0A_x0365_0A_x1097_0A_x0310_0A

> <ROCS_TanimotoCombo>
0.631 

> <ROCS_ShapeTanimoto>
0.259 

> <ROCS_ColorTanimoto>
0.373 

> <ROCS_RefTversky>
0.230 

> <ROCS_RefColorTversky>
0.450 

> <ROCS_RefTverskyCombo>
0.680 

> <ROCS_FitTversky>
1.934 

> <ROCS_FitColorTversky>
0.685 

> <ROCS_FitTverskyCombo>
2.619 

> <ROCS_ColorScore>
-3.533

> <ROCS_Overlap>
2357.219

> <ROCS_Rank>
114                 

$$$$
untitled-dbase-408353_3
  -OEChem-02092423213D

 26 26  0     0  0  0  0  0  0999 V2000
    8.8493   11.9847   24.8187 C   0  0  0  0  0  0  0  0  0  0  0  0
    9.1042   11.5251   23.5498 C   0  0  0  0  0  0  0  0  0  0  0  0
    8.2058   10.9092   25.4599 C   0  0  0  0  0  0  0  0  0  0  0  0
    9.7430   12.2024   22.4664 C   0  0  0  0  0  0  0  0  0  0  0  0
   10.2249   13.6196   22.6881 C   0  0  0  0  0  0  0  0  0  0  0  0
   11.1151    8.9175   22.6256 C   0  0  0  0  0  0  0  0  0  0  0  0
    9.7396    8.2805   22.5149 C   0  0  0  0  0  0  0  0  0  0  0  0
    8.6469    9.3377   22.3727 C   0  0  0  0  0  0  0  0  0  0  0  0
    7.7100   10.8582   26.8455 C   0  0  0  0  0  0  0  0  0  0  0  0
    8.0607    9.8465   24.6639 N   0  0  0  0  0  0  0  0  0  0  0  0
    8.6166   10.2520   23.5094 N   0  0  0  0  0  0  0  0  0  0  0  0
    9.9447   11.7346   21.3273 O   0  0  0  0  0  0  0  0  0  0  0  0
    7.9170   12.0106   27.5639 F   0  0  0  0  0  0  0  0  0  0  0  0
    6.3602   10.6286   26.9551 F   0  0  0  0  0  0  0  0  0  0  0  0
    8.2944    9.8693   27.5963 F   0  0  0  0  0  0  0  0  0  0  0  0
    9.0937   12.9572   25.2221 H   0  0  0  0  0  0  0  0  0  0  0  0
   11.2602   13.6764   23.0599 H   0  0  0  0  0  0  0  0  0  0  0  0
    9.5906   14.1826   23.3902 H   0  0  0  0  0  0  0  0  0  0  0  0
   10.2403   14.2387   21.7734 H   0  0  0  0  0  0  0  0  0  0  0  0
   11.1632    9.6005   23.4797 H   0  0  0  0  0  0  0  0  0  0  0  0
   11.3424    9.4890   21.7202 H   0  0  0  0  0  0  0  0  0  0  0  0
   11.8912    8.1556   22.7503 H   0  0  0  0  0  0  0  0  0  0  0  0
    9.7235    7.6037   21.6522 H   0  0  0  0  0  0  0  0  0  0  0  0
    9.5542    7.6641   23.4027 H   0  0  0  0  0  0  0  0  0  0  0  0
    7.6573    8.8723   22.2933 H   0  0  0  0  0  0  0  0  0  0  0  0
    8.7952    9.9376   21.4669 H   0  0  0  0  0  0  0  0  0  0  0  0
  1  2  2  0  0  0  0
  1  3  1  0  0  0  0
  2  4  1  0  0  0  0
  2 11  1  0  0  0  0
  3  9  1  0  0  0  0
  3 10  2  0  0  0  0
  4  5  1  0  0  0  0
  4 12  2  0  0  0  0
  6  7  1  0  0  0  0
  7  8  1  0  0  0  0
  8 11  1  0  0  0  0
  9 13  1  0  0  0  0
  9 14  1  0  0  0  0
  9 15  1  0  0  0  0
 10 11  1  0  0  0  0
  1 16  1  0  0  0  0
  5 17  1  0  0  0  0
  5 18  1  0  0  0  0
  5 19  1  0  0  0  0
  6 20  1  0  0  0  0
  6 21  1  0  0  0  0
  6 22  1  0  0  0  0
  7 23  1  0  0  0  0
  7 24  1  0  0  0  0
  8 25  1  0  0  0  0
  8 26  1  0  0  0  0
M  END
> <id>
EN300-1617480

> <smiles>
CCCN1N=C(C=C1C(=O)C)C(F)(F)F

> <IUPAC Name>
1-[1-propyl-3-(trifluoromethyl)-1H-pyrazol-5-yl]ethan-1-one

> <CAS>
2105188-08-5

> <URL>
https://www.enaminestore.com/catalog/EN300-1617480

> <ROCS_ShapeQuery>
_x1140_x0812_0A_x1140_0A_x1097_0A_x0365_0A_x1097_0A_x0310_0A

> <ROCS_TanimotoCombo>
0.631 

> <ROCS_ShapeTanimoto>
0.214 

> <ROCS_ColorTanimoto>
0.418 

> <ROCS_RefTversky>
0.196 

> <ROCS_RefColorTversky>
0.453 

> <ROCS_RefTverskyCombo>
0.649 

> <ROCS_FitTversky>
1.720 

> <ROCS_FitColorTversky>
0.842 

> <ROCS_FitTverskyCombo>
2.562 

> <ROCS_ColorScore>
-3.535

> <ROCS_Overlap>
2010.721

> <ROCS_Rank>
115                 

$$$$
untitled-dbase-564432_1
  -OEChem-02092423213D

 21 21  0     0  0  0  0  0  0999 V2000
    7.6134   12.1871   25.0100 C   0  0  0  0  0  0  0  0  0  0  0  0
    8.5529   12.5994   24.0716 C   0  0  0  0  0  0  0  0  0  0  0  0
    7.5029   10.8295   25.2638 C   0  0  0  0  0  0  0  0  0  0  0  0
    9.3420   11.6548   23.4248 C   0  0  0  0  0  0  0  0  0  0  0  0
    9.1542   10.3210   23.7497 C   0  0  0  0  0  0  0  0  0  0  0  0
    9.8387    7.9540   23.3570 C   0  0  0  0  0  0  0  0  0  0  0  0
    8.8014    7.3058   22.4751 C   0  0  0  0  0  0  0  0  0  0  0  0
    8.2517    9.8824   24.6556 N   0  0  0  0  0  0  0  0  0  0  0  0
   10.2936   12.0700   22.4746 N   0  0  0  0  0  0  0  0  0  0  0  0
    9.9539    9.3511   23.0943 N   0  0  0  0  0  0  0  0  0  0  0  0
    8.7139    5.9838   22.7417 F   0  0  0  0  0  0  0  0  0  0  0  0
    7.5795    7.8447   22.6730 F   0  0  0  0  0  0  0  0  0  0  0  0
    9.1122    7.4396   21.1682 F   0  0  0  0  0  0  0  0  0  0  0  0
    6.9874   12.9057   25.5266 H   0  0  0  0  0  0  0  0  0  0  0  0
    8.6608   13.6585   23.8531 H   0  0  0  0  0  0  0  0  0  0  0  0
    6.7852   10.4556   25.9867 H   0  0  0  0  0  0  0  0  0  0  0  0
   10.8220    7.5036   23.1920 H   0  0  0  0  0  0  0  0  0  0  0  0
    9.5765    7.8361   24.4124 H   0  0  0  0  0  0  0  0  0  0  0  0
   10.3605   13.0410   22.2388 H   0  0  0  0  0  0  0  0  0  0  0  0
   10.8250   11.3810   21.9789 H   0  0  0  0  0  0  0  0  0  0  0  0
   10.6157    9.6932   22.4284 H   0  0  0  0  0  0  0  0  0  0  0  0
  1  2  2  0  0  0  0
  1  3  1  0  0  0  0
  2  4  1  0  0  0  0
  3  8  2  0  0  0  0
  4  5  2  0  0  0  0
  4  9  1  0  0  0  0
  5  8  1  0  0  0  0
  5 10  1  0  0  0  0
  6  7  1  0  0  0  0
  6 10  1  0  0  0  0
  7 11  1  0  0  0  0
  7 12  1  0  0  0  0
  7 13  1  0  0  0  0
  1 14  1  0  0  0  0
  2 15  1  0  0  0  0
  3 16  1  0  0  0  0
  6 17  1  0  0  0  0
  6 18  1  0  0  0  0
  9 19  1  0  0  0  0
  9 20  1  0  0  0  0
 10 21  1  0  0  0  0
M  END
> <id>
EN300-3006476

> <smiles>
NC=1C=CC=NC1NCC(F)(F)F

> <MDLNUMBER>
MFCD11187181

> <IUPAC Name>
N2-(2,2,2-trifluoroethyl)pyridine-2,3-diamine

> <CAS>
1022146-70-8

> <Purity>
95

> <URL>
https://www.enaminestore.com/catalog/EN300-3006476

> <ROCS_ShapeQuery>
_x1140_x0812_0A_x1140_0A_x1097_0A_x0365_0A_x1097_0A_x0310_0A

> <ROCS_TanimotoCombo>
0.631 

> <ROCS_ShapeTanimoto>
0.194 

> <ROCS_ColorTanimoto>
0.437 

> <ROCS_RefTversky>
0.180 

> <ROCS_RefColorTversky>
0.504 

> <ROCS_RefTverskyCombo>
0.684 

> <ROCS_FitTversky>
1.695 

> <ROCS_FitColorTversky>
0.768 

> <ROCS_FitTverskyCombo>
2.463 

> <ROCS_ColorScore>
-3.957

> <ROCS_Overlap>
1839.985

> <ROCS_Rank>
116                 

$$$$
untitled-dbase-388044_1
  -OEChem-02092423213D

 18 18  0     0  0  0  0  0  0999 V2000
   11.8394   15.3640   22.3257 C   0  0  0  0  0  0  0  0  0  0  0  0
    9.2123   12.2930   24.8564 C   0  0  0  0  0  0  0  0  0  0  0  0
    8.6472   10.4139   23.5124 C   0  0  0  0  0  0  0  0  0  0  0  0
    9.2870   11.6370   23.6327 C   0  0  0  0  0  0  0  0  0  0  0  0
    8.5100   11.7140   25.9075 C   0  0  0  0  0  0  0  0  0  0  0  0
    7.9048   10.4876   25.6853 C   0  0  0  0  0  0  0  0  0  0  0  0
   10.0137   12.2154   22.5160 C   0  0  0  0  0  0  0  0  0  0  0  0
   11.3122   14.0952   21.8236 C   0  0  0  0  0  0  0  0  0  0  0  0
   12.2579   16.3706   22.7230 N   0  0  0  0  0  0  0  0  0  0  0  0
    7.9555    9.8202   24.5107 N   0  0  0  0  0  0  0  0  0  0  0  0
   10.1215   11.6880   21.3998 O   0  0  0  0  0  0  0  0  0  0  0  0
   10.5687   13.4226   22.8455 O   0  0  0  0  0  0  0  0  0  0  0  0
    8.4265   12.5420   27.4146 Cl  0  0  0  0  0  0  0  0  0  0  0  0
    7.0028    9.6529   26.8924 Cl  0  0  0  0  0  0  0  0  0  0  0  0
    9.7029   13.2552   24.9844 H   0  0  0  0  0  0  0  0  0  0  0  0
    8.6695    9.8539   22.5822 H   0  0  0  0  0  0  0  0  0  0  0  0
   10.6408   14.2655   20.9770 H   0  0  0  0  0  0  0  0  0  0  0  0
   12.1175   13.4347   21.4884 H   0  0  0  0  0  0  0  0  0  0  0  0
  1  8  1  0  0  0  0
  1  9  3  0  0  0  0
  2  4  2  0  0  0  0
  2  5  1  0  0  0  0
  3  4  1  0  0  0  0
  3 10  2  0  0  0  0
  4  7  1  0  0  0  0
  5  6  2  0  0  0  0
  5 13  1  0  0  0  0
  6 10  1  0  0  0  0
  6 14  1  0  0  0  0
  7 11  2  0  0  0  0
  7 12  1  0  0  0  0
  8 12  1  0  0  0  0
  2 15  1  0  0  0  0
  3 16  1  0  0  0  0
  8 17  1  0  0  0  0
  8 18  1  0  0  0  0
M  END
> <id>
EN300-26579892

> <smiles>
ClC=1C=C(C=NC1Cl)C(=O)OCC#N

> <IUPAC Name>
cyanomethyl 5,6-dichloropyridine-3-carboxylate

> <CAS>
560996-87-4

> <URL>
https://www.enaminestore.com/catalog/EN300-26579892

> <ROCS_ShapeQuery>
_x1140_x0812_0A_x1140_0A_x1097_0A_x0365_0A_x1097_0A_x0310_0A

> <ROCS_TanimotoCombo>
0.631 

> <ROCS_ShapeTanimoto>
0.193 

> <ROCS_ColorTanimoto>
0.438 

> <ROCS_RefTversky>
0.179 

> <ROCS_RefColorTversky>
0.469 

> <ROCS_RefTverskyCombo>
0.648 

> <ROCS_FitTversky>
1.662 

> <ROCS_FitColorTversky>
0.871 

> <ROCS_FitTverskyCombo>
2.533 

> <ROCS_ColorScore>
-3.658

> <ROCS_Overlap>
1834.629

> <ROCS_Rank>
117                 

$$$$
untitled-dbase-17085_1
  -OEChem-02092423213D

 21 21  0     0  0  0  0  0  0999 V2000
    7.6144   12.1874   25.0112 C   0  0  0  0  0  0  0  0  0  0  0  0
    8.5537   12.5995   24.0725 C   0  0  0  0  0  0  0  0  0  0  0  0
    7.5033   10.8298   25.2647 C   0  0  0  0  0  0  0  0  0  0  0  0
    9.3421   11.6547   23.4251 C   0  0  0  0  0  0  0  0  0  0  0  0
    9.1537   10.3209   23.7496 C   0  0  0  0  0  0  0  0  0  0  0  0
    8.6809    7.3628   22.6230 C   0  0  0  0  0  0  0  0  0  0  0  0
    9.8369    7.9537   23.3559 C   0  0  0  0  0  0  0  0  0  0  0  0
    8.2514    9.8825   24.6559 N   0  0  0  0  0  0  0  0  0  0  0  0
   10.2935   12.0698   22.4746 N   0  0  0  0  0  0  0  0  0  0  0  0
    9.9527    9.3508   23.0936 N   0  0  0  0  0  0  0  0  0  0  0  0
    6.9890   12.9061   25.5283 H   0  0  0  0  0  0  0  0  0  0  0  0
    8.6621   13.6586   23.8544 H   0  0  0  0  0  0  0  0  0  0  0  0
    6.7858   10.4560   25.9877 H   0  0  0  0  0  0  0  0  0  0  0  0
    8.8174    7.5106   21.5416 H   0  0  0  0  0  0  0  0  0  0  0  0
    8.6202    6.2863   22.8411 H   0  0  0  0  0  0  0  0  0  0  0  0
    7.7518    7.8553   22.9459 H   0  0  0  0  0  0  0  0  0  0  0  0
    9.6929    7.8019   24.4358 H   0  0  0  0  0  0  0  0  0  0  0  0
   10.7608    7.4503   23.0348 H   0  0  0  0  0  0  0  0  0  0  0  0
   10.3608   13.0408   22.2391 H   0  0  0  0  0  0  0  0  0  0  0  0
   10.8243   11.3806   21.9785 H   0  0  0  0  0  0  0  0  0  0  0  0
   10.6144    9.6928   22.4275 H   0  0  0  0  0  0  0  0  0  0  0  0
  1  2  2  0  0  0  0
  1  3  1  0  0  0  0
  2  4  1  0  0  0  0
  3  8  2  0  0  0  0
  4  5  2  0  0  0  0
  4  9  1  0  0  0  0
  5  8  1  0  0  0  0
  5 10  1  0  0  0  0
  6  7  1  0  0  0  0
  7 10  1  0  0  0  0
  1 11  1  0  0  0  0
  2 12  1  0  0  0  0
  3 13  1  0  0  0  0
  6 14  1  0  0  0  0
  6 15  1  0  0  0  0
  6 16  1  0  0  0  0
  7 17  1  0  0  0  0
  7 18  1  0  0  0  0
  9 19  1  0  0  0  0
  9 20  1  0  0  0  0
 10 21  1  0  0  0  0
M  END
> <id>
EN300-53008

> <smiles>
Cl.Cl.CCNC=1N=CC=CC1N

> <MDLNUMBER>
MFCD12913192

> <IUPAC Name>
N2-ethylpyridine-2,3-diamine dihydrochloride

> <CAS>
1197720-71-0

> <Purity>
95

> <URL>
https://www.enaminestore.com/catalog/EN300-53008

> <Saltdate>
Cl

> <ROCS_ShapeQuery>
_x1140_x0812_0A_x1140_0A_x1097_0A_x0365_0A_x1097_0A_x0310_0A

> <ROCS_TanimotoCombo>
0.631 

> <ROCS_ShapeTanimoto>
0.194 

> <ROCS_ColorTanimoto>
0.437 

> <ROCS_RefTversky>
0.177 

> <ROCS_RefColorTversky>
0.504 

> <ROCS_RefTverskyCombo>
0.681 

> <ROCS_FitTversky>
1.919 

> <ROCS_FitColorTversky>
0.768 

> <ROCS_FitTverskyCombo>
2.688 

> <ROCS_ColorScore>
-3.957

> <ROCS_Overlap>
1815.173

> <ROCS_Rank>
118                 

$$$$
untitled-dbase-1501_1
  -OEChem-02092423213D

 21 21  0     0  0  0  0  0  0999 V2000
    7.6144   12.1874   25.0112 C   0  0  0  0  0  0  0  0  0  0  0  0
    8.5537   12.5995   24.0725 C   0  0  0  0  0  0  0  0  0  0  0  0
    7.5033   10.8298   25.2647 C   0  0  0  0  0  0  0  0  0  0  0  0
    9.3421   11.6547   23.4251 C   0  0  0  0  0  0  0  0  0  0  0  0
    9.1537   10.3209   23.7496 C   0  0  0  0  0  0  0  0  0  0  0  0
    8.6809    7.3628   22.6230 C   0  0  0  0  0  0  0  0  0  0  0  0
    9.8369    7.9537   23.3559 C   0  0  0  0  0  0  0  0  0  0  0  0
    8.2514    9.8825   24.6559 N   0  0  0  0  0  0  0  0  0  0  0  0
   10.2935   12.0698   22.4746 N   0  0  0  0  0  0  0  0  0  0  0  0
    9.9527    9.3508   23.0936 N   0  0  0  0  0  0  0  0  0  0  0  0
    6.9890   12.9061   25.5283 H   0  0  0  0  0  0  0  0  0  0  0  0
    8.6621   13.6586   23.8544 H   0  0  0  0  0  0  0  0  0  0  0  0
    6.7858   10.4560   25.9877 H   0  0  0  0  0  0  0  0  0  0  0  0
    8.8174    7.5106   21.5416 H   0  0  0  0  0  0  0  0  0  0  0  0
    8.6202    6.2863   22.8411 H   0  0  0  0  0  0  0  0  0  0  0  0
    7.7518    7.8553   22.9459 H   0  0  0  0  0  0  0  0  0  0  0  0
    9.6929    7.8019   24.4358 H   0  0  0  0  0  0  0  0  0  0  0  0
   10.7608    7.4503   23.0348 H   0  0  0  0  0  0  0  0  0  0  0  0
   10.3608   13.0408   22.2391 H   0  0  0  0  0  0  0  0  0  0  0  0
   10.8243   11.3806   21.9785 H   0  0  0  0  0  0  0  0  0  0  0  0
   10.6144    9.6928   22.4275 H   0  0  0  0  0  0  0  0  0  0  0  0
  1  2  2  0  0  0  0
  1  3  1  0  0  0  0
  2  4  1  0  0  0  0
  3  8  2  0  0  0  0
  4  5  2  0  0  0  0
  4  9  1  0  0  0  0
  5  8  1  0  0  0  0
  5 10  1  0  0  0  0
  6  7  1  0  0  0  0
  7 10  1  0  0  0  0
  1 11  1  0  0  0  0
  2 12  1  0  0  0  0
  3 13  1  0  0  0  0
  6 14  1  0  0  0  0
  6 15  1  0  0  0  0
  6 16  1  0  0  0  0
  7 17  1  0  0  0  0
  7 18  1  0  0  0  0
  9 19  1  0  0  0  0
  9 20  1  0  0  0  0
 10 21  1  0  0  0  0
M  END
> <id>
EN300-58574

> <smiles>
CCNC=1N=CC=CC1N

> <MDLNUMBER>
MFCD08692123

> <IUPAC Name>
N2-ethylpyridine-2,3-diamine

> <CAS>
32282-06-7

> <Purity>
95

> <URL>
https://www.enaminestore.com/catalog/EN300-58574

> <ROCS_ShapeQuery>
_x1140_x0812_0A_x1140_0A_x1097_0A_x0365_0A_x1097_0A_x0310_0A

> <ROCS_TanimotoCombo>
0.631 

> <ROCS_ShapeTanimoto>
0.194 

> <ROCS_ColorTanimoto>
0.437 

> <ROCS_RefTversky>
0.177 

> <ROCS_RefColorTversky>
0.504 

> <ROCS_RefTverskyCombo>
0.681 

> <ROCS_FitTversky>
1.919 

> <ROCS_FitColorTversky>
0.768 

> <ROCS_FitTverskyCombo>
2.688 

> <ROCS_ColorScore>
-3.957

> <ROCS_Overlap>
1815.173

> <ROCS_Rank>
119                 

$$$$
untitled-dbase-278054_2
  -OEChem-02092423213D

 28 28  0     0  0  0  0  0  0999 V2000
    7.6541   10.6008   25.3534 C   0  0  0  0  0  0  0  0  0  0  0  0
    8.1117   11.8567   25.6931 C   0  0  0  0  0  0  0  0  0  0  0  0
    9.1205   10.8640   23.7439 C   0  0  0  0  0  0  0  0  0  0  0  0
    9.9179   10.5692   22.5540 C   0  0  0  0  0  0  0  0  0  0  0  0
    6.6175    9.8304   26.0704 C   0  0  0  0  0  0  0  0  0  0  0  0
    7.7204   12.7426   26.8077 C   0  0  0  0  0  0  0  0  0  0  0  0
   10.8398    8.5222   23.8449 C   0  0  0  0  0  0  0  0  0  0  0  0
   10.4836    8.4359   21.3538 C   0  0  0  0  0  0  0  0  0  0  0  0
   12.2982    9.8477   22.3355 C   0  0  0  0  0  0  0  0  0  0  0  0
   10.8566    9.3346   22.5405 C   0  0  0  0  0  0  0  0  0  0  0  0
    8.2311   10.0302   24.2357 N   0  0  0  0  0  0  0  0  0  0  0  0
    9.8518   11.2973   21.5605 O   0  0  0  0  0  0  0  0  0  0  0  0
    9.3148   12.3523   24.5759 S   0  0  0  0  0  0  0  0  0  0  0  0
    5.6142   10.0484   25.6704 H   0  0  0  0  0  0  0  0  0  0  0  0
    6.7823    8.7428   25.9903 H   0  0  0  0  0  0  0  0  0  0  0  0
    6.6061   10.0590   27.1495 H   0  0  0  0  0  0  0  0  0  0  0  0
    8.3408   12.5561   27.6994 H   0  0  0  0  0  0  0  0  0  0  0  0
    7.8238   13.8088   26.5441 H   0  0  0  0  0  0  0  0  0  0  0  0
    6.6652   12.6009   27.0973 H   0  0  0  0  0  0  0  0  0  0  0  0
   11.5114    7.6594   23.8034 H   0  0  0  0  0  0  0  0  0  0  0  0
   11.1674    9.1333   24.6942 H   0  0  0  0  0  0  0  0  0  0  0  0
    9.8330    8.1529   24.0708 H   0  0  0  0  0  0  0  0  0  0  0  0
   11.1206    7.5480   21.3018 H   0  0  0  0  0  0  0  0  0  0  0  0
   10.5867    8.9717   20.4034 H   0  0  0  0  0  0  0  0  0  0  0  0
    9.4476    8.0860   21.4307 H   0  0  0  0  0  0  0  0  0  0  0  0
   13.0118    9.0154   22.3172 H   0  0  0  0  0  0  0  0  0  0  0  0
   12.3966   10.3978   21.3927 H   0  0  0  0  0  0  0  0  0  0  0  0
   12.6053   10.5239   23.1418 H   0  0  0  0  0  0  0  0  0  0  0  0
  1  2  2  0  0  0  0
  1  5  1  0  0  0  0
  1 11  1  0  0  0  0
  2  6  1  0  0  0  0
  2 13  1  0  0  0  0
  3  4  1  0  0  0  0
  3 11  2  0  0  0  0
  3 13  1  0  0  0  0
  4 10  1  0  0  0  0
  4 12  2  0  0  0  0
  7 10  1  0  0  0  0
  8 10  1  0  0  0  0
  9 10  1  0  0  0  0
  5 14  1  0  0  0  0
  5 15  1  0  0  0  0
  5 16  1  0  0  0  0
  6 17  1  0  0  0  0
  6 18  1  0  0  0  0
  6 19  1  0  0  0  0
  7 20  1  0  0  0  0
  7 21  1  0  0  0  0
  7 22  1  0  0  0  0
  8 23  1  0  0  0  0
  8 24  1  0  0  0  0
  8 25  1  0  0  0  0
  9 26  1  0  0  0  0
  9 27  1  0  0  0  0
  9 28  1  0  0  0  0
M  END
> <id>
EN300-1269011

> <smiles>
CC=1N=C(SC1C)C(=O)C(C)(C)C

> <IUPAC Name>
1-(dimethyl-1,3-thiazol-2-yl)-2,2-dimethylpropan-1-one

> <CAS>
1534816-83-5

> <URL>
https://www.enaminestore.com/catalog/EN300-1269011

> <ROCS_ShapeQuery>
_x1140_x0812_0A_x1140_0A_x1097_0A_x0365_0A_x1097_0A_x0310_0A

> <ROCS_TanimotoCombo>
0.631 

> <ROCS_ShapeTanimoto>
0.192 

> <ROCS_ColorTanimoto>
0.440 

> <ROCS_RefTversky>
0.177 

> <ROCS_RefColorTversky>
0.470 

> <ROCS_RefTverskyCombo>
0.647 

> <ROCS_FitTversky>
1.731 

> <ROCS_FitColorTversky>
0.872 

> <ROCS_FitTverskyCombo>
2.603 

> <ROCS_ColorScore>
-3.664

> <ROCS_Overlap>
1816.326

> <ROCS_Rank>
120                 

$$$$
untitled-dbase-22601_0
  -OEChem-02092423213D

 20 20  0     0  0  0  0  0  0999 V2000
    9.3288   11.5805   23.4085 C   0  0  0  0  0  0  0  0  0  0  0  0
    9.1627   10.2680   23.6973 C   0  0  0  0  0  0  0  0  0  0  0  0
    8.3984   12.5799   24.0181 C   0  0  0  0  0  0  0  0  0  0  0  0
    7.3319   10.6665   25.0854 C   0  0  0  0  0  0  0  0  0  0  0  0
    6.4722   12.9625   25.4837 C   0  0  0  0  0  0  0  0  0  0  0  0
    8.1620    9.8237   24.5359 N   0  0  0  0  0  0  0  0  0  0  0  0
    7.4193   12.0451   24.8507 N   0  0  0  0  0  0  0  0  0  0  0  0
   10.2884   12.1128   22.5915 N   0  0  0  0  0  0  0  0  0  0  0  0
   10.0175    9.3402   23.1384 N   0  0  0  0  0  0  0  0  0  0  0  0
    6.3463   10.1839   25.9165 N   0  0  0  0  0  0  0  0  0  0  0  0
    8.5354   13.7771   23.7672 O   0  0  0  0  0  0  0  0  0  0  0  0
    5.5971   13.0951   24.8305 H   0  0  0  0  0  0  0  0  0  0  0  0
    6.1490   12.5469   26.4495 H   0  0  0  0  0  0  0  0  0  0  0  0
    6.9582   13.9356   25.6475 H   0  0  0  0  0  0  0  0  0  0  0  0
   10.9365   11.4951   22.1577 H   0  0  0  0  0  0  0  0  0  0  0  0
   10.3045   13.0988   22.4598 H   0  0  0  0  0  0  0  0  0  0  0  0
   10.7308    9.6722   22.5385 H   0  0  0  0  0  0  0  0  0  0  0  0
    9.8763    8.3873   23.3642 H   0  0  0  0  0  0  0  0  0  0  0  0
    6.3036    9.2056   26.0677 H   0  0  0  0  0  0  0  0  0  0  0  0
    5.7232   10.8362   26.3266 H   0  0  0  0  0  0  0  0  0  0  0  0
  1  2  2  0  0  0  0
  1  3  1  0  0  0  0
  1  8  1  0  0  0  0
  2  6  1  0  0  0  0
  2  9  1  0  0  0  0
  3  7  1  0  0  0  0
  3 11  2  0  0  0  0
  4  6  2  0  0  0  0
  4  7  1  0  0  0  0
  4 10  1  0  0  0  0
  5  7  1  0  0  0  0
  5 12  1  0  0  0  0
  5 13  1  0  0  0  0
  5 14  1  0  0  0  0
  8 15  1  0  0  0  0
  8 16  1  0  0  0  0
  9 17  1  0  0  0  0
  9 18  1  0  0  0  0
 10 19  1  0  0  0  0
 10 20  1  0  0  0  0
M  END
> <id>
EN300-15394

> <smiles>
CN1C(N)=NC(N)=C(N)C1=O

> <MDLNUMBER>
MFCD07692302

> <IUPAC Name>
2,5,6-triamino-3-methyl-3,4-dihydropyrimidin-4-one

> <CAS>
45864-29-7

> <Purity>
85

> <URL>
https://www.enaminestore.com/catalog/EN300-15394

> <ROCS_ShapeQuery>
_x1140_x0812_0A_x1140_0A_x1097_0A_x0365_0A_x1097_0A_x0310_0A

> <ROCS_TanimotoCombo>
0.631 

> <ROCS_ShapeTanimoto>
0.229 

> <ROCS_ColorTanimoto>
0.402 

> <ROCS_RefTversky>
0.205 

> <ROCS_RefColorTversky>
0.606 

> <ROCS_RefTverskyCombo>
0.811 

> <ROCS_FitTversky>
2.086 

> <ROCS_FitColorTversky>
0.544 

> <ROCS_FitTverskyCombo>
2.630 

> <ROCS_ColorScore>
-4.879

> <ROCS_Overlap>
2097.116

> <ROCS_Rank>
121                 

$$$$
untitled-dbase-360340_8
  -OEChem-02092423213D

 29 30  0     0  0  0  0  0  0999 V2000
   11.9523   15.0651   22.2486 C   0  0  0  0  0  0  0  0  0  0  0  0
    5.3653   12.1084   26.5017 C   0  0  0  0  0  0  0  0  0  0  0  0
    5.1959   10.7325   26.4101 C   0  0  0  0  0  0  0  0  0  0  0  0
    6.4789   12.7040   25.9164 C   0  0  0  0  0  0  0  0  0  0  0  0
    6.1398    9.9556   25.7339 C   0  0  0  0  0  0  0  0  0  0  0  0
    7.4282   11.9223   25.2363 C   0  0  0  0  0  0  0  0  0  0  0  0
    9.4774   11.6967   23.9735 C   0  0  0  0  0  0  0  0  0  0  0  0
    8.5583   12.4958   24.6380 C   0  0  0  0  0  0  0  0  0  0  0  0
    7.2626   10.5248   25.1392 C   0  0  0  0  0  0  0  0  0  0  0  0
    9.2301   10.3396   23.9311 C   0  0  0  0  0  0  0  0  0  0  0  0
   10.6620   12.2610   23.3385 C   0  0  0  0  0  0  0  0  0  0  0  0
    8.8014   13.9743   24.7004 C   0  0  0  0  0  0  0  0  0  0  0  0
   11.5191   13.8345   21.5891 C   0  0  0  0  0  0  0  0  0  0  0  0
   12.2989   16.0422   22.7697 N   0  0  0  0  0  0  0  0  0  0  0  0
    8.1529    9.7468   24.4950 N   0  0  0  0  0  0  0  0  0  0  0  0
   10.4491   13.2036   22.3279 N   0  0  0  0  0  0  0  0  0  0  0  0
   11.7962   11.8896   23.6827 O   0  0  0  0  0  0  0  0  0  0  0  0
   10.1052    9.5058   23.2840 O   0  0  0  0  0  0  0  0  0  0  0  0
    4.6339   12.7148   27.0273 H   0  0  0  0  0  0  0  0  0  0  0  0
    4.3297   10.2591   26.8633 H   0  0  0  0  0  0  0  0  0  0  0  0
    6.5864   13.7822   26.0048 H   0  0  0  0  0  0  0  0  0  0  0  0
    5.9853    8.8795   25.6785 H   0  0  0  0  0  0  0  0  0  0  0  0
    9.3878   14.2194   25.5909 H   0  0  0  0  0  0  0  0  0  0  0  0
    9.3430   14.3185   23.8134 H   0  0  0  0  0  0  0  0  0  0  0  0
    7.8553   14.5241   24.7363 H   0  0  0  0  0  0  0  0  0  0  0  0
   11.1496   14.0372   20.5799 H   0  0  0  0  0  0  0  0  0  0  0  0
   12.3403   13.1157   21.5178 H   0  0  0  0  0  0  0  0  0  0  0  0
    9.5000   13.4233   22.0438 H   0  0  0  0  0  0  0  0  0  0  0  0
   10.8354   10.0217   22.9152 H   0  0  0  0  0  0  0  0  0  0  0  0
  1 13  1  0  0  0  0
  1 14  3  0  0  0  0
  2  3  1  0  0  0  0
  2  4  2  0  0  0  0
  3  5  2  0  0  0  0
  4  6  1  0  0  0  0
  5  9  1  0  0  0  0
  6  8  2  0  0  0  0
  6  9  1  0  0  0  0
  7  8  1  0  0  0  0
  7 10  2  0  0  0  0
  7 11  1  0  0  0  0
  8 12  1  0  0  0  0
  9 15  2  0  0  0  0
 10 15  1  0  0  0  0
 10 18  1  0  0  0  0
 11 16  1  0  0  0  0
 11 17  2  0  0  0  0
 13 16  1  0  0  0  0
  2 19  1  0  0  0  0
  3 20  1  0  0  0  0
  4 21  1  0  0  0  0
  5 22  1  0  0  0  0
 12 23  1  0  0  0  0
 12 24  1  0  0  0  0
 12 25  1  0  0  0  0
 13 26  1  0  0  0  0
 13 27  1  0  0  0  0
 16 28  1  0  0  0  0
 18 29  1  0  0  0  0
M  END
> <id>
EN300-26686397

> <smiles>
CC=1C(C(=O)NCC#N)=C(O)N=C2C=CC=CC12

> <IUPAC Name>
N-(cyanomethyl)-2-hydroxy-4-methylquinoline-3-carboxamide

> <CAS>
1394756-70-7

> <URL>
https://www.enaminestore.com/catalog/EN300-26686397

> <ROCS_ShapeQuery>
_x1140_x0812_0A_x1140_0A_x1097_0A_x0365_0A_x1097_0A_x0310_0A

> <ROCS_TanimotoCombo>
0.631 

> <ROCS_ShapeTanimoto>
0.292 

> <ROCS_ColorTanimoto>
0.339 

> <ROCS_RefTversky>
0.255 

> <ROCS_RefColorTversky>
0.507 

> <ROCS_RefTverskyCombo>
0.761 

> <ROCS_FitTversky>
1.989 

> <ROCS_FitColorTversky>
0.506 

> <ROCS_FitTverskyCombo>
2.495 

> <ROCS_ColorScore>
-4.053

> <ROCS_Overlap>
2614.765

> <ROCS_Rank>
122                 

$$$$
untitled-dbase-477257_5
  -OEChem-02092423213D

 25 25  0     0  0  0  0  0  0999 V2000
    8.4360   12.5080   24.2093 C   0  0  0  0  0  0  0  0  0  0  0  0
    7.4610   10.7256   25.4458 C   0  0  0  0  0  0  0  0  0  0  0  0
    9.2170   11.5742   23.5374 C   0  0  0  0  0  0  0  0  0  0  0  0
    7.5388   12.0838   25.1831 C   0  0  0  0  0  0  0  0  0  0  0  0
    9.0642   10.2388   23.8739 C   0  0  0  0  0  0  0  0  0  0  0  0
   10.1542   12.0281   22.5192 C   0  0  0  0  0  0  0  0  0  0  0  0
   13.2570   12.4833   22.1181 C   0  0  0  0  0  0  0  0  0  0  0  0
   12.0591   13.4087   22.1322 C   0  0  0  0  0  0  0  0  0  0  0  0
    6.6889   13.0575   25.9193 C   0  0  0  0  0  0  0  0  0  0  0  0
    8.2032    9.7888   24.8140 N   0  0  0  0  0  0  0  0  0  0  0  0
    9.8575    9.2807   23.1939 N   0  0  0  0  0  0  0  0  0  0  0  0
   10.1187   11.6800   21.3327 O   0  0  0  0  0  0  0  0  0  0  0  0
   11.0799   12.8901   23.0388 O   0  0  0  0  0  0  0  0  0  0  0  0
    6.8859   14.3572   25.5421 F   0  0  0  0  0  0  0  0  0  0  0  0
    5.3470   12.8451   25.7638 F   0  0  0  0  0  0  0  0  0  0  0  0
    6.9055   13.0349   27.2683 F   0  0  0  0  0  0  0  0  0  0  0  0
    8.5237   13.5667   23.9766 H   0  0  0  0  0  0  0  0  0  0  0  0
    6.7783   10.3359   26.1945 H   0  0  0  0  0  0  0  0  0  0  0  0
   13.7060   12.4110   23.1126 H   0  0  0  0  0  0  0  0  0  0  0  0
   12.9664   11.4806   21.7876 H   0  0  0  0  0  0  0  0  0  0  0  0
   14.0144   12.8434   21.4139 H   0  0  0  0  0  0  0  0  0  0  0  0
   11.6148   13.4765   21.1346 H   0  0  0  0  0  0  0  0  0  0  0  0
   12.3510   14.4097   22.4634 H   0  0  0  0  0  0  0  0  0  0  0  0
   10.4635    9.5884   22.4653 H   0  0  0  0  0  0  0  0  0  0  0  0
    9.7213    8.3143   23.3952 H   0  0  0  0  0  0  0  0  0  0  0  0
  1  3  1  0  0  0  0
  1  4  2  0  0  0  0
  2  4  1  0  0  0  0
  2 10  2  0  0  0  0
  3  5  2  0  0  0  0
  3  6  1  0  0  0  0
  4  9  1  0  0  0  0
  5 10  1  0  0  0  0
  5 11  1  0  0  0  0
  6 12  2  0  0  0  0
  6 13  1  0  0  0  0
  7  8  1  0  0  0  0
  8 13  1  0  0  0  0
  9 14  1  0  0  0  0
  9 15  1  0  0  0  0
  9 16  1  0  0  0  0
  1 17  1  0  0  0  0
  2 18  1  0  0  0  0
  7 19  1  0  0  0  0
  7 20  1  0  0  0  0
  7 21  1  0  0  0  0
  8 22  1  0  0  0  0
  8 23  1  0  0  0  0
 11 24  1  0  0  0  0
 11 25  1  0  0  0  0
M  END
> <id>
EN300-23982811

> <smiles>
CCOC(=O)C=1C=C(C=NC1N)C(F)(F)F

> <MDLNUMBER>
MFCD16610938

> <IUPAC Name>
ethyl 2-amino-5-(trifluoromethyl)pyridine-3-carboxylate

> <CAS>
1227603-11-3

> <URL>
https://www.enaminestore.com/catalog/EN300-23982811

> <ROCS_ShapeQuery>
_x1140_x0812_0A_x1140_0A_x1097_0A_x0365_0A_x1097_0A_x0310_0A

> <ROCS_TanimotoCombo>
0.631 

> <ROCS_ShapeTanimoto>
0.258 

> <ROCS_ColorTanimoto>
0.373 

> <ROCS_RefTversky>
0.229 

> <ROCS_RefColorTversky>
0.450 

> <ROCS_RefTverskyCombo>
0.679 

> <ROCS_FitTversky>
1.931 

> <ROCS_FitColorTversky>
0.685 

> <ROCS_FitTverskyCombo>
2.616 

> <ROCS_ColorScore>
-3.533

> <ROCS_Overlap>
2350.982

> <ROCS_Rank>
123                 

$$$$
untitled-dbase-288231_9
  -OEChem-02092423213D

 28 28  0     0  0  0  0  0  0999 V2000
    8.4300   12.4946   24.3166 C   0  0  0  0  0  0  0  0  0  0  0  0
    8.8228   10.2750   23.5577 C   0  0  0  0  0  0  0  0  0  0  0  0
    9.1010   11.6289   23.4601 C   0  0  0  0  0  0  0  0  0  0  0  0
    7.5143   11.9871   25.2317 C   0  0  0  0  0  0  0  0  0  0  0  0
    7.3070   10.6173   25.2498 C   0  0  0  0  0  0  0  0  0  0  0  0
   10.0634   12.1274   22.4933 C   0  0  0  0  0  0  0  0  0  0  0  0
    7.1492    7.9778   27.0533 C   0  0  0  0  0  0  0  0  0  0  0  0
   12.2194   15.0945   22.7298 C   0  0  0  0  0  0  0  0  0  0  0  0
    6.0989    8.6854   26.2668 C   0  0  0  0  0  0  0  0  0  0  0  0
   11.6542   13.8560   22.0678 C   0  0  0  0  0  0  0  0  0  0  0  0
    7.9400    9.7450   24.4337 N   0  0  0  0  0  0  0  0  0  0  0  0
    6.3773   10.0816   26.1755 N   0  0  0  0  0  0  0  0  0  0  0  0
   10.3007   11.5945   21.3999 O   0  0  0  0  0  0  0  0  0  0  0  0
   10.6811   13.2658   22.9365 O   0  0  0  0  0  0  0  0  0  0  0  0
    6.6913   13.0734   26.2859 Cl  0  0  0  0  0  0  0  0  0  0  0  0
    8.6247   13.5636   24.2666 H   0  0  0  0  0  0  0  0  0  0  0  0
    9.3149    9.5503   22.9161 H   0  0  0  0  0  0  0  0  0  0  0  0
    7.1929    8.3979   28.0690 H   0  0  0  0  0  0  0  0  0  0  0  0
    6.9054    6.9066   27.1099 H   0  0  0  0  0  0  0  0  0  0  0  0
    8.1246    8.1063   26.5612 H   0  0  0  0  0  0  0  0  0  0  0  0
   11.4318   15.8285   22.9213 H   0  0  0  0  0  0  0  0  0  0  0  0
   12.7026   14.8387   23.6785 H   0  0  0  0  0  0  0  0  0  0  0  0
   12.9851   15.5550   22.0967 H   0  0  0  0  0  0  0  0  0  0  0  0
    6.0615    8.2598   25.2531 H   0  0  0  0  0  0  0  0  0  0  0  0
    5.1255    8.5449   26.7596 H   0  0  0  0  0  0  0  0  0  0  0  0
   12.4470   13.1260   21.8791 H   0  0  0  0  0  0  0  0  0  0  0  0
   11.1711   14.1134   21.1206 H   0  0  0  0  0  0  0  0  0  0  0  0
    5.9139   10.7348   26.7735 H   0  0  0  0  0  0  0  0  0  0  0  0
  1  3  2  0  0  0  0
  1  4  1  0  0  0  0
  2  3  1  0  0  0  0
  2 11  2  0  0  0  0
  3  6  1  0  0  0  0
  4  5  2  0  0  0  0
  4 15  1  0  0  0  0
  5 11  1  0  0  0  0
  5 12  1  0  0  0  0
  6 13  2  0  0  0  0
  6 14  1  0  0  0  0
  7  9  1  0  0  0  0
  8 10  1  0  0  0  0
  9 12  1  0  0  0  0
 10 14  1  0  0  0  0
  1 16  1  0  0  0  0
  2 17  1  0  0  0  0
  7 18  1  0  0  0  0
  7 19  1  0  0  0  0
  7 20  1  0  0  0  0
  8 21  1  0  0  0  0
  8 22  1  0  0  0  0
  8 23  1  0  0  0  0
  9 24  1  0  0  0  0
  9 25  1  0  0  0  0
 10 26  1  0  0  0  0
 10 27  1  0  0  0  0
 12 28  1  0  0  0  0
M  END
> <id>
EN300-6511692

> <smiles>
CCNC=1N=CC(=CC1Cl)C(=O)OCC

> <IUPAC Name>
ethyl 5-chloro-6-(ethylamino)pyridine-3-carboxylate

> <CAS>
2248301-66-6

> <URL>
https://www.enaminestore.com/catalog/EN300-6511692

> <ROCS_ShapeQuery>
_x1140_x0812_0A_x1140_0A_x1097_0A_x0365_0A_x1097_0A_x0310_0A

> <ROCS_TanimotoCombo>
0.630 

> <ROCS_ShapeTanimoto>
0.234 

> <ROCS_ColorTanimoto>
0.397 

> <ROCS_RefTversky>
0.211 

> <ROCS_RefColorTversky>
0.437 

> <ROCS_RefTverskyCombo>
0.648 

> <ROCS_FitTversky>
1.885 

> <ROCS_FitColorTversky>
0.811 

> <ROCS_FitTverskyCombo>
2.696 

> <ROCS_ColorScore>
-3.408

> <ROCS_Overlap>
2160.295

> <ROCS_Rank>
124                 

$$$$
untitled-dbase-518294_2
  -OEChem-02092423213D

 31 31  0     1  0  0  0  0  0999 V2000
    8.2104   10.5565   24.5571 C   0  0  0  0  0  0  0  0  0  0  0  0
    9.5015   10.8578   22.3995 C   0  0  0  0  0  0  0  0  0  0  0  0
    7.6231   11.5195   25.5595 C   0  0  0  0  0  0  0  0  0  0  0  0
    8.3484   12.8236   25.2662 C   0  0  0  0  0  0  0  0  0  0  0  0
    8.6454   12.7521   23.7759 C   0  0  2  0  0  0  0  0  0  0  0  0
    7.5095   13.3330   22.9347 C   0  0  0  0  0  0  0  0  0  0  0  0
   11.8054    9.8471   23.1336 C   0  0  0  0  0  0  0  0  0  0  0  0
   10.7750    7.5578   23.0516 C   0  0  0  0  0  0  0  0  0  0  0  0
   11.3362    8.7539   20.9156 C   0  0  0  0  0  0  0  0  0  0  0  0
   10.8706    8.9169   22.3618 C   0  0  0  0  0  0  0  0  0  0  0  0
    8.8129   11.3244   23.5290 N   0  0  0  0  0  0  0  0  0  0  0  0
    8.1182    9.3403   24.6431 O   0  0  0  0  0  0  0  0  0  0  0  0
   10.0002   11.5878   21.5452 O   0  0  0  0  0  0  0  0  0  0  0  0
    9.5588    9.4911   22.3564 O   0  0  0  0  0  0  0  0  0  0  0  0
    6.5471   11.6048   25.3790 H   0  0  0  0  0  0  0  0  0  0  0  0
    7.8033   11.1768   26.5814 H   0  0  0  0  0  0  0  0  0  0  0  0
    7.7578   13.6978   25.5567 H   0  0  0  0  0  0  0  0  0  0  0  0
    9.2899   12.8511   25.8292 H   0  0  0  0  0  0  0  0  0  0  0  0
    9.5740   13.2810   23.5327 H   0  0  0  0  0  0  0  0  0  0  0  0
    6.5794   12.8169   23.1656 H   0  0  0  0  0  0  0  0  0  0  0  0
    7.7341   13.2088   21.8770 H   0  0  0  0  0  0  0  0  0  0  0  0
    7.3942   14.3929   23.1538 H   0  0  0  0  0  0  0  0  0  0  0  0
   11.8767   10.8237   22.6416 H   0  0  0  0  0  0  0  0  0  0  0  0
   11.4632   10.0000   24.1623 H   0  0  0  0  0  0  0  0  0  0  0  0
   12.8231    9.4413   23.1641 H   0  0  0  0  0  0  0  0  0  0  0  0
   10.1053    6.8871   22.5012 H   0  0  0  0  0  0  0  0  0  0  0  0
   10.3517    7.6595   24.0574 H   0  0  0  0  0  0  0  0  0  0  0  0
   11.7551    7.0772   23.1349 H   0  0  0  0  0  0  0  0  0  0  0  0
   10.6658    8.0867   20.3618 H   0  0  0  0  0  0  0  0  0  0  0  0
   11.3753    9.7155   20.3937 H   0  0  0  0  0  0  0  0  0  0  0  0
   12.3309    8.2953   20.8758 H   0  0  0  0  0  0  0  0  0  0  0  0
  1  3  1  0  0  0  0
  1 11  1  0  0  0  0
  1 12  2  0  0  0  0
  2 11  1  0  0  0  0
  2 13  2  0  0  0  0
  2 14  1  0  0  0  0
  3  4  1  0  0  0  0
  4  5  1  0  0  0  0
  5  6  1  1  0  0  0
  5 11  1  0  0  0  0
  7 10  1  0  0  0  0
  8 10  1  0  0  0  0
  9 10  1  0  0  0  0
 10 14  1  0  0  0  0
  3 15  1  0  0  0  0
  3 16  1  0  0  0  0
  4 17  1  0  0  0  0
  4 18  1  0  0  0  0
  5 19  1  0  0  0  0
  6 20  1  0  0  0  0
  6 21  1  0  0  0  0
  6 22  1  0  0  0  0
  7 23  1  0  0  0  0
  7 24  1  0  0  0  0
  7 25  1  0  0  0  0
  8 26  1  0  0  0  0
  8 27  1  0  0  0  0
  8 28  1  0  0  0  0
  9 29  1  0  0  0  0
  9 30  1  0  0  0  0
  9 31  1  0  0  0  0
M  END
> <id>
EN300-8755691

> <smiles>
C[C@H]1CCC(=O)N1C(=O)OC(C)(C)C

> <MDLNUMBER>
MFCD30238164

> <IUPAC Name>
tert-butyl (2S)-2-methyl-5-oxopyrrolidine-1-carboxylate

> <CAS>
239469-76-2

> <Purity>
95

> <URL>
https://www.enaminestore.com/catalog/EN300-8755691

> <ROCS_ShapeQuery>
_x1140_x0812_0A_x1140_0A_x1097_0A_x0365_0A_x1097_0A_x0310_0A

> <ROCS_TanimotoCombo>
0.630 

> <ROCS_ShapeTanimoto>
0.207 

> <ROCS_ColorTanimoto>
0.423 

> <ROCS_RefTversky>
0.190 

> <ROCS_RefColorTversky>
0.457 

> <ROCS_RefTverskyCombo>
0.648 

> <ROCS_FitTversky>
1.746 

> <ROCS_FitColorTversky>
0.850 

> <ROCS_FitTverskyCombo>
2.596 

> <ROCS_ColorScore>
-3.568

> <ROCS_Overlap>
1949.363

> <ROCS_Rank>
125                 

$$$$
untitled-dbase-292030_8
  -OEChem-02092423213D

 31 31  0     0  0  0  0  0  0999 V2000
    8.4576   12.3490   24.0448 C   0  0  0  0  0  0  0  0  0  0  0  0
    8.7414   11.0338   23.7417 C   0  0  0  0  0  0  0  0  0  0  0  0
    7.1661   10.6967   25.2299 C   0  0  0  0  0  0  0  0  0  0  0  0
    9.7670   10.6177   22.7521 C   0  0  0  0  0  0  0  0  0  0  0  0
    4.6256    8.6151   25.0147 C   0  0  0  0  0  0  0  0  0  0  0  0
   12.4608    9.9049   22.1709 C   0  0  0  0  0  0  0  0  0  0  0  0
   11.7726    7.5671   22.7795 C   0  0  0  0  0  0  0  0  0  0  0  0
   10.6894    8.7223   20.8300 C   0  0  0  0  0  0  0  0  0  0  0  0
    5.8431    8.6812   25.8726 C   0  0  0  0  0  0  0  0  0  0  0  0
   11.3044    8.9073   22.2165 C   0  0  0  0  0  0  0  0  0  0  0  0
    8.0020   10.0849   24.4206 N   0  0  0  0  0  0  0  0  0  0  0  0
    6.2883   10.0587   26.0491 N   0  0  0  0  0  0  0  0  0  0  0  0
   10.0668   11.2877   21.7761 O   0  0  0  0  0  0  0  0  0  0  0  0
   10.3000    9.4157   23.0953 O   0  0  0  0  0  0  0  0  0  0  0  0
    7.2150   12.4121   25.2251 S   0  0  0  0  0  0  0  0  0  0  0  0
    8.9000   13.2502   23.6436 H   0  0  0  0  0  0  0  0  0  0  0  0
    4.8485    9.0451   24.0271 H   0  0  0  0  0  0  0  0  0  0  0  0
    4.3170    7.5659   24.8965 H   0  0  0  0  0  0  0  0  0  0  0  0
    3.8125    9.1853   25.4878 H   0  0  0  0  0  0  0  0  0  0  0  0
   12.1288   10.8682   21.7674 H   0  0  0  0  0  0  0  0  0  0  0  0
   12.8880   10.0730   23.1649 H   0  0  0  0  0  0  0  0  0  0  0  0
   13.2576    9.5499   21.5073 H   0  0  0  0  0  0  0  0  0  0  0  0
   10.9460    6.8482   22.8140 H   0  0  0  0  0  0  0  0  0  0  0  0
   12.1273    7.6794   23.8104 H   0  0  0  0  0  0  0  0  0  0  0  0
   12.5811    7.1372   22.1795 H   0  0  0  0  0  0  0  0  0  0  0  0
    9.8598    8.0067   20.8625 H   0  0  0  0  0  0  0  0  0  0  0  0
   10.3143    9.6681   20.4257 H   0  0  0  0  0  0  0  0  0  0  0  0
   11.4250    8.3113   20.1292 H   0  0  0  0  0  0  0  0  0  0  0  0
    5.6121    8.2495   26.8577 H   0  0  0  0  0  0  0  0  0  0  0  0
    6.6486    8.1015   25.3980 H   0  0  0  0  0  0  0  0  0  0  0  0
    5.8949   10.5582   26.8550 H   0  0  0  0  0  0  0  0  0  0  0  0
  1  2  2  0  0  0  0
  1 15  1  0  0  0  0
  2  4  1  0  0  0  0
  2 11  1  0  0  0  0
  3 11  2  0  0  0  0
  3 12  1  0  0  0  0
  3 15  1  0  0  0  0
  4 13  2  0  0  0  0
  4 14  1  0  0  0  0
  5  9  1  0  0  0  0
  6 10  1  0  0  0  0
  7 10  1  0  0  0  0
  8 10  1  0  0  0  0
  9 12  1  0  0  0  0
 10 14  1  0  0  0  0
  1 16  1  0  0  0  0
  5 17  1  0  0  0  0
  5 18  1  0  0  0  0
  5 19  1  0  0  0  0
  6 20  1  0  0  0  0
  6 21  1  0  0  0  0
  6 22  1  0  0  0  0
  7 23  1  0  0  0  0
  7 24  1  0  0  0  0
  7 25  1  0  0  0  0
  8 26  1  0  0  0  0
  8 27  1  0  0  0  0
  8 28  1  0  0  0  0
  9 29  1  0  0  0  0
  9 30  1  0  0  0  0
 12 31  1  0  0  0  0
M  END
> <id>
EN300-6508584

> <smiles>
CCNC1=NC(=CS1)C(=O)OC(C)(C)C

> <IUPAC Name>
tert-butyl 2-(ethylamino)-1,3-thiazole-4-carboxylate

> <CAS>
2248319-09-5

> <URL>
https://www.enaminestore.com/catalog/EN300-6508584

> <ROCS_ShapeQuery>
_x1140_x0812_0A_x1140_0A_x1097_0A_x0365_0A_x1097_0A_x0310_0A

> <ROCS_TanimotoCombo>
0.630 

> <ROCS_ShapeTanimoto>
0.202 

> <ROCS_ColorTanimoto>
0.428 

> <ROCS_RefTversky>
0.187 

> <ROCS_RefColorTversky>
0.497 

> <ROCS_RefTverskyCombo>
0.683 

> <ROCS_FitTversky>
1.676 

> <ROCS_FitColorTversky>
0.757 

> <ROCS_FitTverskyCombo>
2.433 

> <ROCS_ColorScore>
-3.899

> <ROCS_Overlap>
1912.748

> <ROCS_Rank>
126                 

$$$$
untitled-dbase-16774_0
  -OEChem-02092423213D

 22 23  0     0  0  0  0  0  0999 V2000
    8.5524   12.6143   24.2119 C   0  0  0  0  0  0  0  0  0  0  0  0
    7.4492   10.7896   25.2450 C   0  0  0  0  0  0  0  0  0  0  0  0
    7.5644   12.1545   25.0719 C   0  0  0  0  0  0  0  0  0  0  0  0
    9.3961   11.7108   23.5592 C   0  0  0  0  0  0  0  0  0  0  0  0
    9.1856   10.3386   23.7727 C   0  0  0  0  0  0  0  0  0  0  0  0
   11.3936   11.2201   22.2420 C   0  0  0  0  0  0  0  0  0  0  0  0
   10.7734    9.8548   21.9679 C   0  0  0  0  0  0  0  0  0  0  0  0
    6.6645   13.1003   25.7834 C   0  0  0  0  0  0  0  0  0  0  0  0
    8.2303    9.8801   24.6214 N   0  0  0  0  0  0  0  0  0  0  0  0
   10.3873   12.1602   22.6968 N   0  0  0  0  0  0  0  0  0  0  0  0
    9.9826    9.4158   23.1003 N   0  0  0  0  0  0  0  0  0  0  0  0
    8.6756   13.6836   24.0531 H   0  0  0  0  0  0  0  0  0  0  0  0
    6.7015   10.3660   25.9084 H   0  0  0  0  0  0  0  0  0  0  0  0
   12.1766   11.1309   23.0049 H   0  0  0  0  0  0  0  0  0  0  0  0
   11.8682   11.6056   21.3335 H   0  0  0  0  0  0  0  0  0  0  0  0
   10.1360    9.9025   21.0765 H   0  0  0  0  0  0  0  0  0  0  0  0
   11.5593    9.1195   21.7654 H   0  0  0  0  0  0  0  0  0  0  0  0
    5.7670   13.3049   25.1840 H   0  0  0  0  0  0  0  0  0  0  0  0
    6.3448   12.6985   26.7555 H   0  0  0  0  0  0  0  0  0  0  0  0
    7.1665   14.0567   25.9891 H   0  0  0  0  0  0  0  0  0  0  0  0
   10.5628   13.1545   22.6166 H   0  0  0  0  0  0  0  0  0  0  0  0
    9.8058    8.4299   23.2460 H   0  0  0  0  0  0  0  0  0  0  0  0
  1  3  2  0  0  0  0
  1  4  1  0  0  0  0
  2  3  1  0  0  0  0
  2  9  2  0  0  0  0
  3  8  1  0  0  0  0
  4  5  2  0  0  0  0
  4 10  1  0  0  0  0
  5  9  1  0  0  0  0
  5 11  1  0  0  0  0
  6  7  1  0  0  0  0
  6 10  1  0  0  0  0
  7 11  1  0  0  0  0
  1 12  1  0  0  0  0
  2 13  1  0  0  0  0
  6 14  1  0  0  0  0
  6 15  1  0  0  0  0
  7 16  1  0  0  0  0
  7 17  1  0  0  0  0
  8 18  1  0  0  0  0
  8 19  1  0  0  0  0
  8 20  1  0  0  0  0
 10 21  1  0  0  0  0
 11 22  1  0  0  0  0
M  END
> <id>
EN300-104577

> <smiles>
CC=1C=NC=2NCCNC2C1

> <MDLNUMBER>
MFCD18252983

> <IUPAC Name>
7-methyl-1H,2H,3H,4H-pyrido[2,3-b]pyrazine

> <CAS>
1378818-55-3

> <Purity>
95

> <URL>
https://www.enaminestore.com/catalog/EN300-104577

> <ROCS_ShapeQuery>
_x1140_x0812_0A_x1140_0A_x1097_0A_x0365_0A_x1097_0A_x0310_0A

> <ROCS_TanimotoCombo>
0.630 

> <ROCS_ShapeTanimoto>
0.223 

> <ROCS_ColorTanimoto>
0.407 

> <ROCS_RefTversky>
0.200 

> <ROCS_RefColorTversky>
0.479 

> <ROCS_RefTverskyCombo>
0.679 

> <ROCS_FitTversky>
2.036 

> <ROCS_FitColorTversky>
0.729 

> <ROCS_FitTverskyCombo>
2.765 

> <ROCS_ColorScore>
-3.760

> <ROCS_Overlap>
2053.818

> <ROCS_Rank>
127                 

$$$$
untitled-dbase-140231_3
  -OEChem-02092423213D

 24 25  0     0  0  0  0  0  0999 V2000
    7.6288   12.0092   25.2466 C   0  0  0  0  0  0  0  0  0  0  0  0
    8.7546   12.4295   24.5681 C   0  0  0  0  0  0  0  0  0  0  0  0
    7.3651   10.6561   25.1850 C   0  0  0  0  0  0  0  0  0  0  0  0
    9.2036   10.3052   23.8951 C   0  0  0  0  0  0  0  0  0  0  0  0
    4.4947   10.5329   27.7180 C   0  0  0  0  0  0  0  0  0  0  0  0
    5.6446   11.4479   28.0228 C   0  0  0  0  0  0  0  0  0  0  0  0
    5.3501   11.0612   26.5996 C   0  0  0  0  0  0  0  0  0  0  0  0
   11.1980    9.8295   22.4732 C   0  0  0  0  0  0  0  0  0  0  0  0
    9.5675   11.6016   23.8795 N   0  0  0  0  0  0  0  0  0  0  0  0
    8.1339    9.7721   24.5158 N   0  0  0  0  0  0  0  0  0  0  0  0
    6.2461   10.1964   25.8494 N   0  0  0  0  0  0  0  0  0  0  0  0
   10.0307    9.4095   23.1833 N   0  0  0  0  0  0  0  0  0  0  0  0
    7.0014   12.7074   25.7866 H   0  0  0  0  0  0  0  0  0  0  0  0
    9.0429   13.4753   24.5579 H   0  0  0  0  0  0  0  0  0  0  0  0
    4.5938    9.4907   27.9954 H   0  0  0  0  0  0  0  0  0  0  0  0
    3.4925   10.9312   27.8174 H   0  0  0  0  0  0  0  0  0  0  0  0
    5.4162   12.4618   28.3274 H   0  0  0  0  0  0  0  0  0  0  0  0
    6.5149   11.0187   28.5039 H   0  0  0  0  0  0  0  0  0  0  0  0
    4.9099   11.8244   25.9673 H   0  0  0  0  0  0  0  0  0  0  0  0
   11.3224   10.9171   22.5818 H   0  0  0  0  0  0  0  0  0  0  0  0
   12.0807    9.3169   22.8833 H   0  0  0  0  0  0  0  0  0  0  0  0
   11.0895    9.5775   21.4080 H   0  0  0  0  0  0  0  0  0  0  0  0
    6.0295    9.2111   25.8209 H   0  0  0  0  0  0  0  0  0  0  0  0
    9.7647    8.4435   23.1914 H   0  0  0  0  0  0  0  0  0  0  0  0
  1  2  1  0  0  0  0
  1  3  2  0  0  0  0
  2  9  2  0  0  0  0
  3 10  1  0  0  0  0
  3 11  1  0  0  0  0
  4  9  1  0  0  0  0
  4 10  2  0  0  0  0
  4 12  1  0  0  0  0
  5  6  1  0  0  0  0
  5  7  1  0  0  0  0
  6  7  1  0  0  0  0
  7 11  1  0  0  0  0
  8 12  1  0  0  0  0
  1 13  1  0  0  0  0
  2 14  1  0  0  0  0
  5 15  1  0  0  0  0
  5 16  1  0  0  0  0
  6 17  1  0  0  0  0
  6 18  1  0  0  0  0
  7 19  1  0  0  0  0
  8 20  1  0  0  0  0
  8 21  1  0  0  0  0
  8 22  1  0  0  0  0
 11 23  1  0  0  0  0
 12 24  1  0  0  0  0
M  END
> <id>
EN300-1242799

> <smiles>
CNC=1N=CC=C(NC2CC2)N1

> <MDLNUMBER>
MFCD23982600

> <IUPAC Name>
N4-cyclopropyl-N2-methylpyrimidine-2,4-diamine

> <CAS>
1505127-73-0

> <Purity>
95

> <URL>
https://www.enaminestore.com/catalog/EN300-1242799

> <ROCS_ShapeQuery>
_x1140_x0812_0A_x1140_0A_x1097_0A_x0365_0A_x1097_0A_x0310_0A

> <ROCS_TanimotoCombo>
0.630 

> <ROCS_ShapeTanimoto>
0.208 

> <ROCS_ColorTanimoto>
0.422 

> <ROCS_RefTversky>
0.189 

> <ROCS_RefColorTversky>
0.492 

> <ROCS_RefTverskyCombo>
0.681 

> <ROCS_FitTversky>
1.865 

> <ROCS_FitColorTversky>
0.749 

> <ROCS_FitTverskyCombo>
2.613 

> <ROCS_ColorScore>
-3.860

> <ROCS_Overlap>
1939.746

> <ROCS_Rank>
128                 

$$$$
untitled-dbase-113722_5
  -OEChem-02092423213D

 30 30  0     0  0  0  0  0  0999 V2000
    7.7119   11.9613   25.3022 C   0  0  0  0  0  0  0  0  0  0  0  0
    8.9934   12.0389   24.8141 C   0  0  0  0  0  0  0  0  0  0  0  0
    7.3944   10.5912   25.2411 C   0  0  0  0  0  0  0  0  0  0  0  0
   12.0499    9.5326   21.9907 C   0  0  0  0  0  0  0  0  0  0  0  0
   10.2395    8.0399   22.8388 C   0  0  0  0  0  0  0  0  0  0  0  0
    9.0762   12.0341   20.3354 C   0  0  0  0  0  0  0  0  0  0  0  0
   10.6760   10.3151   23.9267 C   0  0  0  0  0  0  0  0  0  0  0  0
    9.6414   10.1164   21.5707 C   0  0  0  0  0  0  0  0  0  0  0  0
   10.6269    9.5098   22.5938 C   0  0  0  0  0  0  0  0  0  0  0  0
    8.3936    9.8516   24.7526 N   0  0  0  0  0  0  0  0  0  0  0  0
    9.3515   10.7604   24.5022 N   0  0  0  0  0  0  0  0  0  0  0  0
    6.1852   10.1274   25.6492 N   0  0  0  0  0  0  0  0  0  0  0  0
    9.9941   11.4566   21.2539 O   0  0  0  0  0  0  0  0  0  0  0  0
    7.1034   12.7840   25.6499 H   0  0  0  0  0  0  0  0  0  0  0  0
    9.6623   12.8755   24.6667 H   0  0  0  0  0  0  0  0  0  0  0  0
   12.3868   10.5560   21.7917 H   0  0  0  0  0  0  0  0  0  0  0  0
   12.0884    8.9799   21.0451 H   0  0  0  0  0  0  0  0  0  0  0  0
   12.7745    9.0727   22.6725 H   0  0  0  0  0  0  0  0  0  0  0  0
    9.2345    7.9609   23.2682 H   0  0  0  0  0  0  0  0  0  0  0  0
   10.9356    7.5611   23.5374 H   0  0  0  0  0  0  0  0  0  0  0  0
   10.2607    7.4552   21.9134 H   0  0  0  0  0  0  0  0  0  0  0  0
    9.3774   13.0611   20.1152 H   0  0  0  0  0  0  0  0  0  0  0  0
    8.0719   12.0221   20.7664 H   0  0  0  0  0  0  0  0  0  0  0  0
    9.0815   11.4494   19.4125 H   0  0  0  0  0  0  0  0  0  0  0  0
   11.3105   11.2035   23.7997 H   0  0  0  0  0  0  0  0  0  0  0  0
   11.1921    9.7166   24.6911 H   0  0  0  0  0  0  0  0  0  0  0  0
    9.6485    9.5378   20.6397 H   0  0  0  0  0  0  0  0  0  0  0  0
    8.6157   10.1109   21.9543 H   0  0  0  0  0  0  0  0  0  0  0  0
    5.4784   10.7487   26.0595 H   0  0  0  0  0  0  0  0  0  0  0  0
    5.9640    9.1249   25.6517 H   0  0  0  0  0  0  0  0  0  0  0  0
  1  2  2  0  0  0  0
  1  3  1  0  0  0  0
  2 11  1  0  0  0  0
  3 10  2  0  0  0  0
  3 12  1  0  0  0  0
  4  9  1  0  0  0  0
  5  9  1  0  0  0  0
  6 13  1  0  0  0  0
  7  9  1  0  0  0  0
  7 11  1  0  0  0  0
  8  9  1  0  0  0  0
  8 13  1  0  0  0  0
 10 11  1  0  0  0  0
  1 14  1  0  0  0  0
  2 15  1  0  0  0  0
  4 16  1  0  0  0  0
  4 17  1  0  0  0  0
  4 18  1  0  0  0  0
  5 19  1  0  0  0  0
  5 20  1  0  0  0  0
  5 21  1  0  0  0  0
  6 22  1  0  0  0  0
  6 23  1  0  0  0  0
  6 24  1  0  0  0  0
  7 25  1  0  0  0  0
  7 26  1  0  0  0  0
  8 27  1  0  0  0  0
  8 28  1  0  0  0  0
 12 29  1  0  0  0  0
 12 30  1  0  0  0  0
M  END
> <id>
EN300-1111241

> <smiles>
COCC(C)(C)CN1C=CC(N)=N1

> <IUPAC Name>
1-(3-methoxy-2,2-dimethylpropyl)-1H-pyrazol-3-amine

> <CAS>
2138243-92-0

> <URL>
https://www.enaminestore.com/catalog/EN300-1111241

> <ROCS_ShapeQuery>
_x1140_x0812_0A_x1140_0A_x1097_0A_x0365_0A_x1097_0A_x0310_0A

> <ROCS_TanimotoCombo>
0.630 

> <ROCS_ShapeTanimoto>
0.184 

> <ROCS_ColorTanimoto>
0.445 

> <ROCS_RefTversky>
0.172 

> <ROCS_RefColorTversky>
0.546 

> <ROCS_RefTverskyCombo>
0.718 

> <ROCS_FitTversky>
1.658 

> <ROCS_FitColorTversky>
0.707 

> <ROCS_FitTverskyCombo>
2.364 

> <ROCS_ColorScore>
-4.314

> <ROCS_Overlap>
1761.086

> <ROCS_Rank>
129                 

$$$$
untitled-dbase-143736_1
  -OEChem-02092423213D

 22 22  0     0  0  0  0  0  0999 V2000
    8.8670   12.5178   24.4665 C   0  0  0  0  0  0  0  0  0  0  0  0
    7.8814   10.5220   25.3044 C   0  0  0  0  0  0  0  0  0  0  0  0
    8.0870   11.8866   25.4290 C   0  0  0  0  0  0  0  0  0  0  0  0
    9.4100   11.7756   23.4235 C   0  0  0  0  0  0  0  0  0  0  0  0
    9.1454   10.4160   23.3889 C   0  0  0  0  0  0  0  0  0  0  0  0
   10.9009    8.7429   22.7521 C   0  0  0  0  0  0  0  0  0  0  0  0
    9.7011    9.5655   22.2931 C   0  0  0  0  0  0  0  0  0  0  0  0
    7.4921   12.6524   26.5570 C   0  0  0  0  0  0  0  0  0  0  0  0
    8.3923    9.7678   24.3056 N   0  0  0  0  0  0  0  0  0  0  0  0
   10.2011   12.4043   22.4453 N   0  0  0  0  0  0  0  0  0  0  0  0
    7.7898   13.9870   26.5351 F   0  0  0  0  0  0  0  0  0  0  0  0
    6.1265   12.5966   26.6008 F   0  0  0  0  0  0  0  0  0  0  0  0
    7.9125   12.2073   27.7785 F   0  0  0  0  0  0  0  0  0  0  0  0
    9.0495   13.5879   24.5306 H   0  0  0  0  0  0  0  0  0  0  0  0
    7.2828    9.9753   26.0264 H   0  0  0  0  0  0  0  0  0  0  0  0
   11.6939    9.3885   23.1446 H   0  0  0  0  0  0  0  0  0  0  0  0
   11.3145    8.1661   21.9190 H   0  0  0  0  0  0  0  0  0  0  0  0
   10.6171    8.0405   23.5432 H   0  0  0  0  0  0  0  0  0  0  0  0
    8.9248    8.8880   21.9054 H   0  0  0  0  0  0  0  0  0  0  0  0
    9.9976   10.1918   21.4376 H   0  0  0  0  0  0  0  0  0  0  0  0
   10.3302   13.3972   22.4807 H   0  0  0  0  0  0  0  0  0  0  0  0
   10.5473   11.8675   21.6735 H   0  0  0  0  0  0  0  0  0  0  0  0
  1  3  2  0  0  0  0
  1  4  1  0  0  0  0
  2  3  1  0  0  0  0
  2  9  2  0  0  0  0
  3  8  1  0  0  0  0
  4  5  2  0  0  0  0
  4 10  1  0  0  0  0
  5  7  1  0  0  0  0
  5  9  1  0  0  0  0
  6  7  1  0  0  0  0
  8 11  1  0  0  0  0
  8 12  1  0  0  0  0
  8 13  1  0  0  0  0
  1 14  1  0  0  0  0
  2 15  1  0  0  0  0
  6 16  1  0  0  0  0
  6 17  1  0  0  0  0
  6 18  1  0  0  0  0
  7 19  1  0  0  0  0
  7 20  1  0  0  0  0
 10 21  1  0  0  0  0
 10 22  1  0  0  0  0
M  END
> <id>
EN300-1622636

> <smiles>
CCC=1N=CC(=CC1N)C(F)(F)F

> <MDLNUMBER>
MFCD18257673

> <IUPAC Name>
2-ethyl-5-(trifluoromethyl)pyridin-3-amine

> <CAS>
1211541-65-9

> <URL>
https://www.enaminestore.com/catalog/EN300-1622636

> <ROCS_ShapeQuery>
_x1140_x0812_0A_x1140_0A_x1097_0A_x0365_0A_x1097_0A_x0310_0A

> <ROCS_TanimotoCombo>
0.629 

> <ROCS_ShapeTanimoto>
0.219 

> <ROCS_ColorTanimoto>
0.410 

> <ROCS_RefTversky>
0.199 

> <ROCS_RefColorTversky>
0.482 

> <ROCS_RefTverskyCombo>
0.681 

> <ROCS_FitTversky>
1.880 

> <ROCS_FitColorTversky>
0.734 

> <ROCS_FitTverskyCombo>
2.614 

> <ROCS_ColorScore>
-3.782

> <ROCS_Overlap>
2037.663

> <ROCS_Rank>
130                 

$$$$
untitled-dbase-391356_6
  -OEChem-02092423213D

 27 27  0     0  0  0  0  0  0999 V2000
    8.3818   12.3406   24.1782 C   0  0  0  0  0  0  0  0  0  0  0  0
    9.1888   11.4679   23.4770 C   0  0  0  0  0  0  0  0  0  0  0  0
    8.9615   10.1269   23.7094 C   0  0  0  0  0  0  0  0  0  0  0  0
    7.2994   10.6122   25.1821 C   0  0  0  0  0  0  0  0  0  0  0  0
   10.2036   11.9595   22.5610 C   0  0  0  0  0  0  0  0  0  0  0  0
   13.0805   14.1299   23.2821 C   0  0  0  0  0  0  0  0  0  0  0  0
    5.4643   11.0532   26.8142 C   0  0  0  0  0  0  0  0  0  0  0  0
   12.1757   13.2951   22.4011 C   0  0  0  0  0  0  0  0  0  0  0  0
    9.7739    9.0886   23.0076 C   0  0  0  0  0  0  0  0  0  0  0  0
    7.4236   11.9457   25.0420 N   0  0  0  0  0  0  0  0  0  0  0  0
    8.0218    9.6619   24.5586 N   0  0  0  0  0  0  0  0  0  0  0  0
    6.3062   10.1621   26.0792 N   0  0  0  0  0  0  0  0  0  0  0  0
   10.2393   11.7024   21.3494 O   0  0  0  0  0  0  0  0  0  0  0  0
   11.1219   12.7476   23.2008 O   0  0  0  0  0  0  0  0  0  0  0  0
    9.6107    9.1776   21.6621 F   0  0  0  0  0  0  0  0  0  0  0  0
    9.3718    7.8412   23.3642 F   0  0  0  0  0  0  0  0  0  0  0  0
    8.4795   13.4163   24.0679 H   0  0  0  0  0  0  0  0  0  0  0  0
   12.5266   14.9536   23.7409 H   0  0  0  0  0  0  0  0  0  0  0  0
   13.5215   13.5159   24.0743 H   0  0  0  0  0  0  0  0  0  0  0  0
   13.9110   14.5434   22.7003 H   0  0  0  0  0  0  0  0  0  0  0  0
    5.7209   12.0926   26.5620 H   0  0  0  0  0  0  0  0  0  0  0  0
    4.4127   10.8618   26.5545 H   0  0  0  0  0  0  0  0  0  0  0  0
    5.6112   10.8907   27.8922 H   0  0  0  0  0  0  0  0  0  0  0  0
   12.7358   12.4730   21.9454 H   0  0  0  0  0  0  0  0  0  0  0  0
   11.7353   13.9102   21.6107 H   0  0  0  0  0  0  0  0  0  0  0  0
   10.8393    9.1751   23.2251 H   0  0  0  0  0  0  0  0  0  0  0  0
    6.2093    9.1709   26.1874 H   0  0  0  0  0  0  0  0  0  0  0  0
  1  2  1  0  0  0  0
  1 10  2  0  0  0  0
  2  3  2  0  0  0  0
  2  5  1  0  0  0  0
  3  9  1  0  0  0  0
  3 11  1  0  0  0  0
  4 10  1  0  0  0  0
  4 11  2  0  0  0  0
  4 12  1  0  0  0  0
  5 13  2  0  0  0  0
  5 14  1  0  0  0  0
  6  8  1  0  0  0  0
  7 12  1  0  0  0  0
  8 14  1  0  0  0  0
  9 15  1  0  0  0  0
  9 16  1  0  0  0  0
  1 17  1  0  0  0  0
  6 18  1  0  0  0  0
  6 19  1  0  0  0  0
  6 20  1  0  0  0  0
  7 21  1  0  0  0  0
  7 22  1  0  0  0  0
  7 23  1  0  0  0  0
  8 24  1  0  0  0  0
  8 25  1  0  0  0  0
  9 26  1  0  0  0  0
 12 27  1  0  0  0  0
M  END
> <id>
EN300-685409

> <smiles>
CCOC(=O)C=1C=NC(NC)=NC1C(F)F

> <MDLNUMBER>
MFCD31428043

> <IUPAC Name>
ethyl 4-(difluoromethyl)-2-(methylamino)pyrimidine-5-carboxylate

> <CAS>
1599111-55-3

> <URL>
https://www.enaminestore.com/catalog/EN300-685409

> <ROCS_ShapeQuery>
_x1140_x0812_0A_x1140_0A_x1097_0A_x0365_0A_x1097_0A_x0310_0A

> <ROCS_TanimotoCombo>
0.629 

> <ROCS_ShapeTanimoto>
0.270 

> <ROCS_ColorTanimoto>
0.360 

> <ROCS_RefTversky>
0.238 

> <ROCS_RefColorTversky>
0.438 

> <ROCS_RefTverskyCombo>
0.676 

> <ROCS_FitTversky>
2.007 

> <ROCS_FitColorTversky>
0.667 

> <ROCS_FitTverskyCombo>
2.674 

> <ROCS_ColorScore>
-3.440

> <ROCS_Overlap>
2437.147

> <ROCS_Rank>
131                 

$$$$
untitled-dbase-82085_0
  -OEChem-02092423213D

 20 20  0     0  0  0  0  0  0999 V2000
    7.5247   11.9822   25.3930 C   0  0  0  0  0  0  0  0  0  0  0  0
    8.5577   12.5006   24.6200 C   0  0  0  0  0  0  0  0  0  0  0  0
    7.3403   10.6090   25.3922 C   0  0  0  0  0  0  0  0  0  0  0  0
    9.3633   11.6421   23.8803 C   0  0  0  0  0  0  0  0  0  0  0  0
    9.0967   10.2840   23.9474 C   0  0  0  0  0  0  0  0  0  0  0  0
    9.7296    7.9909   23.1948 C   0  0  0  0  0  0  0  0  0  0  0  0
   10.4700   12.2019   23.0529 C   0  0  0  0  0  0  0  0  0  0  0  0
    8.1023    9.7434   24.6868 N   0  0  0  0  0  0  0  0  0  0  0  0
    9.9159    9.4052   23.1959 N   0  0  0  0  0  0  0  0  0  0  0  0
   10.2621   11.8562   21.6888 O   0  0  0  0  0  0  0  0  0  0  0  0
    6.8846   12.6326   25.9779 H   0  0  0  0  0  0  0  0  0  0  0  0
    8.7266   13.5738   24.6008 H   0  0  0  0  0  0  0  0  0  0  0  0
    6.5479   10.1542   25.9777 H   0  0  0  0  0  0  0  0  0  0  0  0
    8.8818    7.7317   23.8459 H   0  0  0  0  0  0  0  0  0  0  0  0
    9.5224    7.6493   22.1699 H   0  0  0  0  0  0  0  0  0  0  0  0
   10.6412    7.5008   23.5674 H   0  0  0  0  0  0  0  0  0  0  0  0
   10.5173   13.2967   23.1338 H   0  0  0  0  0  0  0  0  0  0  0  0
   11.4441   11.8066   23.3724 H   0  0  0  0  0  0  0  0  0  0  0  0
   10.6454    9.8246   22.6565 H   0  0  0  0  0  0  0  0  0  0  0  0
   11.0009   12.2382   21.1886 H   0  0  0  0  0  0  0  0  0  0  0  0
  1  2  2  0  0  0  0
  1  3  1  0  0  0  0
  2  4  1  0  0  0  0
  3  8  2  0  0  0  0
  4  5  2  0  0  0  0
  4  7  1  0  0  0  0
  5  8  1  0  0  0  0
  5  9  1  0  0  0  0
  6  9  1  0  0  0  0
  7 10  1  0  0  0  0
  1 11  1  0  0  0  0
  2 12  1  0  0  0  0
  3 13  1  0  0  0  0
  6 14  1  0  0  0  0
  6 15  1  0  0  0  0
  6 16  1  0  0  0  0
  7 17  1  0  0  0  0
  7 18  1  0  0  0  0
  9 19  1  0  0  0  0
 10 20  1  0  0  0  0
M  END
> <id>
EN300-1212388

> <smiles>
CNC=1N=CC=CC1CO

> <MDLNUMBER>
MFCD06254696

> <IUPAC Name>
[2-(methylamino)pyridin-3-yl]methanol

> <CAS>
32399-12-5

> <Purity>
95

> <URL>
https://www.enaminestore.com/catalog/EN300-1212388

> <MP>
104-105

> <ROCS_ShapeQuery>
_x1140_x0812_0A_x1140_0A_x1097_0A_x0365_0A_x1097_0A_x0310_0A

> <ROCS_TanimotoCombo>
0.629 

> <ROCS_ShapeTanimoto>
0.204 

> <ROCS_ColorTanimoto>
0.425 

> <ROCS_RefTversky>
0.185 

> <ROCS_RefColorTversky>
0.494 

> <ROCS_RefTverskyCombo>
0.679 

> <ROCS_FitTversky>
2.002 

> <ROCS_FitColorTversky>
0.753 

> <ROCS_FitTverskyCombo>
2.755 

> <ROCS_ColorScore>
-3.880

> <ROCS_Overlap>
1895.849

> <ROCS_Rank>
132                 

$$$$
untitled-dbase-26993_0
  -OEChem-02092423213D

 19 20  0     0  0  0  0  0  0999 V2000
    8.5542   12.6188   24.2077 C   0  0  0  0  0  0  0  0  0  0  0  0
    7.5648   12.1613   25.0673 C   0  0  0  0  0  0  0  0  0  0  0  0
    9.3978   11.7134   23.5573 C   0  0  0  0  0  0  0  0  0  0  0  0
    9.1857   10.3417   23.7727 C   0  0  0  0  0  0  0  0  0  0  0  0
    7.4481   10.7967   25.2424 C   0  0  0  0  0  0  0  0  0  0  0  0
   11.3962   11.2187   22.2432 C   0  0  0  0  0  0  0  0  0  0  0  0
   10.7750    9.8536   21.9705 C   0  0  0  0  0  0  0  0  0  0  0  0
    8.2290    9.8855   24.6211 N   0  0  0  0  0  0  0  0  0  0  0  0
   10.3904   12.1605   22.6954 N   0  0  0  0  0  0  0  0  0  0  0  0
    9.9825    9.4172   23.1026 N   0  0  0  0  0  0  0  0  0  0  0  0
    6.2611   10.1341   26.2886 Cl  0  0  0  0  0  0  0  0  0  0  0  0
    8.6716   13.6887   24.0536 H   0  0  0  0  0  0  0  0  0  0  0  0
    6.9147   12.8631   25.5789 H   0  0  0  0  0  0  0  0  0  0  0  0
   12.1784   11.1298   23.0070 H   0  0  0  0  0  0  0  0  0  0  0  0
   11.8727   11.6026   21.3350 H   0  0  0  0  0  0  0  0  0  0  0  0
   10.1388    9.9009   21.0783 H   0  0  0  0  0  0  0  0  0  0  0  0
   11.5604    9.1175   21.7696 H   0  0  0  0  0  0  0  0  0  0  0  0
   10.5671   13.1545   22.6151 H   0  0  0  0  0  0  0  0  0  0  0  0
    9.8050    8.4316   23.2500 H   0  0  0  0  0  0  0  0  0  0  0  0
  1  2  2  0  0  0  0
  1  3  1  0  0  0  0
  2  5  1  0  0  0  0
  3  4  2  0  0  0  0
  3  9  1  0  0  0  0
  4  8  1  0  0  0  0
  4 10  1  0  0  0  0
  5  8  2  0  0  0  0
  5 11  1  0  0  0  0
  6  7  1  0  0  0  0
  6  9  1  0  0  0  0
  7 10  1  0  0  0  0
  1 12  1  0  0  0  0
  2 13  1  0  0  0  0
  6 14  1  0  0  0  0
  6 15  1  0  0  0  0
  7 16  1  0  0  0  0
  7 17  1  0  0  0  0
  9 18  1  0  0  0  0
 10 19  1  0  0  0  0
M  END
> <id>
EN300-135407

> <smiles>
ClC=1C=CC=2NCCNC2N1

> <MDLNUMBER>
MFCD08062760

> <IUPAC Name>
6-chloro-1H,2H,3H,4H-pyrido[2,3-b]pyrazine

> <CAS>
1210129-64-8

> <Purity>
95

> <URL>
https://www.enaminestore.com/catalog/EN300-135407

> <ROCS_ShapeQuery>
_x1140_x0812_0A_x1140_0A_x1097_0A_x0365_0A_x1097_0A_x0310_0A

> <ROCS_TanimotoCombo>
0.629 

> <ROCS_ShapeTanimoto>
0.223 

> <ROCS_ColorTanimoto>
0.407 

> <ROCS_RefTversky>
0.200 

> <ROCS_RefColorTversky>
0.479 

> <ROCS_RefTverskyCombo>
0.679 

> <ROCS_FitTversky>
2.043 

> <ROCS_FitColorTversky>
0.729 

> <ROCS_FitTverskyCombo>
2.772 

> <ROCS_ColorScore>
-3.759

> <ROCS_Overlap>
2049.748

> <ROCS_Rank>
133                 

$$$$
untitled-dbase-134824_6
  -OEChem-02092423213D

 23 23  0     0  0  0  0  0  0999 V2000
    8.8273   12.5862   24.3577 C   0  0  0  0  0  0  0  0  0  0  0  0
    7.9747   12.1252   25.3547 C   0  0  0  0  0  0  0  0  0  0  0  0
    9.3525   11.6919   23.4316 C   0  0  0  0  0  0  0  0  0  0  0  0
    8.9970   10.3575   23.5448 C   0  0  0  0  0  0  0  0  0  0  0  0
    7.6807   10.7715   25.3817 C   0  0  0  0  0  0  0  0  0  0  0  0
   11.3485    8.2609   23.6129 C   0  0  0  0  0  0  0  0  0  0  0  0
   11.3206    8.9298   21.1832 C   0  0  0  0  0  0  0  0  0  0  0  0
   10.9083    9.3052   22.5984 C   0  0  0  0  0  0  0  0  0  0  0  0
    8.1717    9.8725   24.4994 N   0  0  0  0  0  0  0  0  0  0  0  0
   10.2165   12.1443   22.4185 N   0  0  0  0  0  0  0  0  0  0  0  0
    9.4917    9.4439   22.6530 O   0  0  0  0  0  0  0  0  0  0  0  0
    6.8589   10.3137   26.3387 F   0  0  0  0  0  0  0  0  0  0  0  0
    9.0760   13.6432   24.3125 H   0  0  0  0  0  0  0  0  0  0  0  0
    7.5535   12.8052   26.0862 H   0  0  0  0  0  0  0  0  0  0  0  0
   10.9295    7.2777   23.3781 H   0  0  0  0  0  0  0  0  0  0  0  0
   12.4408    8.1813   23.6282 H   0  0  0  0  0  0  0  0  0  0  0  0
   11.0398    8.5406   24.6263 H   0  0  0  0  0  0  0  0  0  0  0  0
   10.9009    7.9625   20.8905 H   0  0  0  0  0  0  0  0  0  0  0  0
   12.4118    8.8757   21.1058 H   0  0  0  0  0  0  0  0  0  0  0  0
   10.9914    9.6868   20.4629 H   0  0  0  0  0  0  0  0  0  0  0  0
   11.3431   10.2753   22.8605 H   0  0  0  0  0  0  0  0  0  0  0  0
   10.4133   13.1237   22.3407 H   0  0  0  0  0  0  0  0  0  0  0  0
   10.5494   11.4964   21.7304 H   0  0  0  0  0  0  0  0  0  0  0  0
  1  2  2  0  0  0  0
  1  3  1  0  0  0  0
  2  5  1  0  0  0  0
  3  4  2  0  0  0  0
  3 10  1  0  0  0  0
  4  9  1  0  0  0  0
  4 11  1  0  0  0  0
  5  9  2  0  0  0  0
  5 12  1  0  0  0  0
  6  8  1  0  0  0  0
  7  8  1  0  0  0  0
  8 11  1  0  0  0  0
  1 13  1  0  0  0  0
  2 14  1  0  0  0  0
  6 15  1  0  0  0  0
  6 16  1  0  0  0  0
  6 17  1  0  0  0  0
  7 18  1  0  0  0  0
  7 19  1  0  0  0  0
  7 20  1  0  0  0  0
  8 21  1  0  0  0  0
 10 22  1  0  0  0  0
 10 23  1  0  0  0  0
M  END
> <id>
EN300-1295730

> <smiles>
CC(C)OC=1N=C(F)C=CC1N

> <IUPAC Name>
6-fluoro-2-(propan-2-yloxy)pyridin-3-amine

> <CAS>
2152926-21-9

> <URL>
https://www.enaminestore.com/catalog/EN300-1295730

> <ROCS_ShapeQuery>
_x1140_x0812_0A_x1140_0A_x1097_0A_x0365_0A_x1097_0A_x0310_0A

> <ROCS_TanimotoCombo>
0.629 

> <ROCS_ShapeTanimoto>
0.217 

> <ROCS_ColorTanimoto>
0.413 

> <ROCS_RefTversky>
0.196 

> <ROCS_RefColorTversky>
0.518 

> <ROCS_RefTverskyCombo>
0.714 

> <ROCS_FitTversky>
1.941 

> <ROCS_FitColorTversky>
0.670 

> <ROCS_FitTverskyCombo>
2.610 

> <ROCS_ColorScore>
-4.092

> <ROCS_Overlap>
2009.105

> <ROCS_Rank>
134                 

$$$$
untitled-dbase-560436_9
  -OEChem-02092423213D

 31 31  0     0  0  0  0  0  0999 V2000
    7.0342   13.1174   26.2378 B   0  0  0  0  0  0  0  0  0  0  0  0
    8.3591   12.2888   24.1145 C   0  0  0  0  0  0  0  0  0  0  0  0
    7.6781   12.0691   25.2868 C   0  0  0  0  0  0  0  0  0  0  0  0
    8.7192   11.0024   23.6703 C   0  0  0  0  0  0  0  0  0  0  0  0
    9.4757   10.6496   22.4424 C   0  0  0  0  0  0  0  0  0  0  0  0
   11.6711    9.2703   23.6173 C   0  0  0  0  0  0  0  0  0  0  0  0
   10.9373    7.3110   22.2274 C   0  0  0  0  0  0  0  0  0  0  0  0
   11.6816    9.4313   21.1056 C   0  0  0  0  0  0  0  0  0  0  0  0
    7.0821    9.9647   26.5534 C   0  0  0  0  0  0  0  0  0  0  0  0
   10.9813    8.8343   22.3254 C   0  0  0  0  0  0  0  0  0  0  0  0
    8.3016   10.0370   24.4934 N   0  0  0  0  0  0  0  0  0  0  0  0
    7.6722   10.7171   25.4667 N   0  0  0  0  0  0  0  0  0  0  0  0
    9.8868   11.4803   21.6471 O   0  0  0  0  0  0  0  0  0  0  0  0
    7.0981   14.4612   25.9618 O   0  0  0  0  0  0  0  0  0  0  0  0
    6.3942   12.6837   27.3742 O   0  0  0  0  0  0  0  0  0  0  0  0
    9.6325    9.3030   22.3499 O   0  0  0  0  0  0  0  0  0  0  0  0
    8.5708   13.2378   23.6397 H   0  0  0  0  0  0  0  0  0  0  0  0
   11.7047   10.3632   23.6914 H   0  0  0  0  0  0  0  0  0  0  0  0
   11.1578    8.8775   24.5010 H   0  0  0  0  0  0  0  0  0  0  0  0
   12.7116    8.9269   23.6401 H   0  0  0  0  0  0  0  0  0  0  0  0
   10.4432    6.9937   21.3020 H   0  0  0  0  0  0  0  0  0  0  0  0
   10.3539    6.8836   23.0509 H   0  0  0  0  0  0  0  0  0  0  0  0
   11.9414    6.8754   22.2512 H   0  0  0  0  0  0  0  0  0  0  0  0
   11.1870    9.1187   20.1788 H   0  0  0  0  0  0  0  0  0  0  0  0
   11.6900   10.5255   21.1407 H   0  0  0  0  0  0  0  0  0  0  0  0
   12.7166    9.0770   21.0384 H   0  0  0  0  0  0  0  0  0  0  0  0
    6.0527    9.7227   26.2762 H   0  0  0  0  0  0  0  0  0  0  0  0
    7.6587    9.0502   26.7183 H   0  0  0  0  0  0  0  0  0  0  0  0
    7.1018   10.5696   27.4643 H   0  0  0  0  0  0  0  0  0  0  0  0
    6.6611   15.0181   26.6267 H   0  0  0  0  0  0  0  0  0  0  0  0
    6.0356   13.4303   27.8828 H   0  0  0  0  0  0  0  0  0  0  0  0
  1  3  1  0  0  0  0
  1 14  1  0  0  0  0
  1 15  1  0  0  0  0
  2  3  2  0  0  0  0
  2  4  1  0  0  0  0
  3 12  1  0  0  0  0
  4  5  1  0  0  0  0
  4 11  2  0  0  0  0
  5 13  2  0  0  0  0
  5 16  1  0  0  0  0
  6 10  1  0  0  0  0
  7 10  1  0  0  0  0
  8 10  1  0  0  0  0
  9 12  1  0  0  0  0
 10 16  1  0  0  0  0
 11 12  1  0  0  0  0
  2 17  1  0  0  0  0
  6 18  1  0  0  0  0
  6 19  1  0  0  0  0
  6 20  1  0  0  0  0
  7 21  1  0  0  0  0
  7 22  1  0  0  0  0
  7 23  1  0  0  0  0
  8 24  1  0  0  0  0
  8 25  1  0  0  0  0
  8 26  1  0  0  0  0
  9 27  1  0  0  0  0
  9 28  1  0  0  0  0
  9 29  1  0  0  0  0
 14 30  1  0  0  0  0
 15 31  1  0  0  0  0
M  END
> <id>
EN300-26866186

> <smiles>
CN1N=C(C=C1B(O)O)C(=O)OC(C)(C)C

> <IUPAC Name>
{3-[(tert-butoxy)carbonyl]-1-methyl-1H-pyrazol-5-yl}boronic acid

> <URL>
https://www.enaminestore.com/catalog/EN300-26866186

> <ROCS_ShapeQuery>
_x1140_x0812_0A_x1140_0A_x1097_0A_x0365_0A_x1097_0A_x0310_0A

> <ROCS_TanimotoCombo>
0.629 

> <ROCS_ShapeTanimoto>
0.224 

> <ROCS_ColorTanimoto>
0.405 

> <ROCS_RefTversky>
0.205 

> <ROCS_RefColorTversky>
0.444 

> <ROCS_RefTverskyCombo>
0.648 

> <ROCS_FitTversky>
1.740 

> <ROCS_FitColorTversky>
0.824 

> <ROCS_FitTverskyCombo>
2.563 

> <ROCS_ColorScore>
-3.460

> <ROCS_Overlap>
2098.401

> <ROCS_Rank>
135                 

$$$$
untitled-dbase-280954_6
  -OEChem-02092423213D

 22 22  0     0  0  0  0  0  0999 V2000
    8.4502   12.4159   24.2024 C   0  0  0  0  0  0  0  0  0  0  0  0
    7.4724   11.9634   25.0812 C   0  0  0  0  0  0  0  0  0  0  0  0
    8.9587   10.1511   23.6840 C   0  0  0  0  0  0  0  0  0  0  0  0
    9.2119   11.4990   23.4867 C   0  0  0  0  0  0  0  0  0  0  0  0
    7.2968   10.5947   25.2070 C   0  0  0  0  0  0  0  0  0  0  0  0
   10.2392   11.9411   22.5600 C   0  0  0  0  0  0  0  0  0  0  0  0
    5.1215   10.9065   26.3887 C   0  0  0  0  0  0  0  0  0  0  0  0
   12.2725   13.1790   22.3787 C   0  0  0  0  0  0  0  0  0  0  0  0
    8.0174    9.6737   24.5288 N   0  0  0  0  0  0  0  0  0  0  0  0
    6.2975   10.1494   26.1076 N   0  0  0  0  0  0  0  0  0  0  0  0
   10.2493   11.6836   21.3478 O   0  0  0  0  0  0  0  0  0  0  0  0
   11.2020   12.6830   23.1897 O   0  0  0  0  0  0  0  0  0  0  0  0
    8.6112   13.4840   24.0842 H   0  0  0  0  0  0  0  0  0  0  0  0
    6.8729   12.6720   25.6438 H   0  0  0  0  0  0  0  0  0  0  0  0
    9.5205    9.3875   23.1545 H   0  0  0  0  0  0  0  0  0  0  0  0
    5.1386   11.8406   25.8081 H   0  0  0  0  0  0  0  0  0  0  0  0
    4.2331   10.3196   26.1128 H   0  0  0  0  0  0  0  0  0  0  0  0
    5.0858   11.1430   27.4624 H   0  0  0  0  0  0  0  0  0  0  0  0
   12.9667   13.7503   22.9999 H   0  0  0  0  0  0  0  0  0  0  0  0
   11.8670   13.8147   21.5875 H   0  0  0  0  0  0  0  0  0  0  0  0
   12.7997   12.3337   21.9301 H   0  0  0  0  0  0  0  0  0  0  0  0
    6.4534    9.2659   26.5482 H   0  0  0  0  0  0  0  0  0  0  0  0
  1  2  2  0  0  0  0
  1  4  1  0  0  0  0
  2  5  1  0  0  0  0
  3  4  2  0  0  0  0
  3  9  1  0  0  0  0
  4  6  1  0  0  0  0
  5  9  2  0  0  0  0
  5 10  1  0  0  0  0
  6 11  2  0  0  0  0
  6 12  1  0  0  0  0
  7 10  1  0  0  0  0
  8 12  1  0  0  0  0
  1 13  1  0  0  0  0
  2 14  1  0  0  0  0
  3 15  1  0  0  0  0
  7 16  1  0  0  0  0
  7 17  1  0  0  0  0
  7 18  1  0  0  0  0
  8 19  1  0  0  0  0
  8 20  1  0  0  0  0
  8 21  1  0  0  0  0
 10 22  1  0  0  0  0
M  END
> <id>
EN300-6509684

> <smiles>
CNC=1C=CC(=CN1)C(=O)OC

> <MDLNUMBER>
MFCD20232391

> <IUPAC Name>
methyl 6-(methylamino)pyridine-3-carboxylate

> <CAS>
329365-27-7

> <URL>
https://www.enaminestore.com/catalog/EN300-6509684

> <ROCS_ShapeQuery>
_x1140_x0812_0A_x1140_0A_x1097_0A_x0365_0A_x1097_0A_x0310_0A

> <ROCS_TanimotoCombo>
0.629 

> <ROCS_ShapeTanimoto>
0.224 

> <ROCS_ColorTanimoto>
0.405 

> <ROCS_RefTversky>
0.201 

> <ROCS_RefColorTversky>
0.444 

> <ROCS_RefTverskyCombo>
0.645 

> <ROCS_FitTversky>
1.991 

> <ROCS_FitColorTversky>
0.824 

> <ROCS_FitTverskyCombo>
2.815 

> <ROCS_ColorScore>
-3.460

> <ROCS_Overlap>
2064.336

> <ROCS_Rank>
136                 

$$$$
untitled-dbase-528965_4
  -OEChem-02092423213D

 21 21  0     0  0  0  0  0  0999 V2000
    9.2052   11.5554   23.5473 C   0  0  0  0  0  0  0  0  0  0  0  0
    9.0731   10.2233   23.8722 C   0  0  0  0  0  0  0  0  0  0  0  0
    7.6076   12.0910   25.0934 C   0  0  0  0  0  0  0  0  0  0  0  0
    7.4750   10.7588   25.4179 C   0  0  0  0  0  0  0  0  0  0  0  0
   10.1359   12.0323   22.5360 C   0  0  0  0  0  0  0  0  0  0  0  0
    9.3084    8.1989   22.4328 C   0  0  0  0  0  0  0  0  0  0  0  0
   12.0192   13.4481   22.1631 C   0  0  0  0  0  0  0  0  0  0  0  0
    8.4748   12.5132   24.1521 N   0  0  0  0  0  0  0  0  0  0  0  0
    8.2056    9.8011   24.8133 N   0  0  0  0  0  0  0  0  0  0  0  0
    9.8669    9.2658   23.2017 N   0  0  0  0  0  0  0  0  0  0  0  0
   10.1101   11.6934   21.3457 O   0  0  0  0  0  0  0  0  0  0  0  0
   11.0468   12.9062   23.0633 O   0  0  0  0  0  0  0  0  0  0  0  0
    6.7072   13.3508   25.8330 Cl  0  0  0  0  0  0  0  0  0  0  0  0
    6.3894   10.1649   26.6066 Cl  0  0  0  0  0  0  0  0  0  0  0  0
    8.2105    8.2625   22.4596 H   0  0  0  0  0  0  0  0  0  0  0  0
    9.6548    8.2770   21.3917 H   0  0  0  0  0  0  0  0  0  0  0  0
    9.6300    7.2354   22.8550 H   0  0  0  0  0  0  0  0  0  0  0  0
   12.6817   14.1264   22.7063 H   0  0  0  0  0  0  0  0  0  0  0  0
   11.5120   13.9847   21.3573 H   0  0  0  0  0  0  0  0  0  0  0  0
   12.6067   12.6299   21.7399 H   0  0  0  0  0  0  0  0  0  0  0  0
   10.8599    9.3623   23.2872 H   0  0  0  0  0  0  0  0  0  0  0  0
  1  2  2  0  0  0  0
  1  5  1  0  0  0  0
  1  8  1  0  0  0  0
  2  9  1  0  0  0  0
  2 10  1  0  0  0  0
  3  4  1  0  0  0  0
  3  8  2  0  0  0  0
  3 13  1  0  0  0  0
  4  9  2  0  0  0  0
  4 14  1  0  0  0  0
  5 11  2  0  0  0  0
  5 12  1  0  0  0  0
  6 10  1  0  0  0  0
  7 12  1  0  0  0  0
  6 15  1  0  0  0  0
  6 16  1  0  0  0  0
  6 17  1  0  0  0  0
  7 18  1  0  0  0  0
  7 19  1  0  0  0  0
  7 20  1  0  0  0  0
 10 21  1  0  0  0  0
M  END
> <id>
EN300-33048082

> <smiles>
CNC=1N=C(Cl)C(Cl)=NC1C(=O)OC

> <IUPAC Name>
methyl 5,6-dichloro-3-(methylamino)pyrazine-2-carboxylate

> <CAS>
32209-51-1

> <URL>
https://www.enaminestore.com/catalog/EN300-33048082

> <ROCS_ShapeQuery>
_x1140_x0812_0A_x1140_0A_x1097_0A_x0365_0A_x1097_0A_x0310_0A

> <ROCS_TanimotoCombo>
0.629 

> <ROCS_ShapeTanimoto>
0.256 

> <ROCS_ColorTanimoto>
0.373 

> <ROCS_RefTversky>
0.226 

> <ROCS_RefColorTversky>
0.450 

> <ROCS_RefTverskyCombo>
0.676 

> <ROCS_FitTversky>
2.076 

> <ROCS_FitColorTversky>
0.686 

> <ROCS_FitTverskyCombo>
2.762 

> <ROCS_ColorScore>
-3.533

> <ROCS_Overlap>
2314.593

> <ROCS_Rank>
137                 

$$$$
untitled-dbase-480013_6
  -OEChem-02092423213D

 40 41  0     0  0  0  0  0  0999 V2000
    5.6717   12.6607   26.4300 C   0  0  0  0  0  0  0  0  0  0  0  0
    5.2789   11.3298   26.3609 C   0  0  0  0  0  0  0  0  0  0  0  0
    6.8812   13.0505   25.8622 C   0  0  0  0  0  0  0  0  0  0  0  0
    6.0960   10.3922   25.7245 C   0  0  0  0  0  0  0  0  0  0  0  0
    7.7029   12.1072   25.2221 C   0  0  0  0  0  0  0  0  0  0  0  0
    8.9254   12.4722   24.6421 C   0  0  0  0  0  0  0  0  0  0  0  0
    9.7140   11.5170   24.0171 C   0  0  0  0  0  0  0  0  0  0  0  0
    7.3104   10.7543   25.1480 C   0  0  0  0  0  0  0  0  0  0  0  0
    9.2465   10.2187   23.9948 C   0  0  0  0  0  0  0  0  0  0  0  0
   10.9743   11.9554   21.8648 C   0  0  0  0  0  0  0  0  0  0  0  0
    9.4112   13.8899   24.6807 C   0  0  0  0  0  0  0  0  0  0  0  0
   11.9084   13.8314   19.3157 C   0  0  0  0  0  0  0  0  0  0  0  0
   13.4537   14.0845   22.3015 C   0  0  0  0  0  0  0  0  0  0  0  0
   11.0199   11.8725   23.3905 C   0  0  0  0  0  0  0  0  0  0  0  0
   12.2539   12.4530   19.7665 C   0  0  0  0  0  0  0  0  0  0  0  0
   13.3826   12.6378   21.9485 C   0  0  0  0  0  0  0  0  0  0  0  0
    8.0737    9.8251   24.5421 N   0  0  0  0  0  0  0  0  0  0  0  0
   12.1572   12.3339   21.2196 N   0  0  0  0  0  0  0  0  0  0  0  0
    9.9291   11.6950   21.2622 O   0  0  0  0  0  0  0  0  0  0  0  0
    9.9883    9.2384   23.3888 O   0  0  0  0  0  0  0  0  0  0  0  0
    5.0384   13.3913   26.9237 H   0  0  0  0  0  0  0  0  0  0  0  0
    4.3367   11.0169   26.8016 H   0  0  0  0  0  0  0  0  0  0  0  0
    7.1631   14.0982   25.9316 H   0  0  0  0  0  0  0  0  0  0  0  0
    5.7656    9.3559   25.6833 H   0  0  0  0  0  0  0  0  0  0  0  0
   10.0111   14.0555   25.5807 H   0  0  0  0  0  0  0  0  0  0  0  0
   10.0220   14.1177   23.8010 H   0  0  0  0  0  0  0  0  0  0  0  0
    8.5702   14.5912   24.6815 H   0  0  0  0  0  0  0  0  0  0  0  0
   12.5988   14.5526   19.7775 H   0  0  0  0  0  0  0  0  0  0  0  0
   11.9944   13.8913   18.2207 H   0  0  0  0  0  0  0  0  0  0  0  0
   10.8769   14.0676   19.6160 H   0  0  0  0  0  0  0  0  0  0  0  0
   12.5914   14.3519   22.9301 H   0  0  0  0  0  0  0  0  0  0  0  0
   14.3846   14.2819   22.8532 H   0  0  0  0  0  0  0  0  0  0  0  0
   13.4377   14.6875   21.3816 H   0  0  0  0  0  0  0  0  0  0  0  0
   11.7823   11.1273   23.6710 H   0  0  0  0  0  0  0  0  0  0  0  0
   11.3653   12.8447   23.7788 H   0  0  0  0  0  0  0  0  0  0  0  0
   11.5595   11.7383   19.3007 H   0  0  0  0  0  0  0  0  0  0  0  0
   13.2829   12.2207   19.4549 H   0  0  0  0  0  0  0  0  0  0  0  0
   14.2476   12.3786   21.3204 H   0  0  0  0  0  0  0  0  0  0  0  0
   13.4082   12.0411   22.8722 H   0  0  0  0  0  0  0  0  0  0  0  0
    9.5279    8.3905   23.4577 H   0  0  0  0  0  0  0  0  0  0  0  0
  1  2  1  0  0  0  0
  1  3  2  0  0  0  0
  2  4  2  0  0  0  0
  3  5  1  0  0  0  0
  4  8  1  0  0  0  0
  5  6  2  0  0  0  0
  5  8  1  0  0  0  0
  6  7  1  0  0  0  0
  6 11  1  0  0  0  0
  7  9  2  0  0  0  0
  7 14  1  0  0  0  0
  8 17  2  0  0  0  0
  9 17  1  0  0  0  0
  9 20  1  0  0  0  0
 10 14  1  0  0  0  0
 10 18  1  0  0  0  0
 10 19  2  0  0  0  0
 12 15  1  0  0  0  0
 13 16  1  0  0  0  0
 15 18  1  0  0  0  0
 16 18  1  0  0  0  0
  1 21  1  0  0  0  0
  2 22  1  0  0  0  0
  3 23  1  0  0  0  0
  4 24  1  0  0  0  0
 11 25  1  0  0  0  0
 11 26  1  0  0  0  0
 11 27  1  0  0  0  0
 12 28  1  0  0  0  0
 12 29  1  0  0  0  0
 12 30  1  0  0  0  0
 13 31  1  0  0  0  0
 13 32  1  0  0  0  0
 13 33  1  0  0  0  0
 14 34  1  0  0  0  0
 14 35  1  0  0  0  0
 15 36  1  0  0  0  0
 15 37  1  0  0  0  0
 16 38  1  0  0  0  0
 16 39  1  0  0  0  0
 20 40  1  0  0  0  0
M  END
> <id>
EN300-27734805

> <smiles>
CCN(CC)C(=O)CC=1C(C)=C2C=CC=CC2=NC1O

> <MDLNUMBER>
MFCD33020564

> <IUPAC Name>
N,N-diethyl-2-(2-hydroxy-4-methylquinolin-3-yl)acetamide

> <CAS>
2580202-63-5

> <Purity>
95

> <URL>
https://www.enaminestore.com/catalog/EN300-27734805

> <ROCS_ShapeQuery>
_x1140_x0812_0A_x1140_0A_x1097_0A_x0365_0A_x1097_0A_x0310_0A

> <ROCS_TanimotoCombo>
0.629 

> <ROCS_ShapeTanimoto>
0.269 

> <ROCS_ColorTanimoto>
0.359 

> <ROCS_RefTversky>
0.241 

> <ROCS_RefColorTversky>
0.469 

> <ROCS_RefTverskyCombo>
0.710 

> <ROCS_FitTversky>
1.784 

> <ROCS_FitColorTversky>
0.606 

> <ROCS_FitTverskyCombo>
2.390 

> <ROCS_ColorScore>
-3.706

> <ROCS_Overlap>
2471.708

> <ROCS_Rank>
138                 

$$$$
untitled-dbase-469978_1
  -OEChem-02092423213D

 22 22  0     0  0  0  0  0  0999 V2000
    8.4429   12.5085   24.2114 C   0  0  0  0  0  0  0  0  0  0  0  0
    7.4658   10.7272   25.4478 C   0  0  0  0  0  0  0  0  0  0  0  0
    9.2211   11.5737   23.5378 C   0  0  0  0  0  0  0  0  0  0  0  0
    7.5461   12.0854   25.1861 C   0  0  0  0  0  0  0  0  0  0  0  0
    9.0660   10.2383   23.8734 C   0  0  0  0  0  0  0  0  0  0  0  0
   10.1580   12.0265   22.5187 C   0  0  0  0  0  0  0  0  0  0  0  0
   12.0652   13.4033   22.1304 C   0  0  0  0  0  0  0  0  0  0  0  0
    6.6992   13.0603   25.9242 C   0  0  0  0  0  0  0  0  0  0  0  0
    8.2053    9.7894   24.8143 N   0  0  0  0  0  0  0  0  0  0  0  0
    9.8563    9.2791   23.1916 N   0  0  0  0  0  0  0  0  0  0  0  0
   10.1202   11.6794   21.3320 O   0  0  0  0  0  0  0  0  0  0  0  0
   11.0861   12.8861   23.0379 O   0  0  0  0  0  0  0  0  0  0  0  0
    6.8985   14.3599   25.5478 F   0  0  0  0  0  0  0  0  0  0  0  0
    5.3566   12.8508   25.7702 F   0  0  0  0  0  0  0  0  0  0  0  0
    6.9175   13.0361   27.2728 F   0  0  0  0  0  0  0  0  0  0  0  0
    8.5325   13.5672   23.9795 H   0  0  0  0  0  0  0  0  0  0  0  0
    6.7832   10.3382   26.1971 H   0  0  0  0  0  0  0  0  0  0  0  0
   12.7424   14.0727   22.6666 H   0  0  0  0  0  0  0  0  0  0  0  0
   11.5652   13.9439   21.3228 H   0  0  0  0  0  0  0  0  0  0  0  0
   12.6356   12.5713   21.7108 H   0  0  0  0  0  0  0  0  0  0  0  0
   10.4621    9.5861   22.4625 H   0  0  0  0  0  0  0  0  0  0  0  0
    9.7184    8.3128   23.3923 H   0  0  0  0  0  0  0  0  0  0  0  0
  1  3  1  0  0  0  0
  1  4  2  0  0  0  0
  2  4  1  0  0  0  0
  2  9  2  0  0  0  0
  3  5  2  0  0  0  0
  3  6  1  0  0  0  0
  4  8  1  0  0  0  0
  5  9  1  0  0  0  0
  5 10  1  0  0  0  0
  6 11  2  0  0  0  0
  6 12  1  0  0  0  0
  7 12  1  0  0  0  0
  8 13  1  0  0  0  0
  8 14  1  0  0  0  0
  8 15  1  0  0  0  0
  1 16  1  0  0  0  0
  2 17  1  0  0  0  0
  7 18  1  0  0  0  0
  7 19  1  0  0  0  0
  7 20  1  0  0  0  0
 10 21  1  0  0  0  0
 10 22  1  0  0  0  0
M  END
> <id>
EN300-202088

> <smiles>
COC(=O)C=1C=C(C=NC1N)C(F)(F)F

> <MDLNUMBER>
MFCD16611586

> <IUPAC Name>
methyl 2-amino-5-(trifluoromethyl)pyridine-3-carboxylate

> <CAS>
1227048-89-6

> <URL>
https://www.enaminestore.com/catalog/EN300-202088

> <ROCS_ShapeQuery>
_x1140_x0812_0A_x1140_0A_x1097_0A_x0365_0A_x1097_0A_x0310_0A

> <ROCS_TanimotoCombo>
0.629 

> <ROCS_ShapeTanimoto>
0.256 

> <ROCS_ColorTanimoto>
0.373 

> <ROCS_RefTversky>
0.227 

> <ROCS_RefColorTversky>
0.450 

> <ROCS_RefTverskyCombo>
0.677 

> <ROCS_FitTversky>
1.974 

> <ROCS_FitColorTversky>
0.685 

> <ROCS_FitTverskyCombo>
2.659 

> <ROCS_ColorScore>
-3.533

> <ROCS_Overlap>
2329.646

> <ROCS_Rank>
139                 

$$$$
untitled-dbase-498639_5
  -OEChem-02092423213D

 28 28  0     0  0  0  0  0  0999 V2000
    7.1357   13.2024   26.1506 B   0  0  0  0  0  0  0  0  0  0  0  0
    7.7396   10.6925   25.4377 C   0  0  0  0  0  0  0  0  0  0  0  0
    8.4098   12.2693   24.0647 C   0  0  0  0  0  0  0  0  0  0  0  0
    7.7411   12.0831   25.2499 C   0  0  0  0  0  0  0  0  0  0  0  0
    9.4595   10.6578   22.4604 C   0  0  0  0  0  0  0  0  0  0  0  0
   11.6476    9.3085   23.6525 C   0  0  0  0  0  0  0  0  0  0  0  0
   10.8924    7.3099   22.3316 C   0  0  0  0  0  0  0  0  0  0  0  0
   11.6302    9.3924   21.1371 C   0  0  0  0  0  0  0  0  0  0  0  0
   10.9420    8.8354   22.3824 C   0  0  0  0  0  0  0  0  0  0  0  0
    8.3571   10.0372   24.4532 N   0  0  0  0  0  0  0  0  0  0  0  0
    8.7668   11.0186   23.6126 N   0  0  0  0  0  0  0  0  0  0  0  0
    9.8496   11.5041   21.6721 O   0  0  0  0  0  0  0  0  0  0  0  0
    6.4841   12.8984   27.3207 O   0  0  0  0  0  0  0  0  0  0  0  0
    7.2576   14.5141   25.7583 O   0  0  0  0  0  0  0  0  0  0  0  0
    9.5927    9.3098   22.4077 O   0  0  0  0  0  0  0  0  0  0  0  0
    7.3163   10.1146   26.2485 H   0  0  0  0  0  0  0  0  0  0  0  0
    8.6608   13.1650   23.5101 H   0  0  0  0  0  0  0  0  0  0  0  0
   11.6852   10.4030   23.6927 H   0  0  0  0  0  0  0  0  0  0  0  0
   11.1432    8.9445   24.5535 H   0  0  0  0  0  0  0  0  0  0  0  0
   12.6873    8.9624   23.6742 H   0  0  0  0  0  0  0  0  0  0  0  0
   10.3870    6.9660   21.4220 H   0  0  0  0  0  0  0  0  0  0  0  0
   10.3172    6.9098   23.1744 H   0  0  0  0  0  0  0  0  0  0  0  0
   11.8955    6.8720   22.3575 H   0  0  0  0  0  0  0  0  0  0  0  0
   11.1243    9.0532   20.2259 H   0  0  0  0  0  0  0  0  0  0  0  0
   11.6423   10.4871   21.1385 H   0  0  0  0  0  0  0  0  0  0  0  0
   12.6634    9.0328   21.0692 H   0  0  0  0  0  0  0  0  0  0  0  0
    6.1503   13.6768   27.7960 H   0  0  0  0  0  0  0  0  0  0  0  0
    6.8416   15.1136   26.4004 H   0  0  0  0  0  0  0  0  0  0  0  0
  1  4  1  0  0  0  0
  1 13  1  0  0  0  0
  1 14  1  0  0  0  0
  2  4  1  0  0  0  0
  2 10  2  0  0  0  0
  3  4  2  0  0  0  0
  3 11  1  0  0  0  0
  5 11  1  0  0  0  0
  5 12  2  0  0  0  0
  5 15  1  0  0  0  0
  6  9  1  0  0  0  0
  7  9  1  0  0  0  0
  8  9  1  0  0  0  0
  9 15  1  0  0  0  0
 10 11  1  0  0  0  0
  2 16  1  0  0  0  0
  3 17  1  0  0  0  0
  6 18  1  0  0  0  0
  6 19  1  0  0  0  0
  6 20  1  0  0  0  0
  7 21  1  0  0  0  0
  7 22  1  0  0  0  0
  7 23  1  0  0  0  0
  8 24  1  0  0  0  0
  8 25  1  0  0  0  0
  8 26  1  0  0  0  0
 13 27  1  0  0  0  0
 14 28  1  0  0  0  0
M  END
> <id>
EN300-147420

> <smiles>
CC(C)(C)OC(=O)N1C=C(C=N1)B(O)O

> <MDLNUMBER>
MFCD09951915

> <IUPAC Name>
{1-[(tert-butoxy)carbonyl]-1H-pyrazol-4-yl}boronic acid

> <CAS>
1188405-87-9

> <URL>
https://www.enaminestore.com/catalog/EN300-147420

> <ROCS_ShapeQuery>
_x1140_x0812_0A_x1140_0A_x1097_0A_x0365_0A_x1097_0A_x0310_0A

> <ROCS_TanimotoCombo>
0.628 

> <ROCS_ShapeTanimoto>
0.215 

> <ROCS_ColorTanimoto>
0.413 

> <ROCS_RefTversky>
0.197 

> <ROCS_RefColorTversky>
0.450 

> <ROCS_RefTverskyCombo>
0.647 

> <ROCS_FitTversky>
1.734 

> <ROCS_FitColorTversky>
0.835 

> <ROCS_FitTverskyCombo>
2.569 

> <ROCS_ColorScore>
-3.508

> <ROCS_Overlap>
2023.606

> <ROCS_Rank>
140                 

$$$$
untitled-dbase-77103_6
  -OEChem-02092423213D

 25 25  0     0  0  0  0  0  0999 V2000
    8.4485   12.4157   24.2032 C   0  0  0  0  0  0  0  0  0  0  0  0
    7.4698   11.9627   25.0809 C   0  0  0  0  0  0  0  0  0  0  0  0
    8.9575   10.1512   23.6842 C   0  0  0  0  0  0  0  0  0  0  0  0
    9.2109   11.4991   23.4877 C   0  0  0  0  0  0  0  0  0  0  0  0
    7.2942   10.5940   25.2059 C   0  0  0  0  0  0  0  0  0  0  0  0
   10.2390   11.9417   22.5623 C   0  0  0  0  0  0  0  0  0  0  0  0
   11.8929   14.5427   21.8451 C   0  0  0  0  0  0  0  0  0  0  0  0
    6.0142    8.7664   26.3226 C   0  0  0  0  0  0  0  0  0  0  0  0
   12.2725   13.1798   22.3835 C   0  0  0  0  0  0  0  0  0  0  0  0
    8.0154    9.6733   24.5278 N   0  0  0  0  0  0  0  0  0  0  0  0
    6.2941   10.1483   26.1054 N   0  0  0  0  0  0  0  0  0  0  0  0
   10.2503   11.6848   21.3500 O   0  0  0  0  0  0  0  0  0  0  0  0
   11.2013   12.6833   23.1932 O   0  0  0  0  0  0  0  0  0  0  0  0
    8.6096   13.4838   24.0857 H   0  0  0  0  0  0  0  0  0  0  0  0
    6.8698   12.6711   25.6432 H   0  0  0  0  0  0  0  0  0  0  0  0
    9.5198    9.3878   23.1548 H   0  0  0  0  0  0  0  0  0  0  0  0
   10.9902   14.4820   21.2307 H   0  0  0  0  0  0  0  0  0  0  0  0
   11.7156   15.2461   22.6653 H   0  0  0  0  0  0  0  0  0  0  0  0
   12.7051   14.9582   21.2394 H   0  0  0  0  0  0  0  0  0  0  0  0
    6.6822    8.1540   25.6990 H   0  0  0  0  0  0  0  0  0  0  0  0
    6.1762    8.5218   27.3828 H   0  0  0  0  0  0  0  0  0  0  0  0
    4.9682    8.5576   26.0537 H   0  0  0  0  0  0  0  0  0  0  0  0
   13.1758   13.2475   22.9969 H   0  0  0  0  0  0  0  0  0  0  0  0
   12.4484   12.4780   21.5627 H   0  0  0  0  0  0  0  0  0  0  0  0
    5.7810   10.8556   26.5907 H   0  0  0  0  0  0  0  0  0  0  0  0
  1  2  2  0  0  0  0
  1  4  1  0  0  0  0
  2  5  1  0  0  0  0
  3  4  2  0  0  0  0
  3 10  1  0  0  0  0
  4  6  1  0  0  0  0
  5 10  2  0  0  0  0
  5 11  1  0  0  0  0
  6 12  2  0  0  0  0
  6 13  1  0  0  0  0
  7  9  1  0  0  0  0
  8 11  1  0  0  0  0
  9 13  1  0  0  0  0
  1 14  1  0  0  0  0
  2 15  1  0  0  0  0
  3 16  1  0  0  0  0
  7 17  1  0  0  0  0
  7 18  1  0  0  0  0
  7 19  1  0  0  0  0
  8 20  1  0  0  0  0
  8 21  1  0  0  0  0
  8 22  1  0  0  0  0
  9 23  1  0  0  0  0
  9 24  1  0  0  0  0
 11 25  1  0  0  0  0
M  END
> <id>
EN300-4991521

> <smiles>
CCOC(=O)C=1C=CC(NC)=NC1

> <MDLNUMBER>
MFCD11119483

> <IUPAC Name>
ethyl 6-(methylamino)pyridine-3-carboxylate

> <CAS>
1036544-74-7

> <URL>
https://www.enaminestore.com/catalog/EN300-4991521

> <ROCS_ShapeQuery>
_x1140_x0812_0A_x1140_0A_x1097_0A_x0365_0A_x1097_0A_x0310_0A

> <ROCS_TanimotoCombo>
0.628 

> <ROCS_ShapeTanimoto>
0.223 

> <ROCS_ColorTanimoto>
0.405 

> <ROCS_RefTversky>
0.201 

> <ROCS_RefColorTversky>
0.444 

> <ROCS_RefTverskyCombo>
0.645 

> <ROCS_FitTversky>
1.921 

> <ROCS_FitColorTversky>
0.824 

> <ROCS_FitTverskyCombo>
2.745 

> <ROCS_ColorScore>
-3.460

> <ROCS_Overlap>
2063.233

> <ROCS_Rank>
141                 

$$$$
untitled-dbase-44552_8
  -OEChem-02092423213D

 26 26  0     0  0  0  0  0  0999 V2000
    8.7217   12.0415   24.7318 C   0  0  0  0  0  0  0  0  0  0  0  0
    8.9168   11.5330   23.4709 C   0  0  0  0  0  0  0  0  0  0  0  0
    8.2100   10.9591   25.4725 C   0  0  0  0  0  0  0  0  0  0  0  0
    9.4213   12.1944   22.3096 C   0  0  0  0  0  0  0  0  0  0  0  0
    7.8225   10.9481   26.8931 C   0  0  0  0  0  0  0  0  0  0  0  0
   11.0457    9.0299   22.5227 C   0  0  0  0  0  0  0  0  0  0  0  0
    9.7179    8.2909   22.5497 C   0  0  0  0  0  0  0  0  0  0  0  0
    8.5409    9.2577   22.4409 C   0  0  0  0  0  0  0  0  0  0  0  0
    9.2114   13.6985   22.0862 C   0  0  0  0  0  0  0  0  0  0  0  0
    8.0877    9.8471   24.7428 N   0  0  0  0  0  0  0  0  0  0  0  0
    8.5251   10.2280   23.5305 N   0  0  0  0  0  0  0  0  0  0  0  0
   10.0607   11.5826   21.4111 O   0  0  0  0  0  0  0  0  0  0  0  0
    8.5134   14.2569   23.1074 F   0  0  0  0  0  0  0  0  0  0  0  0
   10.3959   14.3556   22.0014 F   0  0  0  0  0  0  0  0  0  0  0  0
    8.5278   13.9903   20.9487 F   0  0  0  0  0  0  0  0  0  0  0  0
    8.9208   13.0495   25.0671 H   0  0  0  0  0  0  0  0  0  0  0  0
    6.7606   11.2201   27.0209 H   0  0  0  0  0  0  0  0  0  0  0  0
    7.9698    9.9569   27.3581 H   0  0  0  0  0  0  0  0  0  0  0  0
    8.4214   11.6555   27.4944 H   0  0  0  0  0  0  0  0  0  0  0  0
   11.1046    9.7600   23.3362 H   0  0  0  0  0  0  0  0  0  0  0  0
   11.1621    9.5661   21.5757 H   0  0  0  0  0  0  0  0  0  0  0  0
   11.8842    8.3334   22.6242 H   0  0  0  0  0  0  0  0  0  0  0  0
    9.6897    7.5687   21.7250 H   0  0  0  0  0  0  0  0  0  0  0  0
    9.6452    7.7119   23.4783 H   0  0  0  0  0  0  0  0  0  0  0  0
    7.5861    8.7189   22.4609 H   0  0  0  0  0  0  0  0  0  0  0  0
    8.5766    9.8165   21.4981 H   0  0  0  0  0  0  0  0  0  0  0  0
  1  2  2  0  0  0  0
  1  3  1  0  0  0  0
  2  4  1  0  0  0  0
  2 11  1  0  0  0  0
  3  5  1  0  0  0  0
  3 10  2  0  0  0  0
  4  9  1  0  0  0  0
  4 12  2  0  0  0  0
  6  7  1  0  0  0  0
  7  8  1  0  0  0  0
  8 11  1  0  0  0  0
  9 13  1  0  0  0  0
  9 14  1  0  0  0  0
  9 15  1  0  0  0  0
 10 11  1  0  0  0  0
  1 16  1  0  0  0  0
  5 17  1  0  0  0  0
  5 18  1  0  0  0  0
  5 19  1  0  0  0  0
  6 20  1  0  0  0  0
  6 21  1  0  0  0  0
  6 22  1  0  0  0  0
  7 23  1  0  0  0  0
  7 24  1  0  0  0  0
  8 25  1  0  0  0  0
  8 26  1  0  0  0  0
M  END
> <id>
EN300-232518

> <smiles>
CCCN1N=C(C)C=C1C(=O)C(F)(F)F

> <MDLNUMBER>
MFCD18262302

> <IUPAC Name>
2,2,2-trifluoro-1-(3-methyl-1-propyl-1H-pyrazol-5-yl)ethan-1-one

> <CAS>
1245773-03-8

> <URL>
https://www.enaminestore.com/catalog/EN300-232518

> <ROCS_ShapeQuery>
_x1140_x0812_0A_x1140_0A_x1097_0A_x0365_0A_x1097_0A_x0310_0A

> <ROCS_TanimotoCombo>
0.628 

> <ROCS_ShapeTanimoto>
0.206 

> <ROCS_ColorTanimoto>
0.422 

> <ROCS_RefTversky>
0.190 

> <ROCS_RefColorTversky>
0.456 

> <ROCS_RefTverskyCombo>
0.647 

> <ROCS_FitTversky>
1.667 

> <ROCS_FitColorTversky>
0.848 

> <ROCS_FitTverskyCombo>
2.514 

> <ROCS_ColorScore>
-3.560

> <ROCS_Overlap>
1950.666

> <ROCS_Rank>
142                 

$$$$
untitled-dbase-293571_6
  -OEChem-02092423213D

 34 34  0     0  0  0  0  0  0999 V2000
    8.4487   12.5154   24.2048 C   0  0  0  0  0  0  0  0  0  0  0  0
    7.5497   12.0948   25.1785 C   0  0  0  0  0  0  0  0  0  0  0  0
    9.2267   11.5785   23.5337 C   0  0  0  0  0  0  0  0  0  0  0  0
    7.4672   10.7370   25.4420 C   0  0  0  0  0  0  0  0  0  0  0  0
    9.0693   10.2439   23.8710 C   0  0  0  0  0  0  0  0  0  0  0  0
   10.1826   12.0379   22.4946 C   0  0  0  0  0  0  0  0  0  0  0  0
    6.5131   10.2500   26.4809 C   0  0  0  0  0  0  0  0  0  0  0  0
   10.4495   14.7410   21.6435 C   0  0  0  0  0  0  0  0  0  0  0  0
   12.6034   14.7350   22.9358 C   0  0  0  0  0  0  0  0  0  0  0  0
   12.3127   13.1836   20.9822 C   0  0  0  0  0  0  0  0  0  0  0  0
   10.2717    8.0589   23.7961 C   0  0  0  0  0  0  0  0  0  0  0  0
   11.6116   13.8848   22.1447 C   0  0  0  0  0  0  0  0  0  0  0  0
    8.2065    9.7974   24.8111 N   0  0  0  0  0  0  0  0  0  0  0  0
    9.8594    9.2829   23.1912 N   0  0  0  0  0  0  0  0  0  0  0  0
   10.1273   11.6799   21.3284 O   0  0  0  0  0  0  0  0  0  0  0  0
   11.0948   12.8908   23.0303 O   0  0  0  0  0  0  0  0  0  0  0  0
    8.5340   13.5748   23.9778 H   0  0  0  0  0  0  0  0  0  0  0  0
    6.9363   12.8155   25.7084 H   0  0  0  0  0  0  0  0  0  0  0  0
    5.5378   10.0311   26.0300 H   0  0  0  0  0  0  0  0  0  0  0  0
    6.8851    9.3389   26.9665 H   0  0  0  0  0  0  0  0  0  0  0  0
    6.3715   10.9972   27.2723 H   0  0  0  0  0  0  0  0  0  0  0  0
    9.7354   14.1344   21.0751 H   0  0  0  0  0  0  0  0  0  0  0  0
    9.9167   15.2217   22.4703 H   0  0  0  0  0  0  0  0  0  0  0  0
   10.8047   15.5212   20.9605 H   0  0  0  0  0  0  0  0  0  0  0  0
   13.4389   14.1247   23.2973 H   0  0  0  0  0  0  0  0  0  0  0  0
   12.1273   15.1642   23.8248 H   0  0  0  0  0  0  0  0  0  0  0  0
   13.0078   15.5525   22.3302 H   0  0  0  0  0  0  0  0  0  0  0  0
   13.1464   12.5694   21.3414 H   0  0  0  0  0  0  0  0  0  0  0  0
   11.6242   12.5399   20.4251 H   0  0  0  0  0  0  0  0  0  0  0  0
   12.7438   13.9148   20.2888 H   0  0  0  0  0  0  0  0  0  0  0  0
    9.8822    8.0076   24.8236 H   0  0  0  0  0  0  0  0  0  0  0  0
    9.8805    7.2120   23.2132 H   0  0  0  0  0  0  0  0  0  0  0  0
   11.3705    8.0126   23.8179 H   0  0  0  0  0  0  0  0  0  0  0  0
   10.1220    9.5032   22.2526 H   0  0  0  0  0  0  0  0  0  0  0  0
  1  2  2  0  0  0  0
  1  3  1  0  0  0  0
  2  4  1  0  0  0  0
  3  5  2  0  0  0  0
  3  6  1  0  0  0  0
  4  7  1  0  0  0  0
  4 13  2  0  0  0  0
  5 13  1  0  0  0  0
  5 14  1  0  0  0  0
  6 15  2  0  0  0  0
  6 16  1  0  0  0  0
  8 12  1  0  0  0  0
  9 12  1  0  0  0  0
 10 12  1  0  0  0  0
 11 14  1  0  0  0  0
 12 16  1  0  0  0  0
  1 17  1  0  0  0  0
  2 18  1  0  0  0  0
  7 19  1  0  0  0  0
  7 20  1  0  0  0  0
  7 21  1  0  0  0  0
  8 22  1  0  0  0  0
  8 23  1  0  0  0  0
  8 24  1  0  0  0  0
  9 25  1  0  0  0  0
  9 26  1  0  0  0  0
  9 27  1  0  0  0  0
 10 28  1  0  0  0  0
 10 29  1  0  0  0  0
 10 30  1  0  0  0  0
 11 31  1  0  0  0  0
 11 32  1  0  0  0  0
 11 33  1  0  0  0  0
 14 34  1  0  0  0  0
M  END
> <id>
EN300-6508353

> <smiles>
CNC=1N=C(C)C=CC1C(=O)OC(C)(C)C

> <IUPAC Name>
tert-butyl 6-methyl-2-(methylamino)pyridine-3-carboxylate

> <CAS>
2248363-22-4

> <URL>
https://www.enaminestore.com/catalog/EN300-6508353

> <ROCS_ShapeQuery>
_x1140_x0812_0A_x1140_0A_x1097_0A_x0365_0A_x1097_0A_x0310_0A

> <ROCS_TanimotoCombo>
0.628 

> <ROCS_ShapeTanimoto>
0.256 

> <ROCS_ColorTanimoto>
0.372 

> <ROCS_RefTversky>
0.228 

> <ROCS_RefColorTversky>
0.449 

> <ROCS_RefTverskyCombo>
0.676 

> <ROCS_FitTversky>
1.936 

> <ROCS_FitColorTversky>
0.684 

> <ROCS_FitTverskyCombo>
2.621 

> <ROCS_ColorScore>
-3.524

> <ROCS_Overlap>
2333.615

> <ROCS_Rank>
143                 

$$$$
untitled-dbase-67454_6
  -OEChem-02092423213D

 25 25  0     0  0  0  0  0  0999 V2000
    8.8424   12.5950   24.3391 C   0  0  0  0  0  0  0  0  0  0  0  0
    7.9881   12.1417   25.3381 C   0  0  0  0  0  0  0  0  0  0  0  0
    9.3641   11.6947   23.4168 C   0  0  0  0  0  0  0  0  0  0  0  0
    7.6889   10.7892   25.3712 C   0  0  0  0  0  0  0  0  0  0  0  0
    9.0035   10.3622   23.5360 C   0  0  0  0  0  0  0  0  0  0  0  0
    6.7755   10.2678   26.4298 C   0  0  0  0  0  0  0  0  0  0  0  0
   11.3538    8.2644   23.6070 C   0  0  0  0  0  0  0  0  0  0  0  0
   11.3286    8.9327   21.1771 C   0  0  0  0  0  0  0  0  0  0  0  0
   10.9151    9.3087   22.5918 C   0  0  0  0  0  0  0  0  0  0  0  0
    8.1764    9.8846   24.4927 N   0  0  0  0  0  0  0  0  0  0  0  0
   10.1992   12.1229   22.4363 O   0  0  0  0  0  0  0  0  0  0  0  0
    9.4986    9.4481   22.6450 O   0  0  0  0  0  0  0  0  0  0  0  0
    9.0974   13.6496   24.2846 H   0  0  0  0  0  0  0  0  0  0  0  0
    7.5743   12.8337   26.0636 H   0  0  0  0  0  0  0  0  0  0  0  0
    5.7352   10.2981   26.0842 H   0  0  0  0  0  0  0  0  0  0  0  0
    7.0246    9.2326   26.6953 H   0  0  0  0  0  0  0  0  0  0  0  0
    6.8546   10.8603   27.3502 H   0  0  0  0  0  0  0  0  0  0  0  0
   10.9345    7.2813   23.3720 H   0  0  0  0  0  0  0  0  0  0  0  0
   12.4461    8.1842   23.6234 H   0  0  0  0  0  0  0  0  0  0  0  0
   11.0442    8.5444   24.6200 H   0  0  0  0  0  0  0  0  0  0  0  0
   10.9087    7.9656   20.8842 H   0  0  0  0  0  0  0  0  0  0  0  0
   12.4199    8.8780   21.1008 H   0  0  0  0  0  0  0  0  0  0  0  0
   11.0006    9.6897   20.4563 H   0  0  0  0  0  0  0  0  0  0  0  0
   11.3502   10.2786   22.8541 H   0  0  0  0  0  0  0  0  0  0  0  0
   10.3410   13.0819   22.5049 H   0  0  0  0  0  0  0  0  0  0  0  0
  1  2  2  0  0  0  0
  1  3  1  0  0  0  0
  2  4  1  0  0  0  0
  3  5  2  0  0  0  0
  3 11  1  0  0  0  0
  4  6  1  0  0  0  0
  4 10  2  0  0  0  0
  5 10  1  0  0  0  0
  5 12  1  0  0  0  0
  7  9  1  0  0  0  0
  8  9  1  0  0  0  0
  9 12  1  0  0  0  0
  1 13  1  0  0  0  0
  2 14  1  0  0  0  0
  6 15  1  0  0  0  0
  6 16  1  0  0  0  0
  6 17  1  0  0  0  0
  7 18  1  0  0  0  0
  7 19  1  0  0  0  0
  7 20  1  0  0  0  0
  8 21  1  0  0  0  0
  8 22  1  0  0  0  0
  8 23  1  0  0  0  0
  9 24  1  0  0  0  0
 11 25  1  0  0  0  0
M  END
> <id>
EN300-319570

> <smiles>
CC(C)OC=1N=C(C)C=CC1O

> <MDLNUMBER>
MFCD30477207

> <IUPAC Name>
6-methyl-2-(propan-2-yloxy)pyridin-3-ol

> <CAS>
2059935-79-2

> <URL>
https://www.enaminestore.com/catalog/EN300-319570

> <ROCS_ShapeQuery>
_x1140_x0812_0A_x1140_0A_x1097_0A_x0365_0A_x1097_0A_x0310_0A

> <ROCS_TanimotoCombo>
0.627 

> <ROCS_ShapeTanimoto>
0.216 

> <ROCS_ColorTanimoto>
0.411 

> <ROCS_RefTversky>
0.196 

> <ROCS_RefColorTversky>
0.517 

> <ROCS_RefTverskyCombo>
0.712 

> <ROCS_FitTversky>
1.941 

> <ROCS_FitColorTversky>
0.668 

> <ROCS_FitTverskyCombo>
2.610 

> <ROCS_ColorScore>
-4.084

> <ROCS_Overlap>
2003.528

> <ROCS_Rank>
144                 

$$$$
untitled-dbase-564963_1
  -OEChem-02092423213D

 22 22  0     0  0  0  0  0  0999 V2000
    8.4520   12.5242   24.1990 C   0  0  0  0  0  0  0  0  0  0  0  0
    7.5505   12.1101   25.1732 C   0  0  0  0  0  0  0  0  0  0  0  0
    9.2272   11.5824   23.5316 C   0  0  0  0  0  0  0  0  0  0  0  0
    7.4627   10.7534   25.4408 C   0  0  0  0  0  0  0  0  0  0  0  0
    9.0645   10.2494   23.8729 C   0  0  0  0  0  0  0  0  0  0  0  0
   10.1674   12.0263   22.5119 C   0  0  0  0  0  0  0  0  0  0  0  0
   12.0808   13.3937   22.1197 C   0  0  0  0  0  0  0  0  0  0  0  0
    6.5057   10.2731   26.4803 C   0  0  0  0  0  0  0  0  0  0  0  0
    8.1990    9.8090   24.8135 N   0  0  0  0  0  0  0  0  0  0  0  0
    9.8516    9.2834   23.1968 N   0  0  0  0  0  0  0  0  0  0  0  0
   10.1302   11.6736   21.3268 O   0  0  0  0  0  0  0  0  0  0  0  0
   11.0982   12.8849   23.0282 O   0  0  0  0  0  0  0  0  0  0  0  0
    5.7948   11.2766   27.0741 F   0  0  0  0  0  0  0  0  0  0  0  0
    5.5663    9.4069   25.9989 F   0  0  0  0  0  0  0  0  0  0  0  0
    7.1271    9.6114   27.4991 F   0  0  0  0  0  0  0  0  0  0  0  0
    8.5415   13.5826   23.9688 H   0  0  0  0  0  0  0  0  0  0  0  0
    6.9393   12.8347   25.7002 H   0  0  0  0  0  0  0  0  0  0  0  0
   12.7598   14.0630   22.6536 H   0  0  0  0  0  0  0  0  0  0  0  0
   11.5842   13.9322   21.3086 H   0  0  0  0  0  0  0  0  0  0  0  0
   12.6485   12.5573   21.7051 H   0  0  0  0  0  0  0  0  0  0  0  0
   10.4605    9.5844   22.4678 H   0  0  0  0  0  0  0  0  0  0  0  0
    9.7085    8.3187   23.4014 H   0  0  0  0  0  0  0  0  0  0  0  0
  1  2  2  0  0  0  0
  1  3  1  0  0  0  0
  2  4  1  0  0  0  0
  3  5  2  0  0  0  0
  3  6  1  0  0  0  0
  4  8  1  0  0  0  0
  4  9  2  0  0  0  0
  5  9  1  0  0  0  0
  5 10  1  0  0  0  0
  6 11  2  0  0  0  0
  6 12  1  0  0  0  0
  7 12  1  0  0  0  0
  8 13  1  0  0  0  0
  8 14  1  0  0  0  0
  8 15  1  0  0  0  0
  1 16  1  0  0  0  0
  2 17  1  0  0  0  0
  7 18  1  0  0  0  0
  7 19  1  0  0  0  0
  7 20  1  0  0  0  0
 10 21  1  0  0  0  0
 10 22  1  0  0  0  0
M  END
> <id>
EN300-9485690

> <smiles>
COC(=O)C=1C=CC(=NC1N)C(F)(F)F

> <MDLNUMBER>
MFCD16611587

> <IUPAC Name>
methyl 2-amino-6-(trifluoromethyl)pyridine-3-carboxylate

> <CAS>
1034131-63-9

> <URL>
https://www.enaminestore.com/catalog/EN300-9485690

> <ROCS_ShapeQuery>
_x1140_x0812_0A_x1140_0A_x1097_0A_x0365_0A_x1097_0A_x0310_0A

> <ROCS_TanimotoCombo>
0.627 

> <ROCS_ShapeTanimoto>
0.255 

> <ROCS_ColorTanimoto>
0.373 

> <ROCS_RefTversky>
0.226 

> <ROCS_RefColorTversky>
0.450 

> <ROCS_RefTverskyCombo>
0.676 

> <ROCS_FitTversky>
1.963 

> <ROCS_FitColorTversky>
0.685 

> <ROCS_FitTverskyCombo>
2.648 

> <ROCS_ColorScore>
-3.533

> <ROCS_Overlap>
2320.248

> <ROCS_Rank>
145                 

$$$$
untitled-dbase-432668_1
  -OEChem-02092423213D

 18 18  0     0  0  0  0  0  0999 V2000
    8.5204   12.5296   24.1373 C   0  0  0  0  0  0  0  0  0  0  0  0
    7.5407   12.0358   24.9915 C   0  0  0  0  0  0  0  0  0  0  0  0
    9.0853   10.2890   23.5741 C   0  0  0  0  0  0  0  0  0  0  0  0
    9.3117   11.6463   23.4115 C   0  0  0  0  0  0  0  0  0  0  0  0
    7.3935   10.6611   25.0833 C   0  0  0  0  0  0  0  0  0  0  0  0
    5.1959   10.8986   26.2408 C   0  0  0  0  0  0  0  0  0  0  0  0
    8.1433    9.7718   24.3943 N   0  0  0  0  0  0  0  0  0  0  0  0
   10.3097   12.1150   22.5417 N   0  0  0  0  0  0  0  0  0  0  0  0
    6.3917   10.1736   25.9593 N   0  0  0  0  0  0  0  0  0  0  0  0
    8.6589   13.6035   24.0442 H   0  0  0  0  0  0  0  0  0  0  0  0
    6.9191   12.7179   25.5621 H   0  0  0  0  0  0  0  0  0  0  0  0
    9.6710    9.5507   23.0347 H   0  0  0  0  0  0  0  0  0  0  0  0
    5.2008   11.8461   25.6819 H   0  0  0  0  0  0  0  0  0  0  0  0
    4.3243   10.2994   25.9388 H   0  0  0  0  0  0  0  0  0  0  0  0
    5.1403   11.1094   27.3190 H   0  0  0  0  0  0  0  0  0  0  0  0
   10.4230   13.1023   22.4062 H   0  0  0  0  0  0  0  0  0  0  0  0
   10.8351   11.4593   21.9941 H   0  0  0  0  0  0  0  0  0  0  0  0
    6.5609    9.2837   26.3816 H   0  0  0  0  0  0  0  0  0  0  0  0
  1  2  2  0  0  0  0
  1  4  1  0  0  0  0
  2  5  1  0  0  0  0
  3  4  2  0  0  0  0
  3  7  1  0  0  0  0
  4  8  1  0  0  0  0
  5  7  2  0  0  0  0
  5  9  1  0  0  0  0
  6  9  1  0  0  0  0
  1 10  1  0  0  0  0
  2 11  1  0  0  0  0
  3 12  1  0  0  0  0
  6 13  1  0  0  0  0
  6 14  1  0  0  0  0
  6 15  1  0  0  0  0
  8 16  1  0  0  0  0
  8 17  1  0  0  0  0
  9 18  1  0  0  0  0
M  END
> <id>
EN300-118254

> <smiles>
Cl.CNC=1C=CC(N)=CN1

> <MDLNUMBER>
MFCD09839774

> <IUPAC Name>
N2-methylpyridine-2,5-diamine hydrochloride

> <CAS>
117879-51-3

> <Purity>
95

> <URL>
https://www.enaminestore.com/catalog/EN300-118254

> <Saltdate>
Cl

> <MP>
239-241

> <ROCS_ShapeQuery>
_x1140_x0812_0A_x1140_0A_x1097_0A_x0365_0A_x1097_0A_x0310_0A

> <ROCS_TanimotoCombo>
0.627 

> <ROCS_ShapeTanimoto>
0.192 

> <ROCS_ColorTanimoto>
0.435 

> <ROCS_RefTversky>
0.175 

> <ROCS_RefColorTversky>
0.502 

> <ROCS_RefTverskyCombo>
0.678 

> <ROCS_FitTversky>
1.981 

> <ROCS_FitColorTversky>
0.765 

> <ROCS_FitTverskyCombo>
2.746 

> <ROCS_ColorScore>
-3.942

> <ROCS_Overlap>
1795.835

> <ROCS_Rank>
146                 

$$$$
untitled-dbase-59190_1
  -OEChem-02092423213D

 18 18  0     0  0  0  0  0  0999 V2000
    8.5204   12.5296   24.1373 C   0  0  0  0  0  0  0  0  0  0  0  0
    7.5407   12.0358   24.9915 C   0  0  0  0  0  0  0  0  0  0  0  0
    9.0853   10.2890   23.5741 C   0  0  0  0  0  0  0  0  0  0  0  0
    9.3117   11.6463   23.4115 C   0  0  0  0  0  0  0  0  0  0  0  0
    7.3935   10.6611   25.0833 C   0  0  0  0  0  0  0  0  0  0  0  0
    5.1959   10.8986   26.2408 C   0  0  0  0  0  0  0  0  0  0  0  0
    8.1433    9.7718   24.3943 N   0  0  0  0  0  0  0  0  0  0  0  0
   10.3097   12.1150   22.5417 N   0  0  0  0  0  0  0  0  0  0  0  0
    6.3917   10.1736   25.9593 N   0  0  0  0  0  0  0  0  0  0  0  0
    8.6589   13.6035   24.0442 H   0  0  0  0  0  0  0  0  0  0  0  0
    6.9191   12.7179   25.5621 H   0  0  0  0  0  0  0  0  0  0  0  0
    9.6710    9.5507   23.0347 H   0  0  0  0  0  0  0  0  0  0  0  0
    5.2008   11.8461   25.6819 H   0  0  0  0  0  0  0  0  0  0  0  0
    4.3243   10.2994   25.9388 H   0  0  0  0  0  0  0  0  0  0  0  0
    5.1403   11.1094   27.3190 H   0  0  0  0  0  0  0  0  0  0  0  0
   10.4230   13.1023   22.4062 H   0  0  0  0  0  0  0  0  0  0  0  0
   10.8351   11.4593   21.9941 H   0  0  0  0  0  0  0  0  0  0  0  0
    6.5609    9.2837   26.3816 H   0  0  0  0  0  0  0  0  0  0  0  0
  1  2  2  0  0  0  0
  1  4  1  0  0  0  0
  2  5  1  0  0  0  0
  3  4  2  0  0  0  0
  3  7  1  0  0  0  0
  4  8  1  0  0  0  0
  5  7  2  0  0  0  0
  5  9  1  0  0  0  0
  6  9  1  0  0  0  0
  1 10  1  0  0  0  0
  2 11  1  0  0  0  0
  3 12  1  0  0  0  0
  6 13  1  0  0  0  0
  6 14  1  0  0  0  0
  6 15  1  0  0  0  0
  8 16  1  0  0  0  0
  8 17  1  0  0  0  0
  9 18  1  0  0  0  0
M  END
> <id>
EN300-43273

> <smiles>
CNC=1C=CC(N)=CN1

> <MDLNUMBER>
MFCD08692343

> <IUPAC Name>
N2-methylpyridine-2,5-diamine

> <CAS>
28020-36-2

> <Purity>
95

> <URL>
https://www.enaminestore.com/catalog/EN300-43273

> <ROCS_ShapeQuery>
_x1140_x0812_0A_x1140_0A_x1097_0A_x0365_0A_x1097_0A_x0310_0A

> <ROCS_TanimotoCombo>
0.627 

> <ROCS_ShapeTanimoto>
0.192 

> <ROCS_ColorTanimoto>
0.435 

> <ROCS_RefTversky>
0.175 

> <ROCS_RefColorTversky>
0.502 

> <ROCS_RefTverskyCombo>
0.678 

> <ROCS_FitTversky>
1.981 

> <ROCS_FitColorTversky>
0.765 

> <ROCS_FitTverskyCombo>
2.746 

> <ROCS_ColorScore>
-3.942

> <ROCS_Overlap>
1795.835

> <ROCS_Rank>
147                 

$$$$
untitled-dbase-319011_4
  -OEChem-02092423213D

 32 32  0     0  0  0  0  0  0999 V2000
    7.6098   12.2150   25.2368 C   0  0  0  0  0  0  0  0  0  0  0  0
    8.5839   12.7309   24.3821 C   0  0  0  0  0  0  0  0  0  0  0  0
    8.3056    9.9706   24.6751 C   0  0  0  0  0  0  0  0  0  0  0  0
    7.4706   10.8349   25.3834 C   0  0  0  0  0  0  0  0  0  0  0  0
    9.4188   11.8667   23.6739 C   0  0  0  0  0  0  0  0  0  0  0  0
    9.2797   10.4865   23.8204 C   0  0  0  0  0  0  0  0  0  0  0  0
    6.4294   10.2833   26.2976 C   0  0  0  0  0  0  0  0  0  0  0  0
   12.5081   17.5781   22.5614 C   0  0  0  0  0  0  0  0  0  0  0  0
   11.6931   14.1088   21.6317 C   0  0  0  0  0  0  0  0  0  0  0  0
   10.5832   13.8117   22.6313 C   0  0  0  0  0  0  0  0  0  0  0  0
   11.9240   15.6018   21.4319 C   0  0  0  0  0  0  0  0  0  0  0  0
   10.1156    9.5936   23.1134 N   0  0  0  0  0  0  0  0  0  0  0  0
   10.3831   12.4021   22.8292 N   0  0  0  0  0  0  0  0  0  0  0  0
   12.3014   16.1768   22.6759 O   0  0  0  0  0  0  0  0  0  0  0  0
    6.9643   12.8960   25.7850 H   0  0  0  0  0  0  0  0  0  0  0  0
    8.6827   13.8082   24.2756 H   0  0  0  0  0  0  0  0  0  0  0  0
    8.1945    8.8947   24.7917 H   0  0  0  0  0  0  0  0  0  0  0  0
    5.4887   10.1276   25.7553 H   0  0  0  0  0  0  0  0  0  0  0  0
    6.7451    9.3246   26.7289 H   0  0  0  0  0  0  0  0  0  0  0  0
    6.2377   10.9622   27.1388 H   0  0  0  0  0  0  0  0  0  0  0  0
   12.7960   17.9854   23.5337 H   0  0  0  0  0  0  0  0  0  0  0  0
   11.5891   18.0556   22.2121 H   0  0  0  0  0  0  0  0  0  0  0  0
   13.3084   17.7617   21.8406 H   0  0  0  0  0  0  0  0  0  0  0  0
   12.6263   13.6484   21.9794 H   0  0  0  0  0  0  0  0  0  0  0  0
   11.4715   13.6426   20.6633 H   0  0  0  0  0  0  0  0  0  0  0  0
   10.8322   14.2386   23.6078 H   0  0  0  0  0  0  0  0  0  0  0  0
    9.6317   14.2418   22.3025 H   0  0  0  0  0  0  0  0  0  0  0  0
   12.7255   15.7864   20.7099 H   0  0  0  0  0  0  0  0  0  0  0  0
   11.0103   16.0945   21.0845 H   0  0  0  0  0  0  0  0  0  0  0  0
   10.0245    8.6122   23.2750 H   0  0  0  0  0  0  0  0  0  0  0  0
   10.8436    9.9630   22.5379 H   0  0  0  0  0  0  0  0  0  0  0  0
   10.9795   11.7530   22.3221 H   0  0  0  0  0  0  0  0  0  0  0  0
  1  2  2  0  0  0  0
  1  4  1  0  0  0  0
  2  5  1  0  0  0  0
  3  4  2  0  0  0  0
  3  6  1  0  0  0  0
  4  7  1  0  0  0  0
  5  6  2  0  0  0  0
  5 13  1  0  0  0  0
  6 12  1  0  0  0  0
  8 14  1  0  0  0  0
  9 10  1  0  0  0  0
  9 11  1  0  0  0  0
 10 13  1  0  0  0  0
 11 14  1  0  0  0  0
  1 15  1  0  0  0  0
  2 16  1  0  0  0  0
  3 17  1  0  0  0  0
  7 18  1  0  0  0  0
  7 19  1  0  0  0  0
  7 20  1  0  0  0  0
  8 21  1  0  0  0  0
  8 22  1  0  0  0  0
  8 23  1  0  0  0  0
  9 24  1  0  0  0  0
  9 25  1  0  0  0  0
 10 26  1  0  0  0  0
 10 27  1  0  0  0  0
 11 28  1  0  0  0  0
 11 29  1  0  0  0  0
 12 30  1  0  0  0  0
 12 31  1  0  0  0  0
 13 32  1  0  0  0  0
M  END
> <id>
EN300-1116096

> <smiles>
COCCCNC=1C=CC(C)=CC1N

> <MDLNUMBER>
MFCD11645570

> <IUPAC Name>
N1-(3-methoxypropyl)-4-methylbenzene-1,2-diamine

> <CAS>
1097791-59-7

> <URL>
https://www.enaminestore.com/catalog/EN300-1116096

> <ROCS_ShapeQuery>
_x1140_x0812_0A_x1140_0A_x1097_0A_x0365_0A_x1097_0A_x0310_0A

> <ROCS_TanimotoCombo>
0.627 

> <ROCS_ShapeTanimoto>
0.228 

> <ROCS_ColorTanimoto>
0.400 

> <ROCS_RefTversky>
0.205 

> <ROCS_RefColorTversky>
0.473 

> <ROCS_RefTverskyCombo>
0.678 

> <ROCS_FitTversky>
1.921 

> <ROCS_FitColorTversky>
0.721 

> <ROCS_FitTverskyCombo>
2.642 

> <ROCS_ColorScore>
-3.712

> <ROCS_Overlap>
2103.803

> <ROCS_Rank>
148                 

$$$$
untitled-dbase-282472_8
  -OEChem-02092423213D

 27 27  0     0  0  0  0  0  0999 V2000
    8.3358   12.4436   24.4211 C   0  0  0  0  0  0  0  0  0  0  0  0
    7.6600   11.7787   25.4244 C   0  0  0  0  0  0  0  0  0  0  0  0
    9.0398   11.6856   23.5020 C   0  0  0  0  0  0  0  0  0  0  0  0
    9.0215   10.3130   23.6472 C   0  0  0  0  0  0  0  0  0  0  0  0
    9.7639   12.3545   22.4300 C   0  0  0  0  0  0  0  0  0  0  0  0
   12.0729    9.4549   23.3828 C   0  0  0  0  0  0  0  0  0  0  0  0
   10.9994    7.5792   22.0884 C   0  0  0  0  0  0  0  0  0  0  0  0
   10.9207   14.3546   21.8419 C   0  0  0  0  0  0  0  0  0  0  0  0
   10.8073    8.6388   23.1635 C   0  0  0  0  0  0  0  0  0  0  0  0
    7.6594   10.4340   25.5423 N   0  0  0  0  0  0  0  0  0  0  0  0
    8.3516    9.6891   24.6392 N   0  0  0  0  0  0  0  0  0  0  0  0
    9.7091    9.5469   22.7519 N   0  0  0  0  0  0  0  0  0  0  0  0
    9.9650   11.8650   21.3119 O   0  0  0  0  0  0  0  0  0  0  0  0
   10.1941   13.5946   22.8135 O   0  0  0  0  0  0  0  0  0  0  0  0
    8.3084   13.5267   24.3650 H   0  0  0  0  0  0  0  0  0  0  0  0
    7.0905   12.3151   26.1744 H   0  0  0  0  0  0  0  0  0  0  0  0
   12.3854    9.9465   22.4558 H   0  0  0  0  0  0  0  0  0  0  0  0
   11.9236   10.2275   24.1454 H   0  0  0  0  0  0  0  0  0  0  0  0
   12.8948    8.8140   23.7205 H   0  0  0  0  0  0  0  0  0  0  0  0
   11.2938    8.0388   21.1385 H   0  0  0  0  0  0  0  0  0  0  0  0
   10.0728    7.0203   21.9218 H   0  0  0  0  0  0  0  0  0  0  0  0
   11.7833    6.8654   22.3654 H   0  0  0  0  0  0  0  0  0  0  0  0
   11.2050   15.3187   22.2707 H   0  0  0  0  0  0  0  0  0  0  0  0
   10.2977   14.5069   20.9570 H   0  0  0  0  0  0  0  0  0  0  0  0
   11.8213   13.8037   21.5606 H   0  0  0  0  0  0  0  0  0  0  0  0
   10.5138    8.1569   24.1024 H   0  0  0  0  0  0  0  0  0  0  0  0
    9.5000    9.5681   21.7784 H   0  0  0  0  0  0  0  0  0  0  0  0
  1  2  2  0  0  0  0
  1  3  1  0  0  0  0
  2 10  1  0  0  0  0
  3  4  2  0  0  0  0
  3  5  1  0  0  0  0
  4 11  1  0  0  0  0
  4 12  1  0  0  0  0
  5 13  2  0  0  0  0
  5 14  1  0  0  0  0
  6  9  1  0  0  0  0
  7  9  1  0  0  0  0
  8 14  1  0  0  0  0
  9 12  1  0  0  0  0
 10 11  2  0  0  0  0
  1 15  1  0  0  0  0
  2 16  1  0  0  0  0
  6 17  1  0  0  0  0
  6 18  1  0  0  0  0
  6 19  1  0  0  0  0
  7 20  1  0  0  0  0
  7 21  1  0  0  0  0
  7 22  1  0  0  0  0
  8 23  1  0  0  0  0
  8 24  1  0  0  0  0
  8 25  1  0  0  0  0
  9 26  1  0  0  0  0
 12 27  1  0  0  0  0
M  END
> <id>
EN300-6510401

> <smiles>
COC(=O)C=1C=CN=NC1NC(C)C

> <IUPAC Name>
methyl 3-[(propan-2-yl)amino]pyridazine-4-carboxylate

> <CAS>
2113870-79-2

> <URL>
https://www.enaminestore.com/catalog/EN300-6510401

> <ROCS_ShapeQuery>
_x1140_x0812_0A_x1140_0A_x1097_0A_x0365_0A_x1097_0A_x0310_0A

> <ROCS_TanimotoCombo>
0.627 

> <ROCS_ShapeTanimoto>
0.229 

> <ROCS_ColorTanimoto>
0.398 

> <ROCS_RefTversky>
0.207 

> <ROCS_RefColorTversky>
0.515 

> <ROCS_RefTverskyCombo>
0.722 

> <ROCS_FitTversky>
1.894 

> <ROCS_FitColorTversky>
0.637 

> <ROCS_FitTverskyCombo>
2.531 

> <ROCS_ColorScore>
-4.074

> <ROCS_Overlap>
2120.458

> <ROCS_Rank>
149                 

$$$$
untitled-dbase-497033_2
  -OEChem-02092423213D

 35 35  0     1  0  0  0  0  0999 V2000
    9.5793   11.1484   22.6577 C   0  0  0  0  0  0  0  0  0  0  0  0
    8.3707   11.6635   25.8809 C   0  0  0  0  0  0  0  0  0  0  0  0
    9.2363   12.3507   24.8221 C   0  0  0  0  0  0  0  0  0  0  0  0
    7.3546   11.1697   23.7855 C   0  0  0  0  0  0  0  0  0  0  0  0
    7.6837   10.5321   25.1309 C   0  0  2  0  0  0  0  0  0  0  0  0
    8.6146   11.9885   23.4565 C   0  0  2  0  0  0  0  0  0  0  0  0
   12.0953    9.8317   22.4780 C   0  0  0  0  0  0  0  0  0  0  0  0
   10.9566    7.8995   23.6090 C   0  0  0  0  0  0  0  0  0  0  0  0
   10.1594    8.6775   21.3579 C   0  0  0  0  0  0  0  0  0  0  0  0
    8.2883   13.2229   22.6196 C   0  0  0  0  0  0  0  0  0  0  0  0
   10.7677    9.1063   22.6924 C   0  0  0  0  0  0  0  0  0  0  0  0
    6.5229   10.0315   25.8083 N   0  0  0  0  0  0  0  0  0  0  0  0
   10.0268   11.4708   21.5655 O   0  0  0  0  0  0  0  0  0  0  0  0
    9.8589   10.0019   23.3406 O   0  0  0  0  0  0  0  0  0  0  0  0
    7.7317   12.8553   21.4555 F   0  0  0  0  0  0  0  0  0  0  0  0
    7.4297   14.0133   23.2813 F   0  0  0  0  0  0  0  0  0  0  0  0
    9.4090   13.9155   22.3656 F   0  0  0  0  0  0  0  0  0  0  0  0
    8.9634   11.3063   26.7292 H   0  0  0  0  0  0  0  0  0  0  0  0
    7.6361   12.3817   26.2681 H   0  0  0  0  0  0  0  0  0  0  0  0
    9.2550   13.4315   25.0021 H   0  0  0  0  0  0  0  0  0  0  0  0
   10.2712   11.9974   24.9043 H   0  0  0  0  0  0  0  0  0  0  0  0
    7.1221   10.4124   23.0279 H   0  0  0  0  0  0  0  0  0  0  0  0
    6.4804   11.8280   23.8773 H   0  0  0  0  0  0  0  0  0  0  0  0
    8.3999    9.7085   24.9797 H   0  0  0  0  0  0  0  0  0  0  0  0
   11.9640   10.6986   21.8206 H   0  0  0  0  0  0  0  0  0  0  0  0
   12.5248   10.1751   23.4248 H   0  0  0  0  0  0  0  0  0  0  0  0
   12.8233    9.1773   21.9849 H   0  0  0  0  0  0  0  0  0  0  0  0
   10.0065    7.3760   23.7656 H   0  0  0  0  0  0  0  0  0  0  0  0
   11.3034    8.2128   24.6004 H   0  0  0  0  0  0  0  0  0  0  0  0
   11.6803    7.1887   23.1972 H   0  0  0  0  0  0  0  0  0  0  0  0
    9.2071    8.1571   21.5114 H   0  0  0  0  0  0  0  0  0  0  0  0
    9.9825    9.5353   20.7011 H   0  0  0  0  0  0  0  0  0  0  0  0
   10.8174    7.9713   20.8387 H   0  0  0  0  0  0  0  0  0  0  0  0
    6.4204   10.5208   26.6685 H   0  0  0  0  0  0  0  0  0  0  0  0
    5.7277   10.1813   25.2293 H   0  0  0  0  0  0  0  0  0  0  0  0
  1  6  1  6  0  0  0
  1 13  2  0  0  0  0
  1 14  1  0  0  0  0
  2  3  1  0  0  0  0
  2  5  1  0  0  0  0
  3  6  1  0  0  0  0
  4  5  1  0  0  0  0
  4  6  1  0  0  0  0
  5 12  1  1  0  0  0
  6 10  1  1  0  0  0
  7 11  1  0  0  0  0
  8 11  1  0  0  0  0
  9 11  1  0  0  0  0
 10 15  1  0  0  0  0
 10 16  1  0  0  0  0
 10 17  1  0  0  0  0
 11 14  1  0  0  0  0
  2 18  1  0  0  0  0
  2 19  1  0  0  0  0
  3 20  1  0  0  0  0
  3 21  1  0  0  0  0
  4 22  1  0  0  0  0
  4 23  1  0  0  0  0
  5 24  1  0  0  0  0
  7 25  1  0  0  0  0
  7 26  1  0  0  0  0
  7 27  1  0  0  0  0
  8 28  1  0  0  0  0
  8 29  1  0  0  0  0
  8 30  1  0  0  0  0
  9 31  1  0  0  0  0
  9 32  1  0  0  0  0
  9 33  1  0  0  0  0
 12 34  1  0  0  0  0
 12 35  1  0  0  0  0
M  END
> <id>
EN300-28279385

> <smiles>
CC(C)(C)OC(=O)[C@@]1(CC[C@@H](N)C1)C(F)(F)F |&1:7,10,r|

> <IUPAC Name>
rac-tert-butyl (1R,3S)-3-amino-1-(trifluoromethyl)cyclopentane-1-carboxylate

> <CAS>
2679826-40-3

> <URL>
https://www.enaminestore.com/catalog/EN300-28279385

> <ROCS_ShapeQuery>
_x1140_x0812_0A_x1140_0A_x1097_0A_x0365_0A_x1097_0A_x0310_0A

> <ROCS_TanimotoCombo>
0.627 

> <ROCS_ShapeTanimoto>
0.227 

> <ROCS_ColorTanimoto>
0.400 

> <ROCS_RefTversky>
0.208 

> <ROCS_RefColorTversky>
0.473 

> <ROCS_RefTverskyCombo>
0.681 

> <ROCS_FitTversky>
1.698 

> <ROCS_FitColorTversky>
0.721 

> <ROCS_FitTverskyCombo>
2.419 

> <ROCS_ColorScore>
-3.713

> <ROCS_Overlap>
2130.685

> <ROCS_Rank>
150                 

$$$$
untitled-dbase-555650_0
  -OEChem-02092423213D

 22 23  0     0  0  0  0  0  0999 V2000
    7.6824   12.1543   25.1813 C   0  0  0  0  0  0  0  0  0  0  0  0
    8.6828   12.6041   24.3322 C   0  0  0  0  0  0  0  0  0  0  0  0
    7.4733   10.7956   25.2481 C   0  0  0  0  0  0  0  0  0  0  0  0
    9.4557   11.7049   23.5778 C   0  0  0  0  0  0  0  0  0  0  0  0
    9.2057   10.3310   23.7536 C   0  0  0  0  0  0  0  0  0  0  0  0
   11.6525   10.3798   21.6568 C   0  0  0  0  0  0  0  0  0  0  0  0
   10.6793   11.5292   21.4355 C   0  0  0  0  0  0  0  0  0  0  0  0
   11.3989    9.5588   22.9139 C   0  0  0  0  0  0  0  0  0  0  0  0
    8.2003    9.8899   24.5599 N   0  0  0  0  0  0  0  0  0  0  0  0
   10.3647   12.2287   22.6645 N   0  0  0  0  0  0  0  0  0  0  0  0
    9.9854    9.3437   23.1558 N   0  0  0  0  0  0  0  0  0  0  0  0
    7.0782   12.8476   25.7542 H   0  0  0  0  0  0  0  0  0  0  0  0
    8.8439   13.6763   24.2371 H   0  0  0  0  0  0  0  0  0  0  0  0
    6.6956   10.3801   25.8798 H   0  0  0  0  0  0  0  0  0  0  0  0
   11.6150    9.7224   20.7791 H   0  0  0  0  0  0  0  0  0  0  0  0
   12.6764   10.7719   21.7009 H   0  0  0  0  0  0  0  0  0  0  0  0
   11.1250   12.2373   20.7271 H   0  0  0  0  0  0  0  0  0  0  0  0
    9.7586   11.1682   20.9593 H   0  0  0  0  0  0  0  0  0  0  0  0
   11.8927    8.5861   22.8043 H   0  0  0  0  0  0  0  0  0  0  0  0
   11.8655   10.0347   23.7861 H   0  0  0  0  0  0  0  0  0  0  0  0
   10.5600   13.2230   22.7062 H   0  0  0  0  0  0  0  0  0  0  0  0
    9.6851    8.3900   23.3277 H   0  0  0  0  0  0  0  0  0  0  0  0
  1  2  2  0  0  0  0
  1  3  1  0  0  0  0
  2  4  1  0  0  0  0
  3  9  2  0  0  0  0
  4  5  2  0  0  0  0
  4 10  1  0  0  0  0
  5  9  1  0  0  0  0
  5 11  1  0  0  0  0
  6  7  1  0  0  0  0
  6  8  1  0  0  0  0
  7 10  1  0  0  0  0
  8 11  1  0  0  0  0
  1 12  1  0  0  0  0
  2 13  1  0  0  0  0
  3 14  1  0  0  0  0
  6 15  1  0  0  0  0
  6 16  1  0  0  0  0
  7 17  1  0  0  0  0
  7 18  1  0  0  0  0
  8 19  1  0  0  0  0
  8 20  1  0  0  0  0
 10 21  1  0  0  0  0
 11 22  1  0  0  0  0
M  END
> <id>
EN300-106712

> <smiles>
C1CNC=2C=CC=NC2NC1

> <MDLNUMBER>
MFCD22375280

> <IUPAC Name>
1H,2H,3H,4H,5H-pyrido[2,3-b][1,4]diazepine

> <CAS>
1384591-76-7

> <Purity>
95

> <URL>
https://www.enaminestore.com/catalog/EN300-106712

> <ROCS_ShapeQuery>
_x1140_x0812_0A_x1140_0A_x1097_0A_x0365_0A_x1097_0A_x0310_0A

> <ROCS_TanimotoCombo>
0.627 

> <ROCS_ShapeTanimoto>
0.209 

> <ROCS_ColorTanimoto>
0.418 

> <ROCS_RefTversky>
0.190 

> <ROCS_RefColorTversky>
0.488 

> <ROCS_RefTverskyCombo>
0.678 

> <ROCS_FitTversky>
1.935 

> <ROCS_FitColorTversky>
0.743 

> <ROCS_FitTverskyCombo>
2.678 

> <ROCS_ColorScore>
-3.830

> <ROCS_Overlap>
1946.255

> <ROCS_Rank>
151                 

$$$$
untitled-dbase-515223_0
  -OEChem-02092423213D

 15 15  0     0  0  0  0  0  0999 V2000
   10.9986    8.7399   22.5388 C   0  0  0  0  0  0  0  0  0  0  0  0
   10.2316    9.5043   23.0576 C   0  0  0  0  0  0  0  0  0  0  0  0
    8.4227   12.5789   24.0835 C   0  0  0  0  0  0  0  0  0  0  0  0
    7.5453   10.6263   25.1199 C   0  0  0  0  0  0  0  0  0  0  0  0
    9.3191   10.4141   23.6753 C   0  0  0  0  0  0  0  0  0  0  0  0
    9.3543   11.7778   23.4325 C   0  0  0  0  0  0  0  0  0  0  0  0
    7.4975   11.9999   24.9449 C   0  0  0  0  0  0  0  0  0  0  0  0
    8.4354    9.8155   24.5050 N   0  0  0  0  0  0  0  0  0  0  0  0
   10.2922   12.3598   22.5598 N   0  0  0  0  0  0  0  0  0  0  0  0
    6.5901   12.7461   25.5846 F   0  0  0  0  0  0  0  0  0  0  0  0
   11.6793    8.0623   22.0787 H   0  0  0  0  0  0  0  0  0  0  0  0
    8.4075   13.6542   23.9272 H   0  0  0  0  0  0  0  0  0  0  0  0
    6.8459   10.1265   25.7818 H   0  0  0  0  0  0  0  0  0  0  0  0
   10.2498   13.3439   22.3786 H   0  0  0  0  0  0  0  0  0  0  0  0
   10.9286   11.7703   22.0592 H   0  0  0  0  0  0  0  0  0  0  0  0
  1  2  3  0  0  0  0
  2  5  1  0  0  0  0
  3  6  1  0  0  0  0
  3  7  2  0  0  0  0
  4  7  1  0  0  0  0
  4  8  2  0  0  0  0
  5  6  2  0  0  0  0
  5  8  1  0  0  0  0
  6  9  1  0  0  0  0
  7 10  1  0  0  0  0
  1 11  1  0  0  0  0
  3 12  1  0  0  0  0
  4 13  1  0  0  0  0
  9 14  1  0  0  0  0
  9 15  1  0  0  0  0
M  END
> <id>
EN300-7672053

> <smiles>
NC=1C=C(F)C=NC1C#C

> <MDLNUMBER>
MFCD22191661

> <IUPAC Name>
2-ethynyl-5-fluoropyridin-3-amine

> <CAS>
1824187-37-2

> <Purity>
95

> <URL>
https://www.enaminestore.com/catalog/EN300-7672053

> <ROCS_ShapeQuery>
_x1140_x0812_0A_x1140_0A_x1097_0A_x0365_0A_x1097_0A_x0310_0A

> <ROCS_TanimotoCombo>
0.627 

> <ROCS_ShapeTanimoto>
0.212 

> <ROCS_ColorTanimoto>
0.415 

> <ROCS_RefTversky>
0.191 

> <ROCS_RefColorTversky>
0.485 

> <ROCS_RefTverskyCombo>
0.677 

> <ROCS_FitTversky>
2.051 

> <ROCS_FitColorTversky>
0.740 

> <ROCS_FitTverskyCombo>
2.791 

> <ROCS_ColorScore>
-3.811

> <ROCS_Overlap>
1958.415

> <ROCS_Rank>
152                 

$$$$
untitled-dbase-167898_6
  -OEChem-02092423213D

 23 23  0     0  0  0  0  0  0999 V2000
    8.8246   12.5833   24.3577 C   0  0  0  0  0  0  0  0  0  0  0  0
    7.6802   10.7671   25.3815 C   0  0  0  0  0  0  0  0  0  0  0  0
    9.3512   11.6898   23.4316 C   0  0  0  0  0  0  0  0  0  0  0  0
    7.9723   12.1213   25.3544 C   0  0  0  0  0  0  0  0  0  0  0  0
    8.9974   10.3549   23.5449 C   0  0  0  0  0  0  0  0  0  0  0  0
   11.3519    8.2616   23.6120 C   0  0  0  0  0  0  0  0  0  0  0  0
   11.3223    8.9309   21.1824 C   0  0  0  0  0  0  0  0  0  0  0  0
   10.9099    9.3055   22.5978 C   0  0  0  0  0  0  0  0  0  0  0  0
    8.1725    9.8688   24.4993 N   0  0  0  0  0  0  0  0  0  0  0  0
   10.2141   12.1436   22.4185 N   0  0  0  0  0  0  0  0  0  0  0  0
    9.4932    9.4421   22.6529 O   0  0  0  0  0  0  0  0  0  0  0  0
    7.4516   12.9589   26.2582 F   0  0  0  0  0  0  0  0  0  0  0  0
    9.0704   13.6409   24.3117 H   0  0  0  0  0  0  0  0  0  0  0  0
    7.0220   10.3575   26.1405 H   0  0  0  0  0  0  0  0  0  0  0  0
   10.9342    7.2779   23.3772 H   0  0  0  0  0  0  0  0  0  0  0  0
   12.4443    8.1835   23.6270 H   0  0  0  0  0  0  0  0  0  0  0  0
   11.0431    8.5406   24.6255 H   0  0  0  0  0  0  0  0  0  0  0  0
   10.9039    7.9631   20.8897 H   0  0  0  0  0  0  0  0  0  0  0  0
   12.4135    8.8784   21.1047 H   0  0  0  0  0  0  0  0  0  0  0  0
   10.9918    9.6876   20.4623 H   0  0  0  0  0  0  0  0  0  0  0  0
   11.3434   10.2761   22.8599 H   0  0  0  0  0  0  0  0  0  0  0  0
   10.4092   13.1234   22.3405 H   0  0  0  0  0  0  0  0  0  0  0  0
   10.5482   11.4963   21.7303 H   0  0  0  0  0  0  0  0  0  0  0  0
  1  3  1  0  0  0  0
  1  4  2  0  0  0  0
  2  4  1  0  0  0  0
  2  9  2  0  0  0  0
  3  5  2  0  0  0  0
  3 10  1  0  0  0  0
  4 12  1  0  0  0  0
  5  9  1  0  0  0  0
  5 11  1  0  0  0  0
  6  8  1  0  0  0  0
  7  8  1  0  0  0  0
  8 11  1  0  0  0  0
  1 13  1  0  0  0  0
  2 14  1  0  0  0  0
  6 15  1  0  0  0  0
  6 16  1  0  0  0  0
  6 17  1  0  0  0  0
  7 18  1  0  0  0  0
  7 19  1  0  0  0  0
  7 20  1  0  0  0  0
  8 21  1  0  0  0  0
 10 22  1  0  0  0  0
 10 23  1  0  0  0  0
M  END
> <id>
EN300-1295680

> <smiles>
CC(C)OC=1N=CC(F)=CC1N

> <MDLNUMBER>
MFCD23113947

> <IUPAC Name>
5-fluoro-2-(propan-2-yloxy)pyridin-3-amine

> <CAS>
1394933-01-7

> <URL>
https://www.enaminestore.com/catalog/EN300-1295680

> <ROCS_ShapeQuery>
_x1140_x0812_0A_x1140_0A_x1097_0A_x0365_0A_x1097_0A_x0310_0A

> <ROCS_TanimotoCombo>
0.627 

> <ROCS_ShapeTanimoto>
0.214 

> <ROCS_ColorTanimoto>
0.413 

> <ROCS_RefTversky>
0.194 

> <ROCS_RefColorTversky>
0.518 

> <ROCS_RefTverskyCombo>
0.712 

> <ROCS_FitTversky>
1.923 

> <ROCS_FitColorTversky>
0.670 

> <ROCS_FitTverskyCombo>
2.593 

> <ROCS_ColorScore>
-4.092

> <ROCS_Overlap>
1989.145

> <ROCS_Rank>
153                 

$$$$
untitled-dbase-395451_2
  -OEChem-02092423213D

 31 31  0     0  0  0  0  0  0999 V2000
    8.3875   12.8762   25.4170 C   0  0  0  0  0  0  0  0  0  0  0  0
    9.2075   12.4275   24.3876 C   0  0  0  0  0  0  0  0  0  0  0  0
    7.3905   12.0456   25.9163 C   0  0  0  0  0  0  0  0  0  0  0  0
    8.9913   11.1503   23.8961 C   0  0  0  0  0  0  0  0  0  0  0  0
    7.2555   10.7855   25.3561 C   0  0  0  0  0  0  0  0  0  0  0  0
    9.8386   10.6178   22.7992 C   0  0  0  0  0  0  0  0  0  0  0  0
   12.4145    9.8993   21.8240 C   0  0  0  0  0  0  0  0  0  0  0  0
   11.9803    7.6622   22.8805 C   0  0  0  0  0  0  0  0  0  0  0  0
   10.4944    8.4799   21.0280 C   0  0  0  0  0  0  0  0  0  0  0  0
    5.9929    8.6336   25.3838 C   0  0  0  0  0  0  0  0  0  0  0  0
   11.3431    8.8887   22.2311 C   0  0  0  0  0  0  0  0  0  0  0  0
    8.0330   10.3147   24.3554 N   0  0  0  0  0  0  0  0  0  0  0  0
    6.2349    9.9507   25.8754 N   0  0  0  0  0  0  0  0  0  0  0  0
    9.9160   11.1408   21.6984 O   0  0  0  0  0  0  0  0  0  0  0  0
   10.4912    9.4964   23.2030 O   0  0  0  0  0  0  0  0  0  0  0  0
    8.5244   13.8715   25.8289 H   0  0  0  0  0  0  0  0  0  0  0  0
    9.9892   13.0668   23.9910 H   0  0  0  0  0  0  0  0  0  0  0  0
    6.7464   12.3871   26.7200 H   0  0  0  0  0  0  0  0  0  0  0  0
   11.9611   10.7812   21.3575 H   0  0  0  0  0  0  0  0  0  0  0  0
   13.0075   10.2270   22.6841 H   0  0  0  0  0  0  0  0  0  0  0  0
   13.0937    9.4701   21.0786 H   0  0  0  0  0  0  0  0  0  0  0  0
   11.2152    6.9344   23.1742 H   0  0  0  0  0  0  0  0  0  0  0  0
   12.5121    7.9383   23.7982 H   0  0  0  0  0  0  0  0  0  0  0  0
   12.6870    7.1689   22.2053 H   0  0  0  0  0  0  0  0  0  0  0  0
    9.7259    7.7551   21.3198 H   0  0  0  0  0  0  0  0  0  0  0  0
    9.9997    9.3433   20.5714 H   0  0  0  0  0  0  0  0  0  0  0  0
   11.1100    7.9881   20.2661 H   0  0  0  0  0  0  0  0  0  0  0  0
    6.7059    8.4057   24.5778 H   0  0  0  0  0  0  0  0  0  0  0  0
    6.1195    7.9083   26.2011 H   0  0  0  0  0  0  0  0  0  0  0  0
    4.9663    8.5708   24.9936 H   0  0  0  0  0  0  0  0  0  0  0  0
    5.6790   10.3300   26.6145 H   0  0  0  0  0  0  0  0  0  0  0  0
  1  2  1  0  0  0  0
  1  3  2  0  0  0  0
  2  4  2  0  0  0  0
  3  5  1  0  0  0  0
  4  6  1  0  0  0  0
  4 12  1  0  0  0  0
  5 12  2  0  0  0  0
  5 13  1  0  0  0  0
  6 14  2  0  0  0  0
  6 15  1  0  0  0  0
  7 11  1  0  0  0  0
  8 11  1  0  0  0  0
  9 11  1  0  0  0  0
 10 13  1  0  0  0  0
 11 15  1  0  0  0  0
  1 16  1  0  0  0  0
  2 17  1  0  0  0  0
  3 18  1  0  0  0  0
  7 19  1  0  0  0  0
  7 20  1  0  0  0  0
  7 21  1  0  0  0  0
  8 22  1  0  0  0  0
  8 23  1  0  0  0  0
  8 24  1  0  0  0  0
  9 25  1  0  0  0  0
  9 26  1  0  0  0  0
  9 27  1  0  0  0  0
 10 28  1  0  0  0  0
 10 29  1  0  0  0  0
 10 30  1  0  0  0  0
 13 31  1  0  0  0  0
M  END
> <id>
EN300-6508810

> <smiles>
CNC=1C=CC=C(N1)C(=O)OC(C)(C)C

> <MDLNUMBER>
MFCD29761091

> <IUPAC Name>
tert-butyl 6-(methylamino)pyridine-2-carboxylate

> <CAS>
2089310-97-2

> <URL>
https://www.enaminestore.com/catalog/EN300-6508810

> <ROCS_ShapeQuery>
_x1140_x0812_0A_x1140_0A_x1097_0A_x0365_0A_x1097_0A_x0310_0A

> <ROCS_TanimotoCombo>
0.626 

> <ROCS_ShapeTanimoto>
0.214 

> <ROCS_ColorTanimoto>
0.413 

> <ROCS_RefTversky>
0.196 

> <ROCS_RefColorTversky>
0.484 

> <ROCS_RefTverskyCombo>
0.680 

> <ROCS_FitTversky>
1.728 

> <ROCS_FitColorTversky>
0.738 

> <ROCS_FitTverskyCombo>
2.466 

> <ROCS_ColorScore>
-3.799

> <ROCS_Overlap>
2009.940

> <ROCS_Rank>
154                 

$$$$
untitled-dbase-477387_8
  -OEChem-02092423213D

 38 38  0     0  0  0  0  0  0999 V2000
    9.9674   11.2637   22.8289 C   0  0  0  0  0  0  0  0  0  0  0  0
    9.7194   11.8158   25.2506 C   0  0  0  0  0  0  0  0  0  0  0  0
    8.0128   12.6244   23.5323 C   0  0  0  0  0  0  0  0  0  0  0  0
    8.7218   10.7538   25.7220 C   0  0  0  0  0  0  0  0  0  0  0  0
    7.0406   11.5445   24.0147 C   0  0  0  0  0  0  0  0  0  0  0  0
    9.4770   12.2845   23.8150 C   0  0  0  0  0  0  0  0  0  0  0  0
    7.2537   11.1558   25.4895 C   0  0  0  0  0  0  0  0  0  0  0  0
    6.8306   12.2936   26.4348 C   0  0  0  0  0  0  0  0  0  0  0  0
   12.0985    9.6623   21.8337 C   0  0  0  0  0  0  0  0  0  0  0  0
   11.4322    8.0053   23.6000 C   0  0  0  0  0  0  0  0  0  0  0  0
    9.8101    8.6158   21.7823 C   0  0  0  0  0  0  0  0  0  0  0  0
   10.9445    9.1178   22.6743 C   0  0  0  0  0  0  0  0  0  0  0  0
    6.4055    9.9911   25.7851 N   0  0  0  0  0  0  0  0  0  0  0  0
    9.9332   11.4122   21.6148 O   0  0  0  0  0  0  0  0  0  0  0  0
   10.4427   10.1750   23.4980 O   0  0  0  0  0  0  0  0  0  0  0  0
    9.6631   12.6823   25.9205 H   0  0  0  0  0  0  0  0  0  0  0  0
   10.7362   11.4165   25.3529 H   0  0  0  0  0  0  0  0  0  0  0  0
    7.8624   12.7815   22.4569 H   0  0  0  0  0  0  0  0  0  0  0  0
    7.7665   13.5758   24.0188 H   0  0  0  0  0  0  0  0  0  0  0  0
    8.9394    9.8189   25.1873 H   0  0  0  0  0  0  0  0  0  0  0  0
    8.8991   10.5441   26.7849 H   0  0  0  0  0  0  0  0  0  0  0  0
    6.0127   11.8964   23.8566 H   0  0  0  0  0  0  0  0  0  0  0  0
    7.1579   10.6588   23.3760 H   0  0  0  0  0  0  0  0  0  0  0  0
   10.0809   13.1821   23.6310 H   0  0  0  0  0  0  0  0  0  0  0  0
    5.7936   12.5513   26.2445 H   0  0  0  0  0  0  0  0  0  0  0  0
    7.4599   13.1599   26.2578 H   0  0  0  0  0  0  0  0  0  0  0  0
    6.9421   11.9656   27.4634 H   0  0  0  0  0  0  0  0  0  0  0  0
   11.7525   10.4610   21.1679 H   0  0  0  0  0  0  0  0  0  0  0  0
   12.9036   10.0574   22.4617 H   0  0  0  0  0  0  0  0  0  0  0  0
   12.5149    8.8805   21.1882 H   0  0  0  0  0  0  0  0  0  0  0  0
   10.6075    7.6117   24.2051 H   0  0  0  0  0  0  0  0  0  0  0  0
   12.1794    8.3848   24.3063 H   0  0  0  0  0  0  0  0  0  0  0  0
   11.8757    7.1772   23.0377 H   0  0  0  0  0  0  0  0  0  0  0  0
    8.9822    8.2251   22.3850 H   0  0  0  0  0  0  0  0  0  0  0  0
    9.4225    9.4107   21.1369 H   0  0  0  0  0  0  0  0  0  0  0  0
   10.1493    7.7878   21.1493 H   0  0  0  0  0  0  0  0  0  0  0  0
    5.7908   10.2457   26.5171 H   0  0  0  0  0  0  0  0  0  0  0  0
    5.9073    9.7665   24.9605 H   0  0  0  0  0  0  0  0  0  0  0  0
  1  6  1  0  0  0  0
  1 14  2  0  0  0  0
  1 15  1  0  0  0  0
  2  4  1  0  0  0  0
  2  6  1  0  0  0  0
  3  5  1  0  0  0  0
  3  6  1  0  0  0  0
  4  7  1  0  0  0  0
  5  7  1  0  0  0  0
  7  8  1  0  0  0  0
  7 13  1  0  0  0  0
  9 12  1  0  0  0  0
 10 12  1  0  0  0  0
 11 12  1  0  0  0  0
 12 15  1  0  0  0  0
  2 16  1  0  0  0  0
  2 17  1  0  0  0  0
  3 18  1  0  0  0  0
  3 19  1  0  0  0  0
  4 20  1  0  0  0  0
  4 21  1  0  0  0  0
  5 22  1  0  0  0  0
  5 23  1  0  0  0  0
  6 24  1  0  0  0  0
  8 25  1  0  0  0  0
  8 26  1  0  0  0  0
  8 27  1  0  0  0  0
  9 28  1  0  0  0  0
  9 29  1  0  0  0  0
  9 30  1  0  0  0  0
 10 31  1  0  0  0  0
 10 32  1  0  0  0  0
 10 33  1  0  0  0  0
 11 34  1  0  0  0  0
 11 35  1  0  0  0  0
 11 36  1  0  0  0  0
 13 37  1  0  0  0  0
 13 38  1  0  0  0  0
M  END
> <id>
EN300-27734990

> <smiles>
CC(C)(C)OC(=O)C1CCC(C)(N)CC1

> <MDLNUMBER>
MFCD33031741

> <IUPAC Name>
tert-butyl 4-amino-4-methylcyclohexane-1-carboxylate

> <CAS>
2387920-49-0

> <URL>
https://www.enaminestore.com/catalog/EN300-27734990

> <ROCS_ShapeQuery>
_x1140_x0812_0A_x1140_0A_x1097_0A_x0365_0A_x1097_0A_x0310_0A

> <ROCS_TanimotoCombo>
0.626 

> <ROCS_ShapeTanimoto>
0.217 

> <ROCS_ColorTanimoto>
0.409 

> <ROCS_RefTversky>
0.198 

> <ROCS_RefColorTversky>
0.481 

> <ROCS_RefTverskyCombo>
0.679 

> <ROCS_FitTversky>
1.790 

> <ROCS_FitColorTversky>
0.733 

> <ROCS_FitTverskyCombo>
2.522 

> <ROCS_ColorScore>
-3.774

> <ROCS_Overlap>
2033.844

> <ROCS_Rank>
155                 

$$$$
untitled-dbase-314811_8
  -OEChem-02092423213D

 38 38  0     0  0  0  0  0  0999 V2000
    9.9674   11.2637   22.8289 C   0  0  0  0  0  0  0  0  0  0  0  0
    9.7194   11.8158   25.2506 C   0  0  0  0  0  0  0  0  0  0  0  0
    8.0128   12.6244   23.5323 C   0  0  0  0  0  0  0  0  0  0  0  0
    8.7218   10.7538   25.7220 C   0  0  0  0  0  0  0  0  0  0  0  0
    7.0406   11.5445   24.0147 C   0  0  0  0  0  0  0  0  0  0  0  0
    9.4770   12.2845   23.8150 C   0  0  0  0  0  0  0  0  0  0  0  0
    7.2537   11.1558   25.4895 C   0  0  0  0  0  0  0  0  0  0  0  0
    6.8306   12.2936   26.4348 C   0  0  0  0  0  0  0  0  0  0  0  0
   12.0985    9.6623   21.8337 C   0  0  0  0  0  0  0  0  0  0  0  0
   11.4322    8.0053   23.6000 C   0  0  0  0  0  0  0  0  0  0  0  0
    9.8101    8.6158   21.7823 C   0  0  0  0  0  0  0  0  0  0  0  0
   10.9445    9.1178   22.6743 C   0  0  0  0  0  0  0  0  0  0  0  0
    6.4055    9.9911   25.7851 N   0  0  0  0  0  0  0  0  0  0  0  0
    9.9332   11.4122   21.6148 O   0  0  0  0  0  0  0  0  0  0  0  0
   10.4427   10.1750   23.4980 O   0  0  0  0  0  0  0  0  0  0  0  0
    9.6631   12.6823   25.9205 H   0  0  0  0  0  0  0  0  0  0  0  0
   10.7362   11.4165   25.3529 H   0  0  0  0  0  0  0  0  0  0  0  0
    7.8624   12.7815   22.4569 H   0  0  0  0  0  0  0  0  0  0  0  0
    7.7665   13.5758   24.0188 H   0  0  0  0  0  0  0  0  0  0  0  0
    8.9394    9.8189   25.1873 H   0  0  0  0  0  0  0  0  0  0  0  0
    8.8991   10.5441   26.7849 H   0  0  0  0  0  0  0  0  0  0  0  0
    6.0127   11.8964   23.8566 H   0  0  0  0  0  0  0  0  0  0  0  0
    7.1579   10.6588   23.3760 H   0  0  0  0  0  0  0  0  0  0  0  0
   10.0809   13.1821   23.6310 H   0  0  0  0  0  0  0  0  0  0  0  0
    5.7936   12.5513   26.2445 H   0  0  0  0  0  0  0  0  0  0  0  0
    7.4599   13.1599   26.2578 H   0  0  0  0  0  0  0  0  0  0  0  0
    6.9421   11.9656   27.4634 H   0  0  0  0  0  0  0  0  0  0  0  0
   11.7525   10.4610   21.1679 H   0  0  0  0  0  0  0  0  0  0  0  0
   12.9036   10.0574   22.4617 H   0  0  0  0  0  0  0  0  0  0  0  0
   12.5149    8.8805   21.1882 H   0  0  0  0  0  0  0  0  0  0  0  0
   10.6075    7.6117   24.2051 H   0  0  0  0  0  0  0  0  0  0  0  0
   12.1794    8.3848   24.3063 H   0  0  0  0  0  0  0  0  0  0  0  0
   11.8757    7.1772   23.0377 H   0  0  0  0  0  0  0  0  0  0  0  0
    8.9822    8.2251   22.3850 H   0  0  0  0  0  0  0  0  0  0  0  0
    9.4225    9.4107   21.1369 H   0  0  0  0  0  0  0  0  0  0  0  0
   10.1493    7.7878   21.1493 H   0  0  0  0  0  0  0  0  0  0  0  0
    5.7908   10.2457   26.5171 H   0  0  0  0  0  0  0  0  0  0  0  0
    5.9073    9.7665   24.9605 H   0  0  0  0  0  0  0  0  0  0  0  0
  1  6  1  0  0  0  0
  1 14  2  0  0  0  0
  1 15  1  0  0  0  0
  2  4  1  0  0  0  0
  2  6  1  0  0  0  0
  3  5  1  0  0  0  0
  3  6  1  0  0  0  0
  4  7  1  0  0  0  0
  5  7  1  0  0  0  0
  7  8  1  0  0  0  0
  7 13  1  0  0  0  0
  9 12  1  0  0  0  0
 10 12  1  0  0  0  0
 11 12  1  0  0  0  0
 12 15  1  0  0  0  0
  2 16  1  0  0  0  0
  2 17  1  0  0  0  0
  3 18  1  0  0  0  0
  3 19  1  0  0  0  0
  4 20  1  0  0  0  0
  4 21  1  0  0  0  0
  5 22  1  0  0  0  0
  5 23  1  0  0  0  0
  6 24  1  0  0  0  0
  8 25  1  0  0  0  0
  8 26  1  0  0  0  0
  8 27  1  0  0  0  0
  9 28  1  0  0  0  0
  9 29  1  0  0  0  0
  9 30  1  0  0  0  0
 10 31  1  0  0  0  0
 10 32  1  0  0  0  0
 10 33  1  0  0  0  0
 11 34  1  0  0  0  0
 11 35  1  0  0  0  0
 11 36  1  0  0  0  0
 13 37  1  0  0  0  0
 13 38  1  0  0  0  0
M  END
> <id>
EN300-27160264

> <smiles>
Cl.CC(C)(C)OC(=O)C1CCC(C)(N)CC1

> <MDLNUMBER>
MFCD33031534

> <IUPAC Name>
tert-butyl 4-amino-4-methylcyclohexane-1-carboxylate hydrochloride

> <CAS>
2613385-38-7

> <Purity>
95

> <URL>
https://www.enaminestore.com/catalog/EN300-27160264

> <Saltdate>
Cl

> <ROCS_ShapeQuery>
_x1140_x0812_0A_x1140_0A_x1097_0A_x0365_0A_x1097_0A_x0310_0A

> <ROCS_TanimotoCombo>
0.626 

> <ROCS_ShapeTanimoto>
0.217 

> <ROCS_ColorTanimoto>
0.409 

> <ROCS_RefTversky>
0.198 

> <ROCS_RefColorTversky>
0.481 

> <ROCS_RefTverskyCombo>
0.679 

> <ROCS_FitTversky>
1.790 

> <ROCS_FitColorTversky>
0.733 

> <ROCS_FitTverskyCombo>
2.522 

> <ROCS_ColorScore>
-3.774

> <ROCS_Overlap>
2033.844

> <ROCS_Rank>
156                 

$$$$
untitled-dbase-591731_0
  -OEChem-02092423213D

 15 15  0     0  0  0  0  0  0999 V2000
   11.0006    8.7388   22.5452 C   0  0  0  0  0  0  0  0  0  0  0  0
   10.2328    9.5041   23.0616 C   0  0  0  0  0  0  0  0  0  0  0  0
    8.4179   12.5801   24.0715 C   0  0  0  0  0  0  0  0  0  0  0  0
    7.4932   12.0038   24.9354 C   0  0  0  0  0  0  0  0  0  0  0  0
    9.3193   10.4150   23.6756 C   0  0  0  0  0  0  0  0  0  0  0  0
    9.3517   11.7775   23.4256 C   0  0  0  0  0  0  0  0  0  0  0  0
    7.5439   10.6312   25.1176 C   0  0  0  0  0  0  0  0  0  0  0  0
    8.4363    9.8191   24.5079 N   0  0  0  0  0  0  0  0  0  0  0  0
   10.2872   12.3569   22.5482 N   0  0  0  0  0  0  0  0  0  0  0  0
    6.6581   10.0628   25.9503 F   0  0  0  0  0  0  0  0  0  0  0  0
   11.6814    8.0601   22.0868 H   0  0  0  0  0  0  0  0  0  0  0  0
    8.4013   13.6546   23.9092 H   0  0  0  0  0  0  0  0  0  0  0  0
    6.7565   12.6104   25.4496 H   0  0  0  0  0  0  0  0  0  0  0  0
   10.2411   13.3395   22.3605 H   0  0  0  0  0  0  0  0  0  0  0  0
   10.9253   11.7661   22.0514 H   0  0  0  0  0  0  0  0  0  0  0  0
  1  2  3  0  0  0  0
  2  5  1  0  0  0  0
  3  4  2  0  0  0  0
  3  6  1  0  0  0  0
  4  7  1  0  0  0  0
  5  6  2  0  0  0  0
  5  8  1  0  0  0  0
  6  9  1  0  0  0  0
  7  8  2  0  0  0  0
  7 10  1  0  0  0  0
  1 11  1  0  0  0  0
  3 12  1  0  0  0  0
  4 13  1  0  0  0  0
  9 14  1  0  0  0  0
  9 15  1  0  0  0  0
M  END
> <id>
EN300-7551269

> <smiles>
NC=1C=CC(F)=NC1C#C

> <MDLNUMBER>
MFCD22191683

> <IUPAC Name>
2-ethynyl-6-fluoropyridin-3-amine

> <CAS>
1824462-44-3

> <Purity>
95

> <URL>
https://www.enaminestore.com/catalog/EN300-7551269

> <ROCS_ShapeQuery>
_x1140_x0812_0A_x1140_0A_x1097_0A_x0365_0A_x1097_0A_x0310_0A

> <ROCS_TanimotoCombo>
0.626 

> <ROCS_ShapeTanimoto>
0.212 

> <ROCS_ColorTanimoto>
0.415 

> <ROCS_RefTversky>
0.191 

> <ROCS_RefColorTversky>
0.485 

> <ROCS_RefTverskyCombo>
0.676 

> <ROCS_FitTversky>
2.047 

> <ROCS_FitColorTversky>
0.740 

> <ROCS_FitTverskyCombo>
2.787 

> <ROCS_ColorScore>
-3.811

> <ROCS_Overlap>
1956.374

> <ROCS_Rank>
157                 

$$$$
untitled-dbase-557083_0
  -OEChem-02092423213D

 21 21  0     0  0  0  0  0  0999 V2000
    8.7662   12.4832   23.8068 C   0  0  0  0  0  0  0  0  0  0  0  0
    8.1435   12.1984   25.0169 C   0  0  0  0  0  0  0  0  0  0  0  0
    9.1355   11.4442   22.9598 C   0  0  0  0  0  0  0  0  0  0  0  0
    7.9143   10.8685   25.3311 C   0  0  0  0  0  0  0  0  0  0  0  0
    8.8621   10.1481   23.3662 C   0  0  0  0  0  0  0  0  0  0  0  0
    7.2477   10.5263   26.6216 C   0  0  0  0  0  0  0  0  0  0  0  0
    9.9773   13.0843   21.4574 C   0  0  0  0  0  0  0  0  0  0  0  0
    9.2392    8.9961   22.4934 C   0  0  0  0  0  0  0  0  0  0  0  0
    8.2588    9.8323   24.5341 N   0  0  0  0  0  0  0  0  0  0  0  0
    9.7438   11.7116   21.7761 O   0  0  0  0  0  0  0  0  0  0  0  0
   11.1650    8.7350   22.5600 Br  0  0  0  0  0  0  0  0  0  0  0  0
    8.9607   13.5155   23.5304 H   0  0  0  0  0  0  0  0  0  0  0  0
    7.8502   12.9998   25.6865 H   0  0  0  0  0  0  0  0  0  0  0  0
    6.1597   10.4881   26.4901 H   0  0  0  0  0  0  0  0  0  0  0  0
    7.5876    9.5534   26.9989 H   0  0  0  0  0  0  0  0  0  0  0  0
    7.4794   11.2671   27.3975 H   0  0  0  0  0  0  0  0  0  0  0  0
   10.4693   13.1546   20.4842 H   0  0  0  0  0  0  0  0  0  0  0  0
   10.6056   13.5366   22.2288 H   0  0  0  0  0  0  0  0  0  0  0  0
    9.0192   13.6078   21.4173 H   0  0  0  0  0  0  0  0  0  0  0  0
    8.9715    9.1668   21.4454 H   0  0  0  0  0  0  0  0  0  0  0  0
    8.7740    8.0601   22.8207 H   0  0  0  0  0  0  0  0  0  0  0  0
  1  2  2  0  0  0  0
  1  3  1  0  0  0  0
  2  4  1  0  0  0  0
  3  5  2  0  0  0  0
  3 10  1  0  0  0  0
  4  6  1  0  0  0  0
  4  9  2  0  0  0  0
  5  8  1  0  0  0  0
  5  9  1  0  0  0  0
  7 10  1  0  0  0  0
  8 11  1  0  0  0  0
  1 12  1  0  0  0  0
  2 13  1  0  0  0  0
  6 14  1  0  0  0  0
  6 15  1  0  0  0  0
  6 16  1  0  0  0  0
  7 17  1  0  0  0  0
  7 18  1  0  0  0  0
  7 19  1  0  0  0  0
  8 20  1  0  0  0  0
  8 21  1  0  0  0  0
M  END
> <id>
EN300-4260114

> <smiles>
COC=1C=CC(C)=NC1CBr

> <MDLNUMBER>
MFCD16877902

> <IUPAC Name>
2-(bromomethyl)-3-methoxy-6-methylpyridine

> <CAS>
848696-31-1

> <Purity>
95

> <URL>
https://www.enaminestore.com/catalog/EN300-4260114

> <ROCS_ShapeQuery>
_x1140_x0812_0A_x1140_0A_x1097_0A_x0365_0A_x1097_0A_x0310_0A

> <ROCS_TanimotoCombo>
0.626 

> <ROCS_ShapeTanimoto>
0.199 

> <ROCS_ColorTanimoto>
0.428 

> <ROCS_RefTversky>
0.182 

> <ROCS_RefColorTversky>
0.461 

> <ROCS_RefTverskyCombo>
0.642 

> <ROCS_FitTversky>
1.901 

> <ROCS_FitColorTversky>
0.856 

> <ROCS_FitTverskyCombo>
2.757 

> <ROCS_ColorScore>
-3.595

> <ROCS_Overlap>
1859.394

> <ROCS_Rank>
158                 

$$$$
untitled-dbase-511546_4
  -OEChem-02092423213D

 30 30  0     0  0  0  0  0  0999 V2000
    7.7511   12.0922   25.2527 C   0  0  0  0  0  0  0  0  0  0  0  0
    7.7448   10.7016   25.4407 C   0  0  0  0  0  0  0  0  0  0  0  0
    8.4189   12.2759   24.0667 C   0  0  0  0  0  0  0  0  0  0  0  0
    9.4608   10.6604   22.4612 C   0  0  0  0  0  0  0  0  0  0  0  0
    7.1556    9.9511   26.5623 C   0  0  0  0  0  0  0  0  0  0  0  0
    8.7264   13.5421   23.3707 C   0  0  0  0  0  0  0  0  0  0  0  0
   11.6455    9.3033   23.6506 C   0  0  0  0  0  0  0  0  0  0  0  0
   10.8814    7.3073   22.3309 C   0  0  0  0  0  0  0  0  0  0  0  0
   11.6252    9.3870   21.1352 C   0  0  0  0  0  0  0  0  0  0  0  0
   10.9365    8.8326   22.3815 C   0  0  0  0  0  0  0  0  0  0  0  0
    8.3587   10.0440   24.4555 N   0  0  0  0  0  0  0  0  0  0  0  0
    8.7708   11.0238   23.6142 N   0  0  0  0  0  0  0  0  0  0  0  0
    9.8529   11.5052   21.6723 O   0  0  0  0  0  0  0  0  0  0  0  0
    9.5890    9.3119   22.4084 O   0  0  0  0  0  0  0  0  0  0  0  0
    7.3305   12.8590   25.8875 H   0  0  0  0  0  0  0  0  0  0  0  0
    6.1053    9.6818   26.3565 H   0  0  0  0  0  0  0  0  0  0  0  0
    7.7036    9.0150   26.7716 H   0  0  0  0  0  0  0  0  0  0  0  0
    7.1723   10.5276   27.5046 H   0  0  0  0  0  0  0  0  0  0  0  0
    9.6987   13.9464   23.6952 H   0  0  0  0  0  0  0  0  0  0  0  0
    8.7647   13.4126   22.2761 H   0  0  0  0  0  0  0  0  0  0  0  0
    7.9612   14.3136   23.5606 H   0  0  0  0  0  0  0  0  0  0  0  0
   11.6871   10.3977   23.6906 H   0  0  0  0  0  0  0  0  0  0  0  0
   11.1410    8.9413   24.5523 H   0  0  0  0  0  0  0  0  0  0  0  0
   12.6840    8.9535   23.6709 H   0  0  0  0  0  0  0  0  0  0  0  0
   10.3735    6.9652   21.4219 H   0  0  0  0  0  0  0  0  0  0  0  0
   10.3058    6.9094   23.1745 H   0  0  0  0  0  0  0  0  0  0  0  0
   11.8829    6.8658   22.3556 H   0  0  0  0  0  0  0  0  0  0  0  0
   11.1168    9.0495   20.2247 H   0  0  0  0  0  0  0  0  0  0  0  0
   11.6411   10.4817   21.1365 H   0  0  0  0  0  0  0  0  0  0  0  0
   12.6569    9.0238   21.0660 H   0  0  0  0  0  0  0  0  0  0  0  0
  1  2  1  0  0  0  0
  1  3  2  0  0  0  0
  2  5  1  0  0  0  0
  2 11  2  0  0  0  0
  3  6  1  0  0  0  0
  3 12  1  0  0  0  0
  4 12  1  0  0  0  0
  4 13  2  0  0  0  0
  4 14  1  0  0  0  0
  7 10  1  0  0  0  0
  8 10  1  0  0  0  0
  9 10  1  0  0  0  0
 10 14  1  0  0  0  0
 11 12  1  0  0  0  0
  1 15  1  0  0  0  0
  5 16  1  0  0  0  0
  5 17  1  0  0  0  0
  5 18  1  0  0  0  0
  6 19  1  0  0  0  0
  6 20  1  0  0  0  0
  6 21  1  0  0  0  0
  7 22  1  0  0  0  0
  7 23  1  0  0  0  0
  7 24  1  0  0  0  0
  8 25  1  0  0  0  0
  8 26  1  0  0  0  0
  8 27  1  0  0  0  0
  9 28  1  0  0  0  0
  9 29  1  0  0  0  0
  9 30  1  0  0  0  0
M  END
> <id>
EN300-8756322

> <smiles>
CC=1C=C(C)N(N1)C(=O)OC(C)(C)C

> <MDLNUMBER>
MFCD24474064

> <IUPAC Name>
tert-butyl 3,5-dimethyl-1H-pyrazole-1-carboxylate

> <CAS>
219580-24-2

> <URL>
https://www.enaminestore.com/catalog/EN300-8756322

> <ROCS_ShapeQuery>
_x1140_x0812_0A_x1140_0A_x1097_0A_x0365_0A_x1097_0A_x0310_0A

> <ROCS_TanimotoCombo>
0.626 

> <ROCS_ShapeTanimoto>
0.212 

> <ROCS_ColorTanimoto>
0.413 

> <ROCS_RefTversky>
0.195 

> <ROCS_RefColorTversky>
0.450 

> <ROCS_RefTverskyCombo>
0.644 

> <ROCS_FitTversky>
1.766 

> <ROCS_FitColorTversky>
0.835 

> <ROCS_FitTverskyCombo>
2.601 

> <ROCS_ColorScore>
-3.508

> <ROCS_Overlap>
1994.298

> <ROCS_Rank>
159                 

$$$$
untitled-dbase-445258_3
  -OEChem-02092423213D

 22 22  0     0  0  0  0  0  0999 V2000
    7.7915   10.5570   25.4926 C   0  0  0  0  0  0  0  0  0  0  0  0
    7.7019   11.9331   25.4746 C   0  0  0  0  0  0  0  0  0  0  0  0
    8.8065   10.9284   23.5843 C   0  0  0  0  0  0  0  0  0  0  0  0
    9.5181   10.6589   22.3228 C   0  0  0  0  0  0  0  0  0  0  0  0
    7.2740    9.6710   26.5546 C   0  0  0  0  0  0  0  0  0  0  0  0
   11.1693    8.7399   22.4922 C   0  0  0  0  0  0  0  0  0  0  0  0
    9.8199    9.2054   21.9678 C   0  0  0  0  0  0  0  0  0  0  0  0
    8.4242    9.9791   24.4093 N   0  0  0  0  0  0  0  0  0  0  0  0
    9.8700   11.5619   21.5612 O   0  0  0  0  0  0  0  0  0  0  0  0
    5.9092   12.5392   27.2408 O   0  0  0  0  0  0  0  0  0  0  0  0
    8.1327   13.7715   27.2453 O   0  0  0  0  0  0  0  0  0  0  0  0
    6.4002   14.2813   25.6411 F   0  0  0  0  0  0  0  0  0  0  0  0
    8.4382   12.5388   24.0490 S   0  0  0  0  0  0  0  0  0  0  0  0
    7.0294   13.1427   26.5495 S   0  0  0  0  0  0  0  0  0  0  0  0
    6.2349    9.3679   26.3470 H   0  0  0  0  0  0  0  0  0  0  0  0
    7.8772    8.7531   26.6573 H   0  0  0  0  0  0  0  0  0  0  0  0
    7.2901   10.1589   27.5440 H   0  0  0  0  0  0  0  0  0  0  0  0
   11.9815    9.3520   22.0862 H   0  0  0  0  0  0  0  0  0  0  0  0
   11.1991    8.8133   23.5836 H   0  0  0  0  0  0  0  0  0  0  0  0
   11.3617    7.6984   22.2144 H   0  0  0  0  0  0  0  0  0  0  0  0
    9.0388    8.5686   22.3970 H   0  0  0  0  0  0  0  0  0  0  0  0
    9.8126    9.1006   20.8774 H   0  0  0  0  0  0  0  0  0  0  0  0
  1  2  2  0  0  0  0
  1  5  1  0  0  0  0
  1  8  1  0  0  0  0
  2 13  1  0  0  0  0
  2 14  1  0  0  0  0
  3  4  1  0  0  0  0
  3  8  2  0  0  0  0
  3 13  1  0  0  0  0
  4  7  1  0  0  0  0
  4  9  2  0  0  0  0
  6  7  1  0  0  0  0
 10 14  2  0  0  0  0
 11 14  2  0  0  0  0
 12 14  1  0  0  0  0
  5 15  1  0  0  0  0
  5 16  1  0  0  0  0
  5 17  1  0  0  0  0
  6 18  1  0  0  0  0
  6 19  1  0  0  0  0
  6 20  1  0  0  0  0
  7 21  1  0  0  0  0
  7 22  1  0  0  0  0
M  END
> <id>
EN300-728049

> <smiles>
CCC(=O)C1=NC(C)=C(S1)S(=O)(=O)F

> <MDLNUMBER>
MFCD31445171

> <IUPAC Name>
4-methyl-2-propanoyl-1,3-thiazole-5-sulfonyl fluoride

> <CAS>
2137688-48-1

> <URL>
https://www.enaminestore.com/catalog/EN300-728049

> <ROCS_ShapeQuery>
_x1140_x0812_0A_x1140_0A_x1097_0A_x0365_0A_x1097_0A_x0310_0A

> <ROCS_TanimotoCombo>
0.625 

> <ROCS_ShapeTanimoto>
0.202 

> <ROCS_ColorTanimoto>
0.423 

> <ROCS_RefTversky>
0.186 

> <ROCS_RefColorTversky>
0.457 

> <ROCS_RefTverskyCombo>
0.643 

> <ROCS_FitTversky>
1.766 

> <ROCS_FitColorTversky>
0.849 

> <ROCS_FitTverskyCombo>
2.615 

> <ROCS_ColorScore>
-3.567

> <ROCS_Overlap>
1906.158

> <ROCS_Rank>
160                 

$$$$
untitled-dbase-106517_4
  -OEChem-02092423213D

 29 29  0     0  0  0  0  0  0999 V2000
    8.5855   12.7307   24.3847 C   0  0  0  0  0  0  0  0  0  0  0  0
    7.6099   12.2147   25.2375 C   0  0  0  0  0  0  0  0  0  0  0  0
    8.3048    9.9703   24.6744 C   0  0  0  0  0  0  0  0  0  0  0  0
    9.4208   11.8666   23.6766 C   0  0  0  0  0  0  0  0  0  0  0  0
    9.2804   10.4864   23.8215 C   0  0  0  0  0  0  0  0  0  0  0  0
    7.4695   10.8345   25.3824 C   0  0  0  0  0  0  0  0  0  0  0  0
   12.5076   17.5787   22.5603 C   0  0  0  0  0  0  0  0  0  0  0  0
   11.6937   14.1085   21.6327 C   0  0  0  0  0  0  0  0  0  0  0  0
   10.5841   13.8115   22.6327 C   0  0  0  0  0  0  0  0  0  0  0  0
   11.9240   15.6015   21.4320 C   0  0  0  0  0  0  0  0  0  0  0  0
   10.1157    9.5941   23.1125 N   0  0  0  0  0  0  0  0  0  0  0  0
   10.3847   12.4019   22.8314 N   0  0  0  0  0  0  0  0  0  0  0  0
   12.3014   16.1773   22.6756 O   0  0  0  0  0  0  0  0  0  0  0  0
    6.2649   10.1994   26.4346 Cl  0  0  0  0  0  0  0  0  0  0  0  0
    8.6850   13.8080   24.2784 H   0  0  0  0  0  0  0  0  0  0  0  0
    6.9661   12.9001   25.7826 H   0  0  0  0  0  0  0  0  0  0  0  0
    8.1964    8.8933   24.7853 H   0  0  0  0  0  0  0  0  0  0  0  0
   12.7955   17.9866   23.5323 H   0  0  0  0  0  0  0  0  0  0  0  0
   11.5883   18.0556   22.2109 H   0  0  0  0  0  0  0  0  0  0  0  0
   13.3076   17.7621   21.8392 H   0  0  0  0  0  0  0  0  0  0  0  0
   12.6272   13.6486   21.9804 H   0  0  0  0  0  0  0  0  0  0  0  0
   11.4721   13.6417   20.6646 H   0  0  0  0  0  0  0  0  0  0  0  0
   10.8332   14.2390   23.6089 H   0  0  0  0  0  0  0  0  0  0  0  0
    9.6325   14.2411   22.3038 H   0  0  0  0  0  0  0  0  0  0  0  0
   12.7253   15.7860   20.7097 H   0  0  0  0  0  0  0  0  0  0  0  0
   11.0100   16.0937   21.0845 H   0  0  0  0  0  0  0  0  0  0  0  0
   10.0230    8.6125   23.2716 H   0  0  0  0  0  0  0  0  0  0  0  0
   10.8445    9.9641   22.5387 H   0  0  0  0  0  0  0  0  0  0  0  0
   10.9813   11.7528   22.3245 H   0  0  0  0  0  0  0  0  0  0  0  0
  1  2  2  0  0  0  0
  1  4  1  0  0  0  0
  2  6  1  0  0  0  0
  3  5  1  0  0  0  0
  3  6  2  0  0  0  0
  4  5  2  0  0  0  0
  4 12  1  0  0  0  0
  5 11  1  0  0  0  0
  6 14  1  0  0  0  0
  7 13  1  0  0  0  0
  8  9  1  0  0  0  0
  8 10  1  0  0  0  0
  9 12  1  0  0  0  0
 10 13  1  0  0  0  0
  1 15  1  0  0  0  0
  2 16  1  0  0  0  0
  3 17  1  0  0  0  0
  7 18  1  0  0  0  0
  7 19  1  0  0  0  0
  7 20  1  0  0  0  0
  8 21  1  0  0  0  0
  8 22  1  0  0  0  0
  9 23  1  0  0  0  0
  9 24  1  0  0  0  0
 10 25  1  0  0  0  0
 10 26  1  0  0  0  0
 11 27  1  0  0  0  0
 11 28  1  0  0  0  0
 12 29  1  0  0  0  0
M  END
> <id>
EN300-1116110

> <smiles>
COCCCNC=1C=CC(Cl)=CC1N

> <MDLNUMBER>
MFCD11104526

> <IUPAC Name>
4-chloro-N1-(3-methoxypropyl)benzene-1,2-diamine

> <CAS>
1152589-09-7

> <URL>
https://www.enaminestore.com/catalog/EN300-1116110

> <ROCS_ShapeQuery>
_x1140_x0812_0A_x1140_0A_x1097_0A_x0365_0A_x1097_0A_x0310_0A

> <ROCS_TanimotoCombo>
0.625 

> <ROCS_ShapeTanimoto>
0.226 

> <ROCS_ColorTanimoto>
0.399 

> <ROCS_RefTversky>
0.204 

> <ROCS_RefColorTversky>
0.473 

> <ROCS_RefTverskyCombo>
0.676 

> <ROCS_FitTversky>
1.917 

> <ROCS_FitColorTversky>
0.720 

> <ROCS_FitTverskyCombo>
2.638 

> <ROCS_ColorScore>
-3.711

> <ROCS_Overlap>
2088.329

> <ROCS_Rank>
161                 

$$$$
untitled-dbase-68182_5
  -OEChem-02092423213D

 19 19  0     0  0  0  0  0  0999 V2000
    8.0683   11.9944   25.4124 C   0  0  0  0  0  0  0  0  0  0  0  0
    8.9273   12.3911   24.3936 C   0  0  0  0  0  0  0  0  0  0  0  0
    7.7146   10.6563   25.4783 C   0  0  0  0  0  0  0  0  0  0  0  0
    9.3998   11.4510   23.4847 C   0  0  0  0  0  0  0  0  0  0  0  0
    8.9867   10.1372   23.6370 C   0  0  0  0  0  0  0  0  0  0  0  0
   10.2985   11.8642   22.4180 C   0  0  0  0  0  0  0  0  0  0  0  0
   10.9829    8.9738   22.6632 C   0  0  0  0  0  0  0  0  0  0  0  0
    9.4616    9.0824   22.6911 C   0  0  0  0  0  0  0  0  0  0  0  0
    8.1533    9.7141   24.6137 N   0  0  0  0  0  0  0  0  0  0  0  0
   10.0309   11.7277   21.2212 O   0  0  0  0  0  0  0  0  0  0  0  0
    7.6871   12.7103   26.1319 H   0  0  0  0  0  0  0  0  0  0  0  0
    9.2209   13.4349   24.3178 H   0  0  0  0  0  0  0  0  0  0  0  0
    7.0465   10.2960   26.2536 H   0  0  0  0  0  0  0  0  0  0  0  0
   11.2672   12.3219   22.7145 H   0  0  0  0  0  0  0  0  0  0  0  0
   11.4411    9.9316   22.3944 H   0  0  0  0  0  0  0  0  0  0  0  0
   11.3029    8.2272   21.9296 H   0  0  0  0  0  0  0  0  0  0  0  0
   11.3743    8.6770   23.6421 H   0  0  0  0  0  0  0  0  0  0  0  0
    9.0340    8.1053   22.9638 H   0  0  0  0  0  0  0  0  0  0  0  0
    9.0948    9.2894   21.6739 H   0  0  0  0  0  0  0  0  0  0  0  0
  1  2  2  0  0  0  0
  1  3  1  0  0  0  0
  2  4  1  0  0  0  0
  3  9  2  0  0  0  0
  4  5  2  0  0  0  0
  4  6  1  0  0  0  0
  5  8  1  0  0  0  0
  5  9  1  0  0  0  0
  6 10  2  0  0  0  0
  7  8  1  0  0  0  0
  1 11  1  0  0  0  0
  2 12  1  0  0  0  0
  3 13  1  0  0  0  0
  6 14  1  0  0  0  0
  7 15  1  0  0  0  0
  7 16  1  0  0  0  0
  7 17  1  0  0  0  0
  8 18  1  0  0  0  0
  8 19  1  0  0  0  0
M  END
> <id>
EN300-103227

> <smiles>
CCC=1N=CC=CC1C=O

> <MDLNUMBER>
MFCD13176066

> <IUPAC Name>
2-ethylpyridine-3-carbaldehyde

> <CAS>
64114-26-7

> <Purity>
95

> <URL>
https://www.enaminestore.com/catalog/EN300-103227

> <ROCS_ShapeQuery>
_x1140_x0812_0A_x1140_0A_x1097_0A_x0365_0A_x1097_0A_x0310_0A

> <ROCS_TanimotoCombo>
0.625 

> <ROCS_ShapeTanimoto>
0.195 

> <ROCS_ColorTanimoto>
0.430 

> <ROCS_RefTversky>
0.178 

> <ROCS_RefColorTversky>
0.463 

> <ROCS_RefTverskyCombo>
0.641 

> <ROCS_FitTversky>
1.929 

> <ROCS_FitColorTversky>
0.859 

> <ROCS_FitTverskyCombo>
2.789 

> <ROCS_ColorScore>
-3.609

> <ROCS_Overlap>
1825.495

> <ROCS_Rank>
162                 

$$$$
untitled-dbase-163620_3
  -OEChem-02092423213D

 26 26  0     0  0  0  0  0  0999 V2000
    8.3158   12.6405   24.7835 C   0  0  0  0  0  0  0  0  0  0  0  0
    9.1560   11.9019   23.9579 C   0  0  0  0  0  0  0  0  0  0  0  0
    7.3198   11.9955   25.5084 C   0  0  0  0  0  0  0  0  0  0  0  0
    8.9606   10.5317   23.8925 C   0  0  0  0  0  0  0  0  0  0  0  0
    7.2065   10.6212   25.3735 C   0  0  0  0  0  0  0  0  0  0  0  0
   11.8392    8.2092   22.0596 C   0  0  0  0  0  0  0  0  0  0  0  0
   11.2675    9.1350   21.2831 C   0  0  0  0  0  0  0  0  0  0  0  0
   10.4373   10.2202   21.8817 C   0  0  0  0  0  0  0  0  0  0  0  0
    5.8936    8.6166   26.1366 C   0  0  0  0  0  0  0  0  0  0  0  0
    4.7378    8.3276   27.0612 C   0  0  0  0  0  0  0  0  0  0  0  0
    8.0041    9.8699   24.5815 N   0  0  0  0  0  0  0  0  0  0  0  0
    9.8118    9.7966   23.0590 N   0  0  0  0  0  0  0  0  0  0  0  0
    6.2012    9.9804   26.1072 N   0  0  0  0  0  0  0  0  0  0  0  0
   10.3573   11.3233   21.3543 O   0  0  0  0  0  0  0  0  0  0  0  0
    6.4477    7.7111   25.5218 O   0  0  0  0  0  0  0  0  0  0  0  0
    8.4371   13.7166   24.8621 H   0  0  0  0  0  0  0  0  0  0  0  0
    9.9356   12.3974   23.3884 H   0  0  0  0  0  0  0  0  0  0  0  0
    6.6591   12.5644   26.1544 H   0  0  0  0  0  0  0  0  0  0  0  0
   12.4488    7.4063   21.6605 H   0  0  0  0  0  0  0  0  0  0  0  0
   11.7007    8.2429   23.1352 H   0  0  0  0  0  0  0  0  0  0  0  0
   11.4057    9.1022   20.2078 H   0  0  0  0  0  0  0  0  0  0  0  0
    3.7966    8.3881   26.5074 H   0  0  0  0  0  0  0  0  0  0  0  0
    4.7198    9.0616   27.8719 H   0  0  0  0  0  0  0  0  0  0  0  0
    4.8455    7.3279   27.4923 H   0  0  0  0  0  0  0  0  0  0  0  0
    9.9995    8.8305   23.3462 H   0  0  0  0  0  0  0  0  0  0  0  0
    5.6188   10.5832   26.6963 H   0  0  0  0  0  0  0  0  0  0  0  0
  1  2  1  0  0  0  0
  1  3  2  0  0  0  0
  2  4  2  0  0  0  0
  3  5  1  0  0  0  0
  4 11  1  0  0  0  0
  4 12  1  0  0  0  0
  5 11  2  0  0  0  0
  5 13  1  0  0  0  0
  6  7  2  0  0  0  0
  7  8  1  0  0  0  0
  8 12  1  0  0  0  0
  8 14  2  0  0  0  0
  9 10  1  0  0  0  0
  9 13  1  0  0  0  0
  9 15  2  0  0  0  0
  1 16  1  0  0  0  0
  2 17  1  0  0  0  0
  3 18  1  0  0  0  0
  6 19  1  0  0  0  0
  6 20  1  0  0  0  0
  7 21  1  0  0  0  0
 10 22  1  0  0  0  0
 10 23  1  0  0  0  0
 10 24  1  0  0  0  0
 12 25  1  0  0  0  0
 13 26  1  0  0  0  0
M  END
> <id>
EN300-1717149

> <smiles>
CC(=O)NC=1C=CC=C(NC(=O)C=C)N1

> <MDLNUMBER>
MFCD24602535

> <IUPAC Name>
N-(6-acetamidopyridin-2-yl)prop-2-enamide

> <CAS>
864916-61-0

> <Purity>
95

> <URL>
https://www.enaminestore.com/catalog/EN300-1717149

> <ROCS_ShapeQuery>
_x1140_x0812_0A_x1140_0A_x1097_0A_x0365_0A_x1097_0A_x0310_0A

> <ROCS_TanimotoCombo>
0.625 

> <ROCS_ShapeTanimoto>
0.203 

> <ROCS_ColorTanimoto>
0.422 

> <ROCS_RefTversky>
0.188 

> <ROCS_RefColorTversky>
0.560 

> <ROCS_RefTverskyCombo>
0.748 

> <ROCS_FitTversky>
1.659 

> <ROCS_FitColorTversky>
0.631 

> <ROCS_FitTverskyCombo>
2.290 

> <ROCS_ColorScore>
-4.449

> <ROCS_Overlap>
1929.376

> <ROCS_Rank>
163                 

$$$$
untitled-dbase-256914_7
  -OEChem-02092423213D

 32 32  0     0  0  0  0  0  0999 V2000
    8.0847   12.8079   24.8356 C   0  0  0  0  0  0  0  0  0  0  0  0
    9.1839   12.9686   23.9921 C   0  0  0  0  0  0  0  0  0  0  0  0
    8.1993   10.4141   24.5291 C   0  0  0  0  0  0  0  0  0  0  0  0
    7.5924   11.5307   25.1042 C   0  0  0  0  0  0  0  0  0  0  0  0
    9.7908   11.8520   23.4171 C   0  0  0  0  0  0  0  0  0  0  0  0
    9.2986   10.5748   23.6856 C   0  0  0  0  0  0  0  0  0  0  0  0
    6.4460   11.3638   25.9834 C   0  0  0  0  0  0  0  0  0  0  0  0
   14.1735   15.7141   24.3045 C   0  0  0  0  0  0  0  0  0  0  0  0
   11.4417   13.3195   22.2566 C   0  0  0  0  0  0  0  0  0  0  0  0
   12.4037   13.8086   23.3221 C   0  0  0  0  0  0  0  0  0  0  0  0
    9.8979    9.4306   23.1127 N   0  0  0  0  0  0  0  0  0  0  0  0
    5.9938   10.0687   26.2191 N   0  0  0  0  0  0  0  0  0  0  0  0
   10.8833   12.0347   22.5785 N   0  0  0  0  0  0  0  0  0  0  0  0
    5.8748   12.3419   26.4965 O   0  0  0  0  0  0  0  0  0  0  0  0
   13.9877   15.1740   21.7538 O   0  0  0  0  0  0  0  0  0  0  0  0
   12.0742   16.3654   22.8900 O   0  0  0  0  0  0  0  0  0  0  0  0
   13.1278   15.3652   22.9093 S   0  0  0  0  0  0  0  0  0  0  0  0
    7.6186   13.6845   25.2785 H   0  0  0  0  0  0  0  0  0  0  0  0
    9.5590   13.9689   23.7912 H   0  0  0  0  0  0  0  0  0  0  0  0
    7.8139    9.4186   24.7389 H   0  0  0  0  0  0  0  0  0  0  0  0
   14.6680   16.6716   24.1333 H   0  0  0  0  0  0  0  0  0  0  0  0
   13.5503   15.7601   25.1989 H   0  0  0  0  0  0  0  0  0  0  0  0
   14.9096   14.9136   24.3918 H   0  0  0  0  0  0  0  0  0  0  0  0
   10.6090   14.0159   22.1168 H   0  0  0  0  0  0  0  0  0  0  0  0
   11.9631   13.2091   21.3009 H   0  0  0  0  0  0  0  0  0  0  0  0
   13.2343   13.1058   23.4369 H   0  0  0  0  0  0  0  0  0  0  0  0
   11.9093   13.9321   24.2904 H   0  0  0  0  0  0  0  0  0  0  0  0
    9.5527    8.5267   23.3600 H   0  0  0  0  0  0  0  0  0  0  0  0
   10.7133    9.5421   22.5469 H   0  0  0  0  0  0  0  0  0  0  0  0
    6.4695    9.2893   25.7776 H   0  0  0  0  0  0  0  0  0  0  0  0
    5.1987    9.8871   26.8231 H   0  0  0  0  0  0  0  0  0  0  0  0
   11.3085   11.2063   22.1698 H   0  0  0  0  0  0  0  0  0  0  0  0
  1  2  2  0  0  0  0
  1  4  1  0  0  0  0
  2  5  1  0  0  0  0
  3  4  2  0  0  0  0
  3  6  1  0  0  0  0
  4  7  1  0  0  0  0
  5  6  2  0  0  0  0
  5 13  1  0  0  0  0
  6 11  1  0  0  0  0
  7 12  1  0  0  0  0
  7 14  2  0  0  0  0
  8 17  1  0  0  0  0
  9 10  1  0  0  0  0
  9 13  1  0  0  0  0
 10 17  1  0  0  0  0
 15 17  2  0  0  0  0
 16 17  2  0  0  0  0
  1 18  1  0  0  0  0
  2 19  1  0  0  0  0
  3 20  1  0  0  0  0
  8 21  1  0  0  0  0
  8 22  1  0  0  0  0
  8 23  1  0  0  0  0
  9 24  1  0  0  0  0
  9 25  1  0  0  0  0
 10 26  1  0  0  0  0
 10 27  1  0  0  0  0
 11 28  1  0  0  0  0
 11 29  1  0  0  0  0
 12 30  1  0  0  0  0
 12 31  1  0  0  0  0
 13 32  1  0  0  0  0
M  END
> <id>
EN300-6476896

> <smiles>
CS(=O)(=O)CCNC=1C=CC(=CC1N)C(=O)N

> <MDLNUMBER>
MFCD12832327

> <IUPAC Name>
3-amino-4-[(2-methanesulfonylethyl)amino]benzamide

> <CAS>
1179221-61-4

> <Purity>
95

> <URL>
https://www.enaminestore.com/catalog/EN300-6476896

> <ROCS_ShapeQuery>
_x1140_x0812_0A_x1140_0A_x1097_0A_x0365_0A_x1097_0A_x0310_0A

> <ROCS_TanimotoCombo>
0.625 

> <ROCS_ShapeTanimoto>
0.257 

> <ROCS_ColorTanimoto>
0.368 

> <ROCS_RefTversky>
0.228 

> <ROCS_RefColorTversky>
0.538 

> <ROCS_RefTverskyCombo>
0.767 

> <ROCS_FitTversky>
1.927 

> <ROCS_FitColorTversky>
0.538 

> <ROCS_FitTverskyCombo>
2.466 

> <ROCS_ColorScore>
-4.308

> <ROCS_Overlap>
2342.025

> <ROCS_Rank>
164                 

$$$$
untitled-dbase-350625_9
  -OEChem-02092423213D

 29 31  0     0  0  0  0  0  0999 V2000
   11.9178   15.2758   22.3239 C   0  0  0  0  0  0  0  0  0  0  0  0
    8.9223   10.3205   23.6494 C   0  0  0  0  0  0  0  0  0  0  0  0
    6.2790   11.5095   27.2707 C   0  0  0  0  0  0  0  0  0  0  0  0
    9.0615   11.6496   23.5294 C   0  0  0  0  0  0  0  0  0  0  0  0
    6.8914   12.4155   26.4919 C   0  0  0  0  0  0  0  0  0  0  0  0
    8.3721   12.5460   24.5049 C   0  0  0  0  0  0  0  0  0  0  0  0
    7.5915   10.4569   25.4488 C   0  0  0  0  0  0  0  0  0  0  0  0
    9.8937   12.1521   22.4332 C   0  0  0  0  0  0  0  0  0  0  0  0
   12.2699   13.2411   20.8797 C   0  0  0  0  0  0  0  0  0  0  0  0
   11.0943   13.9833   20.3235 C   0  0  0  0  0  0  0  0  0  0  0  0
   11.3841   14.0441   21.8080 C   0  0  0  0  0  0  0  0  0  0  0  0
    6.7947   13.8887   26.6974 C   0  0  0  0  0  0  0  0  0  0  0  0
   12.3485   16.2695   22.7402 N   0  0  0  0  0  0  0  0  0  0  0  0
    8.1849    9.6755   24.6103 N   0  0  0  0  0  0  0  0  0  0  0  0
    7.6359   11.8493   25.4602 N   0  0  0  0  0  0  0  0  0  0  0  0
   10.5119   13.3542   22.7311 N   0  0  0  0  0  0  0  0  0  0  0  0
    8.4914   13.7636   24.4079 O   0  0  0  0  0  0  0  0  0  0  0  0
    9.9978   11.5267   21.3782 O   0  0  0  0  0  0  0  0  0  0  0  0
    6.5904    9.8793   26.7680 S   0  0  0  0  0  0  0  0  0  0  0  0
    9.4151    9.6503   22.9509 H   0  0  0  0  0  0  0  0  0  0  0  0
    5.6546   11.7386   28.1232 H   0  0  0  0  0  0  0  0  0  0  0  0
   12.2084   12.1593   20.9168 H   0  0  0  0  0  0  0  0  0  0  0  0
   13.2590   13.6153   20.6416 H   0  0  0  0  0  0  0  0  0  0  0  0
   11.2944   14.8558   19.7121 H   0  0  0  0  0  0  0  0  0  0  0  0
   10.2451   13.3990   19.9878 H   0  0  0  0  0  0  0  0  0  0  0  0
    7.5934   14.2254   27.3595 H   0  0  0  0  0  0  0  0  0  0  0  0
    5.8311   14.1404   27.1430 H   0  0  0  0  0  0  0  0  0  0  0  0
    6.8825   14.4047   25.7401 H   0  0  0  0  0  0  0  0  0  0  0  0
   10.3445   13.7715   23.6422 H   0  0  0  0  0  0  0  0  0  0  0  0
  1 11  1  0  0  0  0
  1 13  3  0  0  0  0
  2  4  2  0  0  0  0
  2 14  1  0  0  0  0
  3  5  2  0  0  0  0
  3 19  1  0  0  0  0
  4  6  1  0  0  0  0
  4  8  1  0  0  0  0
  5 12  1  0  0  0  0
  5 15  1  0  0  0  0
  6 15  1  0  0  0  0
  6 17  2  0  0  0  0
  7 14  2  0  0  0  0
  7 15  1  0  0  0  0
  7 19  1  0  0  0  0
  8 16  1  0  0  0  0
  8 18  2  0  0  0  0
  9 10  1  0  0  0  0
  9 11  1  0  0  0  0
 10 11  1  0  0  0  0
 11 16  1  0  0  0  0
  2 20  1  0  0  0  0
  3 21  1  0  0  0  0
  9 22  1  0  0  0  0
  9 23  1  0  0  0  0
 10 24  1  0  0  0  0
 10 25  1  0  0  0  0
 12 26  1  0  0  0  0
 12 27  1  0  0  0  0
 12 28  1  0  0  0  0
 16 29  1  0  0  0  0
M  END
> <id>
EN300-26689084

> <smiles>
CC1=CSC2=NC=C(C(=O)NC3(CC3)C#N)C(=O)N12

> <IUPAC Name>
N-(1-cyanocyclopropyl)-3-methyl-5-oxo-5H-[1,3]thiazolo[3,2-a]pyrimidine-6-carboxamide

> <CAS>
2418668-96-7

> <URL>
https://www.enaminestore.com/catalog/EN300-26689084

> <ROCS_ShapeQuery>
_x1140_x0812_0A_x1140_0A_x1097_0A_x0365_0A_x1097_0A_x0310_0A

> <ROCS_TanimotoCombo>
0.624 

> <ROCS_ShapeTanimoto>
0.263 

> <ROCS_ColorTanimoto>
0.362 

> <ROCS_RefTversky>
0.235 

> <ROCS_RefColorTversky>
0.502 

> <ROCS_RefTverskyCombo>
0.737 

> <ROCS_FitTversky>
1.781 

> <ROCS_FitColorTversky>
0.565 

> <ROCS_FitTverskyCombo>
2.346 

> <ROCS_ColorScore>
-3.990

> <ROCS_Overlap>
2416.808

> <ROCS_Rank>
165                 

$$$$
untitled-dbase-334137_4
  -OEChem-02092423213D

 25 25  0     0  0  0  0  0  0999 V2000
    8.4219   12.4972   24.3091 C   0  0  0  0  0  0  0  0  0  0  0  0
    8.8272   10.2766   23.5597 C   0  0  0  0  0  0  0  0  0  0  0  0
    9.0997   11.6313   23.4582 C   0  0  0  0  0  0  0  0  0  0  0  0
    7.5052   11.9891   25.2228 C   0  0  0  0  0  0  0  0  0  0  0  0
    7.3039   10.6184   25.2453 C   0  0  0  0  0  0  0  0  0  0  0  0
   10.0634   12.1305   22.4929 C   0  0  0  0  0  0  0  0  0  0  0  0
    7.1512    7.9848   27.0578 C   0  0  0  0  0  0  0  0  0  0  0  0
   11.6481   13.8645   22.0668 C   0  0  0  0  0  0  0  0  0  0  0  0
    6.1006    8.6850   26.2650 C   0  0  0  0  0  0  0  0  0  0  0  0
    7.9435    9.7459   24.4345 N   0  0  0  0  0  0  0  0  0  0  0  0
    6.3732   10.0820   26.1696 N   0  0  0  0  0  0  0  0  0  0  0  0
   10.3069   11.5947   21.4023 O   0  0  0  0  0  0  0  0  0  0  0  0
   10.6746   13.2732   22.9341 O   0  0  0  0  0  0  0  0  0  0  0  0
    6.6738   13.0756   26.2702 Cl  0  0  0  0  0  0  0  0  0  0  0  0
    8.6122   13.5668   24.2559 H   0  0  0  0  0  0  0  0  0  0  0  0
    9.3247    9.5517   22.9225 H   0  0  0  0  0  0  0  0  0  0  0  0
    7.1895    8.4088   28.0720 H   0  0  0  0  0  0  0  0  0  0  0  0
    6.9118    6.9128   27.1174 H   0  0  0  0  0  0  0  0  0  0  0  0
    8.1277    8.1158   26.5686 H   0  0  0  0  0  0  0  0  0  0  0  0
   12.0563   14.7635   22.5351 H   0  0  0  0  0  0  0  0  0  0  0  0
   11.1806   14.1183   21.1121 H   0  0  0  0  0  0  0  0  0  0  0  0
   12.4544   13.1472   21.8961 H   0  0  0  0  0  0  0  0  0  0  0  0
    6.0687    8.2555   25.2528 H   0  0  0  0  0  0  0  0  0  0  0  0
    5.1261    8.5420   26.7548 H   0  0  0  0  0  0  0  0  0  0  0  0
    5.9049   10.7354   26.7635 H   0  0  0  0  0  0  0  0  0  0  0  0
  1  3  2  0  0  0  0
  1  4  1  0  0  0  0
  2  3  1  0  0  0  0
  2 10  2  0  0  0  0
  3  6  1  0  0  0  0
  4  5  2  0  0  0  0
  4 14  1  0  0  0  0
  5 10  1  0  0  0  0
  5 11  1  0  0  0  0
  6 12  2  0  0  0  0
  6 13  1  0  0  0  0
  7  9  1  0  0  0  0
  8 13  1  0  0  0  0
  9 11  1  0  0  0  0
  1 15  1  0  0  0  0
  2 16  1  0  0  0  0
  7 17  1  0  0  0  0
  7 18  1  0  0  0  0
  7 19  1  0  0  0  0
  8 20  1  0  0  0  0
  8 21  1  0  0  0  0
  8 22  1  0  0  0  0
  9 23  1  0  0  0  0
  9 24  1  0  0  0  0
 11 25  1  0  0  0  0
M  END
> <id>
EN300-6510377

> <smiles>
CCNC=1N=CC(=CC1Cl)C(=O)OC

> <MDLNUMBER>
MFCD28404136

> <IUPAC Name>
methyl 5-chloro-6-(ethylamino)pyridine-3-carboxylate

> <CAS>
1563212-83-8

> <URL>
https://www.enaminestore.com/catalog/EN300-6510377

> <ROCS_ShapeQuery>
_x1140_x0812_0A_x1140_0A_x1097_0A_x0365_0A_x1097_0A_x0310_0A

> <ROCS_TanimotoCombo>
0.624 

> <ROCS_ShapeTanimoto>
0.228 

> <ROCS_ColorTanimoto>
0.397 

> <ROCS_RefTversky>
0.206 

> <ROCS_RefColorTversky>
0.437 

> <ROCS_RefTverskyCombo>
0.642 

> <ROCS_FitTversky>
1.900 

> <ROCS_FitColorTversky>
0.811 

> <ROCS_FitTverskyCombo>
2.711 

> <ROCS_ColorScore>
-3.408

> <ROCS_Overlap>
2107.136

> <ROCS_Rank>
166                 

$$$$
untitled-dbase-517131_8
  -OEChem-02092423213D

 24 24  0     0  0  0  0  0  0999 V2000
    8.5559   12.5943   24.0768 C   0  0  0  0  0  0  0  0  0  0  0  0
    7.5098   10.8227   25.2700 C   0  0  0  0  0  0  0  0  0  0  0  0
    7.6199   12.1808   25.0182 C   0  0  0  0  0  0  0  0  0  0  0  0
    9.3420   11.6506   23.4252 C   0  0  0  0  0  0  0  0  0  0  0  0
    9.1550   10.3163   23.7484 C   0  0  0  0  0  0  0  0  0  0  0  0
    6.7839   13.1417   25.7161 C   0  0  0  0  0  0  0  0  0  0  0  0
    9.9409    9.1749   21.6736 C   0  0  0  0  0  0  0  0  0  0  0  0
    4.6531   13.4585   26.7452 C   0  0  0  0  0  0  0  0  0  0  0  0
    8.2558    9.8764   24.6572 N   0  0  0  0  0  0  0  0  0  0  0  0
   10.2903   12.0669   22.4720 N   0  0  0  0  0  0  0  0  0  0  0  0
    9.9526    9.3471   23.0893 N   0  0  0  0  0  0  0  0  0  0  0  0
    7.1202   14.3053   25.9780 O   0  0  0  0  0  0  0  0  0  0  0  0
    5.5700   12.6053   26.0517 O   0  0  0  0  0  0  0  0  0  0  0  0
    8.6715   13.6522   23.8518 H   0  0  0  0  0  0  0  0  0  0  0  0
    6.7971   10.4392   25.9939 H   0  0  0  0  0  0  0  0  0  0  0  0
    9.2407    9.8932   21.2221 H   0  0  0  0  0  0  0  0  0  0  0  0
   10.9514    9.3479   21.2749 H   0  0  0  0  0  0  0  0  0  0  0  0
    9.6217    8.1504   21.4316 H   0  0  0  0  0  0  0  0  0  0  0  0
    3.7300   12.9114   26.9517 H   0  0  0  0  0  0  0  0  0  0  0  0
    4.4387   14.3383   26.1333 H   0  0  0  0  0  0  0  0  0  0  0  0
    5.1054   13.7745   27.6882 H   0  0  0  0  0  0  0  0  0  0  0  0
   10.3567   13.0382   22.2376 H   0  0  0  0  0  0  0  0  0  0  0  0
   10.8193   11.3783   21.9732 H   0  0  0  0  0  0  0  0  0  0  0  0
   10.5340    8.7774   23.6689 H   0  0  0  0  0  0  0  0  0  0  0  0
  1  3  2  0  0  0  0
  1  4  1  0  0  0  0
  2  3  1  0  0  0  0
  2  9  2  0  0  0  0
  3  6  1  0  0  0  0
  4  5  2  0  0  0  0
  4 10  1  0  0  0  0
  5  9  1  0  0  0  0
  5 11  1  0  0  0  0
  6 12  2  0  0  0  0
  6 13  1  0  0  0  0
  7 11  1  0  0  0  0
  8 13  1  0  0  0  0
  1 14  1  0  0  0  0
  2 15  1  0  0  0  0
  7 16  1  0  0  0  0
  7 17  1  0  0  0  0
  7 18  1  0  0  0  0
  8 19  1  0  0  0  0
  8 20  1  0  0  0  0
  8 21  1  0  0  0  0
 10 22  1  0  0  0  0
 10 23  1  0  0  0  0
 11 24  1  0  0  0  0
M  END
> <id>
EN300-3055818

> <smiles>
CNC=1N=CC(=CC1N)C(=O)OC

> <MDLNUMBER>
MFCD20685105

> <IUPAC Name>
methyl 5-amino-6-(methylamino)pyridine-3-carboxylate

> <CAS>
211915-53-6

> <Purity>
95

> <URL>
https://www.enaminestore.com/catalog/EN300-3055818

> <ROCS_ShapeQuery>
_x1140_x0812_0A_x1140_0A_x1097_0A_x0365_0A_x1097_0A_x0310_0A

> <ROCS_TanimotoCombo>
0.624 

> <ROCS_ShapeTanimoto>
0.230 

> <ROCS_ColorTanimoto>
0.394 

> <ROCS_RefTversky>
0.207 

> <ROCS_RefColorTversky>
0.501 

> <ROCS_RefTverskyCombo>
0.708 

> <ROCS_FitTversky>
1.962 

> <ROCS_FitColorTversky>
0.649 

> <ROCS_FitTverskyCombo>
2.611 

> <ROCS_ColorScore>
-3.957

> <ROCS_Overlap>
2120.787

> <ROCS_Rank>
167                 

$$$$
untitled-dbase-337846_0
  -OEChem-02092423213D

 15 15  0     0  0  0  0  0  0999 V2000
   10.9893    8.7341   22.5345 C   0  0  0  0  0  0  0  0  0  0  0  0
   10.2261    9.5009   23.0554 C   0  0  0  0  0  0  0  0  0  0  0  0
    8.4297   12.5810   24.0866 C   0  0  0  0  0  0  0  0  0  0  0  0
    7.5488   10.6310   25.1249 C   0  0  0  0  0  0  0  0  0  0  0  0
    9.3182   10.4135   23.6757 C   0  0  0  0  0  0  0  0  0  0  0  0
    9.3570   11.7771   23.4331 C   0  0  0  0  0  0  0  0  0  0  0  0
    7.5049   12.0048   24.9504 C   0  0  0  0  0  0  0  0  0  0  0  0
    8.4348    9.8176   24.5076 N   0  0  0  0  0  0  0  0  0  0  0  0
   10.2949   12.3564   22.5578 N   0  0  0  0  0  0  0  0  0  0  0  0
    6.3466   12.9637   25.7750 Cl  0  0  0  0  0  0  0  0  0  0  0  0
   11.6665    8.0543   22.0725 H   0  0  0  0  0  0  0  0  0  0  0  0
    8.4297   13.6562   23.9211 H   0  0  0  0  0  0  0  0  0  0  0  0
    6.8534   10.1214   25.7849 H   0  0  0  0  0  0  0  0  0  0  0  0
   10.2550   13.3405   22.3772 H   0  0  0  0  0  0  0  0  0  0  0  0
   10.9279   11.7648   22.0557 H   0  0  0  0  0  0  0  0  0  0  0  0
  1  2  3  0  0  0  0
  2  5  1  0  0  0  0
  3  6  1  0  0  0  0
  3  7  2  0  0  0  0
  4  7  1  0  0  0  0
  4  8  2  0  0  0  0
  5  6  2  0  0  0  0
  5  8  1  0  0  0  0
  6  9  1  0  0  0  0
  7 10  1  0  0  0  0
  1 11  1  0  0  0  0
  3 12  1  0  0  0  0
  4 13  1  0  0  0  0
  9 14  1  0  0  0  0
  9 15  1  0  0  0  0
M  END
> <id>
EN300-2073655

> <smiles>
NC=1C=C(Cl)C=NC1C#C

> <MDLNUMBER>
MFCD12024426

> <IUPAC Name>
5-chloro-2-ethynylpyridin-3-amine

> <CAS>
1150617-82-5

> <Purity>
95

> <URL>
https://www.enaminestore.com/catalog/EN300-2073655

> <ROCS_ShapeQuery>
_x1140_x0812_0A_x1140_0A_x1097_0A_x0365_0A_x1097_0A_x0310_0A

> <ROCS_TanimotoCombo>
0.624 

> <ROCS_ShapeTanimoto>
0.210 

> <ROCS_ColorTanimoto>
0.415 

> <ROCS_RefTversky>
0.189 

> <ROCS_RefColorTversky>
0.485 

> <ROCS_RefTverskyCombo>
0.675 

> <ROCS_FitTversky>
2.053 

> <ROCS_FitColorTversky>
0.740 

> <ROCS_FitTverskyCombo>
2.792 

> <ROCS_ColorScore>
-3.811

> <ROCS_Overlap>
1938.099

> <ROCS_Rank>
168                 

$$$$
untitled-dbase-556156_7
  -OEChem-02092423213D

 28 28  0     0  0  0  0  0  0999 V2000
    8.3990   12.4912   24.2974 C   0  0  0  0  0  0  0  0  0  0  0  0
    7.4846   11.9758   25.2093 C   0  0  0  0  0  0  0  0  0  0  0  0
    8.8356   10.2726   23.5602 C   0  0  0  0  0  0  0  0  0  0  0  0
    9.0915   11.6301   23.4535 C   0  0  0  0  0  0  0  0  0  0  0  0
    7.3005   10.6028   25.2373 C   0  0  0  0  0  0  0  0  0  0  0  0
   10.0513   12.1387   22.4895 C   0  0  0  0  0  0  0  0  0  0  0  0
    4.7293   10.1290   27.9369 C   0  0  0  0  0  0  0  0  0  0  0  0
   12.9806   13.3317   22.3851 C   0  0  0  0  0  0  0  0  0  0  0  0
    5.6312   10.9318   27.0624 C   0  0  0  0  0  0  0  0  0  0  0  0
   11.6126   13.8932   22.0609 C   0  0  0  0  0  0  0  0  0  0  0  0
    7.9548    9.7348   24.4335 N   0  0  0  0  0  0  0  0  0  0  0  0
    6.3665   10.0930   26.1731 N   0  0  0  0  0  0  0  0  0  0  0  0
   10.3065   11.6014   21.4022 O   0  0  0  0  0  0  0  0  0  0  0  0
   10.6445   13.2920   22.9275 O   0  0  0  0  0  0  0  0  0  0  0  0
    8.5651   13.5642   24.2539 H   0  0  0  0  0  0  0  0  0  0  0  0
    6.9393   12.6406   25.8717 H   0  0  0  0  0  0  0  0  0  0  0  0
    9.3451    9.5505   22.9291 H   0  0  0  0  0  0  0  0  0  0  0  0
    5.3272    9.4213   28.5298 H   0  0  0  0  0  0  0  0  0  0  0  0
    4.1804   10.8013   28.6128 H   0  0  0  0  0  0  0  0  0  0  0  0
    4.0144    9.5723   27.3133 H   0  0  0  0  0  0  0  0  0  0  0  0
   13.2564   13.5494   23.4206 H   0  0  0  0  0  0  0  0  0  0  0  0
   12.9982   12.2473   22.2350 H   0  0  0  0  0  0  0  0  0  0  0  0
   13.7398   13.7574   21.7204 H   0  0  0  0  0  0  0  0  0  0  0  0
    5.0261   11.6366   26.4732 H   0  0  0  0  0  0  0  0  0  0  0  0
    6.3369   11.4926   27.6929 H   0  0  0  0  0  0  0  0  0  0  0  0
   11.3429   13.6721   21.0239 H   0  0  0  0  0  0  0  0  0  0  0  0
   11.5966   14.9767   22.2122 H   0  0  0  0  0  0  0  0  0  0  0  0
    6.2418    9.1013   26.1864 H   0  0  0  0  0  0  0  0  0  0  0  0
  1  2  2  0  0  0  0
  1  4  1  0  0  0  0
  2  5  1  0  0  0  0
  3  4  2  0  0  0  0
  3 11  1  0  0  0  0
  4  6  1  0  0  0  0
  5 11  2  0  0  0  0
  5 12  1  0  0  0  0
  6 13  2  0  0  0  0
  6 14  1  0  0  0  0
  7  9  1  0  0  0  0
  8 10  1  0  0  0  0
  9 12  1  0  0  0  0
 10 14  1  0  0  0  0
  1 15  1  0  0  0  0
  2 16  1  0  0  0  0
  3 17  1  0  0  0  0
  7 18  1  0  0  0  0
  7 19  1  0  0  0  0
  7 20  1  0  0  0  0
  8 21  1  0  0  0  0
  8 22  1  0  0  0  0
  8 23  1  0  0  0  0
  9 24  1  0  0  0  0
  9 25  1  0  0  0  0
 10 26  1  0  0  0  0
 10 27  1  0  0  0  0
 12 28  1  0  0  0  0
M  END
> <id>
EN300-2167748

> <smiles>
CCNC=1C=CC(=CN1)C(=O)OCC

> <MDLNUMBER>
MFCD11117279

> <IUPAC Name>
ethyl 6-(ethylamino)pyridine-3-carboxylate

> <CAS>
858430-72-5

> <URL>
https://www.enaminestore.com/catalog/EN300-2167748

> <ROCS_ShapeQuery>
_x1140_x0812_0A_x1140_0A_x1097_0A_x0365_0A_x1097_0A_x0310_0A

> <ROCS_TanimotoCombo>
0.624 

> <ROCS_ShapeTanimoto>
0.228 

> <ROCS_ColorTanimoto>
0.396 

> <ROCS_RefTversky>
0.206 

> <ROCS_RefColorTversky>
0.436 

> <ROCS_RefTverskyCombo>
0.642 

> <ROCS_FitTversky>
1.900 

> <ROCS_FitColorTversky>
0.810 

> <ROCS_FitTverskyCombo>
2.710 

> <ROCS_ColorScore>
-3.403

> <ROCS_Overlap>
2111.182

> <ROCS_Rank>
169                 

$$$$
untitled-dbase-515909_2
  -OEChem-02092423213D

 24 24  0     0  0  0  0  0  0999 V2000
    8.6643   12.6449   23.8346 C   0  0  0  0  0  0  0  0  0  0  0  0
    7.9845   12.6999   24.9688 C   0  0  0  0  0  0  0  0  0  0  0  0
    8.2207   10.5933   24.5782 C   0  0  0  0  0  0  0  0  0  0  0  0
    9.5207   10.8712   22.4081 C   0  0  0  0  0  0  0  0  0  0  0  0
   11.8109    9.8160   23.1224 C   0  0  0  0  0  0  0  0  0  0  0  0
   10.7449    7.5440   23.0184 C   0  0  0  0  0  0  0  0  0  0  0  0
   11.3173    8.7554   20.8940 C   0  0  0  0  0  0  0  0  0  0  0  0
   10.8592    8.9092   22.3436 C   0  0  0  0  0  0  0  0  0  0  0  0
    8.8392   11.3277   23.5448 N   0  0  0  0  0  0  0  0  0  0  0  0
    8.1532    9.3759   24.6935 O   0  0  0  0  0  0  0  0  0  0  0  0
   10.0280   11.6027   21.5601 O   0  0  0  0  0  0  0  0  0  0  0  0
    7.6601   11.4636   25.5123 O   0  0  0  0  0  0  0  0  0  0  0  0
    9.5563    9.5037   22.3494 O   0  0  0  0  0  0  0  0  0  0  0  0
    9.0353   13.4453   23.2165 H   0  0  0  0  0  0  0  0  0  0  0  0
    7.6498   13.5536   25.5288 H   0  0  0  0  0  0  0  0  0  0  0  0
   11.8957   10.7970   22.6413 H   0  0  0  0  0  0  0  0  0  0  0  0
   11.4746    9.9626   24.1540 H   0  0  0  0  0  0  0  0  0  0  0  0
   12.8223    9.3943   23.1447 H   0  0  0  0  0  0  0  0  0  0  0  0
   10.0630    6.8901   22.4629 H   0  0  0  0  0  0  0  0  0  0  0  0
   10.3267    7.6409   24.0268 H   0  0  0  0  0  0  0  0  0  0  0  0
   11.7178    7.0474   23.0928 H   0  0  0  0  0  0  0  0  0  0  0  0
   10.6347    8.1050   20.3351 H   0  0  0  0  0  0  0  0  0  0  0  0
   11.3695    9.7221   20.3828 H   0  0  0  0  0  0  0  0  0  0  0  0
   12.3046    8.2820   20.8455 H   0  0  0  0  0  0  0  0  0  0  0  0
  1  2  2  0  0  0  0
  1  9  1  0  0  0  0
  2 12  1  0  0  0  0
  3  9  1  0  0  0  0
  3 10  2  0  0  0  0
  3 12  1  0  0  0  0
  4  9  1  0  0  0  0
  4 11  2  0  0  0  0
  4 13  1  0  0  0  0
  5  8  1  0  0  0  0
  6  8  1  0  0  0  0
  7  8  1  0  0  0  0
  8 13  1  0  0  0  0
  1 14  1  0  0  0  0
  2 15  1  0  0  0  0
  5 16  1  0  0  0  0
  5 17  1  0  0  0  0
  5 18  1  0  0  0  0
  6 19  1  0  0  0  0
  6 20  1  0  0  0  0
  6 21  1  0  0  0  0
  7 22  1  0  0  0  0
  7 23  1  0  0  0  0
  7 24  1  0  0  0  0
M  END
> <id>
EN300-8206150

> <smiles>
CC(C)(C)OC(=O)N1C=COC1=O

> <MDLNUMBER>
MFCD00075597

> <IUPAC Name>
tert-butyl 2-oxo-2,3-dihydro-1,3-oxazole-3-carboxylate

> <CAS>
75844-68-7

> <Purity>
95

> <URL>
https://www.enaminestore.com/catalog/EN300-8206150

> <MP>
83-84

> <ROCS_ShapeQuery>
_x1140_x0812_0A_x1140_0A_x1097_0A_x0365_0A_x1097_0A_x0310_0A

> <ROCS_TanimotoCombo>
0.624 

> <ROCS_ShapeTanimoto>
0.205 

> <ROCS_ColorTanimoto>
0.419 

> <ROCS_RefTversky>
0.188 

> <ROCS_RefColorTversky>
0.454 

> <ROCS_RefTverskyCombo>
0.643 

> <ROCS_FitTversky>
1.763 

> <ROCS_FitColorTversky>
0.844 

> <ROCS_FitTverskyCombo>
2.607 

> <ROCS_ColorScore>
-3.545

> <ROCS_Overlap>
1927.815

> <ROCS_Rank>
170                 

$$$$
untitled-dbase-487753_0
  -OEChem-02092423213D

 33 34  0     0  0  0  0  0  0999 V2000
    5.7074   10.7203   26.6204 C   0  0  0  0  0  0  0  0  0  0  0  0
    6.6364    9.9281   25.9414 C   0  0  0  0  0  0  0  0  0  0  0  0
    5.7230   12.1004   26.4615 C   0  0  0  0  0  0  0  0  0  0  0  0
    8.5648   12.4498   24.0907 C   0  0  0  0  0  0  0  0  0  0  0  0
    7.6025   11.8877   24.9404 C   0  0  0  0  0  0  0  0  0  0  0  0
    7.5925   10.4858   25.0969 C   0  0  0  0  0  0  0  0  0  0  0  0
    9.4736   11.6355   23.4304 C   0  0  0  0  0  0  0  0  0  0  0  0
    6.6682   12.6848   25.6234 C   0  0  0  0  0  0  0  0  0  0  0  0
    9.3859   10.2752   23.6463 C   0  0  0  0  0  0  0  0  0  0  0  0
   11.8079    9.6494   23.3498 C   0  0  0  0  0  0  0  0  0  0  0  0
   10.2109    9.4470   21.4147 C   0  0  0  0  0  0  0  0  0  0  0  0
   10.1214    7.8233   23.2954 C   0  0  0  0  0  0  0  0  0  0  0  0
   10.3294    9.3375   22.9655 C   0  0  0  0  0  0  0  0  0  0  0  0
    8.4732    9.6931   24.4575 N   0  0  0  0  0  0  0  0  0  0  0  0
   10.7162   13.5448   22.5743 N   0  0  0  0  0  0  0  0  0  0  0  0
   10.4410   12.1948   22.5778 N   0  0  0  0  0  0  0  0  0  0  0  0
    6.6131   14.4128   25.4846 Cl  0  0  0  0  0  0  0  0  0  0  0  0
    4.9738   10.2558   27.2729 H   0  0  0  0  0  0  0  0  0  0  0  0
    6.6051    8.8496   26.0854 H   0  0  0  0  0  0  0  0  0  0  0  0
    4.9945   12.7029   26.9977 H   0  0  0  0  0  0  0  0  0  0  0  0
    8.6259   13.5229   23.9278 H   0  0  0  0  0  0  0  0  0  0  0  0
   12.5217    8.9746   22.8630 H   0  0  0  0  0  0  0  0  0  0  0  0
   12.0898   10.6700   23.0687 H   0  0  0  0  0  0  0  0  0  0  0  0
   11.9467    9.5564   24.4335 H   0  0  0  0  0  0  0  0  0  0  0  0
   10.9003    8.7618   20.9093 H   0  0  0  0  0  0  0  0  0  0  0  0
    9.2034    9.2134   21.0510 H   0  0  0  0  0  0  0  0  0  0  0  0
   10.4570   10.4634   21.0854 H   0  0  0  0  0  0  0  0  0  0  0  0
   10.8364    7.1766   22.7727 H   0  0  0  0  0  0  0  0  0  0  0  0
   10.2439    7.6367   24.3687 H   0  0  0  0  0  0  0  0  0  0  0  0
    9.1171    7.4943   23.0038 H   0  0  0  0  0  0  0  0  0  0  0  0
   10.7950   13.8549   21.6069 H   0  0  0  0  0  0  0  0  0  0  0  0
   11.6347   13.6894   22.9915 H   0  0  0  0  0  0  0  0  0  0  0  0
   11.0882   11.5710   22.1122 H   0  0  0  0  0  0  0  0  0  0  0  0
  1  2  2  0  0  0  0
  1  3  1  0  0  0  0
  2  6  1  0  0  0  0
  3  8  2  0  0  0  0
  4  5  2  0  0  0  0
  4  7  1  0  0  0  0
  5  6  1  0  0  0  0
  5  8  1  0  0  0  0
  6 14  2  0  0  0  0
  7  9  2  0  0  0  0
  7 16  1  0  0  0  0
  8 17  1  0  0  0  0
  9 13  1  0  0  0  0
  9 14  1  0  0  0  0
 10 13  1  0  0  0  0
 11 13  1  0  0  0  0
 12 13  1  0  0  0  0
 15 16  1  0  0  0  0
  1 18  1  0  0  0  0
  2 19  1  0  0  0  0
  3 20  1  0  0  0  0
  4 21  1  0  0  0  0
 10 22  1  0  0  0  0
 10 23  1  0  0  0  0
 10 24  1  0  0  0  0
 11 25  1  0  0  0  0
 11 26  1  0  0  0  0
 11 27  1  0  0  0  0
 12 28  1  0  0  0  0
 12 29  1  0  0  0  0
 12 30  1  0  0  0  0
 15 31  1  0  0  0  0
 15 32  1  0  0  0  0
 16 33  1  0  0  0  0
M  END
> <id>
EN300-801840

> <smiles>
CC(C)(C)C=1N=C2C=CC=C(Cl)C2=CC1NN

> <IUPAC Name>
2-tert-butyl-5-chloro-3-hydrazinylquinoline

> <CAS>
2138428-89-2

> <URL>
https://www.enaminestore.com/catalog/EN300-801840

> <ROCS_ShapeQuery>
_x1140_x0812_0A_x1140_0A_x1097_0A_x0365_0A_x1097_0A_x0310_0A

> <ROCS_TanimotoCombo>
0.624 

> <ROCS_ShapeTanimoto>
0.287 

> <ROCS_ColorTanimoto>
0.336 

> <ROCS_RefTversky>
0.250 

> <ROCS_RefColorTversky>
0.455 

> <ROCS_RefTverskyCombo>
0.705 

> <ROCS_FitTversky>
2.048 

> <ROCS_FitColorTversky>
0.563 

> <ROCS_FitTverskyCombo>
2.612 

> <ROCS_ColorScore>
-3.600

> <ROCS_Overlap>
2569.118

> <ROCS_Rank>
171                 

$$$$
untitled-dbase-533183_0
  -OEChem-02092423213D

 32 34  0     0  0  0  0  0  0999 V2000
   13.0824   12.7091   23.1696 C   0  0  0  0  0  0  0  0  0  0  0  0
   11.9630   12.2181   23.8414 C   0  0  0  0  0  0  0  0  0  0  0  0
   12.9711   13.1318   21.8449 C   0  0  0  0  0  0  0  0  0  0  0  0
    8.7580   12.5187   24.5919 C   0  0  0  0  0  0  0  0  0  0  0  0
   10.6208   12.5722   21.8640 C   0  0  0  0  0  0  0  0  0  0  0  0
   10.7322   12.1496   23.1887 C   0  0  0  0  0  0  0  0  0  0  0  0
    9.5690   11.6421   23.8864 C   0  0  0  0  0  0  0  0  0  0  0  0
    7.6363   12.0379   25.2745 C   0  0  0  0  0  0  0  0  0  0  0  0
   11.7403   13.0633   21.1922 C   0  0  0  0  0  0  0  0  0  0  0  0
    7.3411   10.6672   25.2061 C   0  0  0  0  0  0  0  0  0  0  0  0
    9.2193   10.3062   23.8851 C   0  0  0  0  0  0  0  0  0  0  0  0
    6.7433   12.9901   26.0265 C   0  0  0  0  0  0  0  0  0  0  0  0
    5.8936   12.2541   27.0617 C   0  0  0  0  0  0  0  0  0  0  0  0
    5.2263   11.0411   26.4255 C   0  0  0  0  0  0  0  0  0  0  0  0
    8.1366    9.8053   24.5223 N   0  0  0  0  0  0  0  0  0  0  0  0
    6.2266   10.1579   25.8613 N   0  0  0  0  0  0  0  0  0  0  0  0
   10.0355    9.3904   23.1738 N   0  0  0  0  0  0  0  0  0  0  0  0
   11.6337   13.4701   19.9205 F   0  0  0  0  0  0  0  0  0  0  0  0
   14.0407   12.7633   23.6778 H   0  0  0  0  0  0  0  0  0  0  0  0
   12.0662   11.8921   24.8738 H   0  0  0  0  0  0  0  0  0  0  0  0
   13.8421   13.5158   21.3223 H   0  0  0  0  0  0  0  0  0  0  0  0
    8.9888   13.5816   24.6213 H   0  0  0  0  0  0  0  0  0  0  0  0
    9.6681   12.5270   21.3421 H   0  0  0  0  0  0  0  0  0  0  0  0
    7.3438   13.7532   26.5350 H   0  0  0  0  0  0  0  0  0  0  0  0
    6.0920   13.4987   25.3053 H   0  0  0  0  0  0  0  0  0  0  0  0
    6.5203   11.9312   27.9033 H   0  0  0  0  0  0  0  0  0  0  0  0
    5.1357   12.9325   27.4689 H   0  0  0  0  0  0  0  0  0  0  0  0
    4.6431   10.4972   27.1760 H   0  0  0  0  0  0  0  0  0  0  0  0
    4.5318   11.3578   25.6383 H   0  0  0  0  0  0  0  0  0  0  0  0
    6.0350    9.1671   25.7792 H   0  0  0  0  0  0  0  0  0  0  0  0
   10.8113    9.7404   22.6559 H   0  0  0  0  0  0  0  0  0  0  0  0
    9.7598    8.4339   23.1320 H   0  0  0  0  0  0  0  0  0  0  0  0
  1  2  2  0  0  0  0
  1  3  1  0  0  0  0
  2  6  1  0  0  0  0
  3  9  2  0  0  0  0
  4  7  1  0  0  0  0
  4  8  2  0  0  0  0
  5  6  2  0  0  0  0
  5  9  1  0  0  0  0
  6  7  1  0  0  0  0
  7 11  2  0  0  0  0
  8 10  1  0  0  0  0
  8 12  1  0  0  0  0
  9 18  1  0  0  0  0
 10 15  2  0  0  0  0
 10 16  1  0  0  0  0
 11 15  1  0  0  0  0
 11 17  1  0  0  0  0
 12 13  1  0  0  0  0
 13 14  1  0  0  0  0
 14 16  1  0  0  0  0
  1 19  1  0  0  0  0
  2 20  1  0  0  0  0
  3 21  1  0  0  0  0
  4 22  1  0  0  0  0
  5 23  1  0  0  0  0
 12 24  1  0  0  0  0
 12 25  1  0  0  0  0
 13 26  1  0  0  0  0
 13 27  1  0  0  0  0
 14 28  1  0  0  0  0
 14 29  1  0  0  0  0
 16 30  1  0  0  0  0
 17 31  1  0  0  0  0
 17 32  1  0  0  0  0
M  END
> <id>
EN300-364307

> <smiles>
NC=1N=C2NCCCC2=CC1C=3C=CC=C(F)C3

> <MDLNUMBER>
MFCD30728176

> <IUPAC Name>
3-(3-fluorophenyl)-5,6,7,8-tetrahydro-1,8-naphthyridin-2-amine

> <CAS>
2138151-38-7

> <URL>
https://www.enaminestore.com/catalog/EN300-364307

> <ROCS_ShapeQuery>
_x1140_x0812_0A_x1140_0A_x1097_0A_x0365_0A_x1097_0A_x0310_0A

> <ROCS_TanimotoCombo>
0.624 

> <ROCS_ShapeTanimoto>
0.276 

> <ROCS_ColorTanimoto>
0.347 

> <ROCS_RefTversky>
0.244 

> <ROCS_RefColorTversky>
0.487 

> <ROCS_RefTverskyCombo>
0.731 

> <ROCS_FitTversky>
1.897 

> <ROCS_FitColorTversky>
0.548 

> <ROCS_FitTverskyCombo>
2.445 

> <ROCS_ColorScore>
-3.868

> <ROCS_Overlap>
2508.969

> <ROCS_Rank>
172                 

$$$$
untitled-dbase-440240_1
  -OEChem-02092423213D

 21 21  0     0  0  0  0  0  0999 V2000
    8.5678   12.5750   24.2832 C   0  0  0  0  0  0  0  0  0  0  0  0
    9.1264   10.3585   23.6262 C   0  0  0  0  0  0  0  0  0  0  0  0
    7.5622   12.0507   25.0876 C   0  0  0  0  0  0  0  0  0  0  0  0
    9.3692   11.7196   23.5354 C   0  0  0  0  0  0  0  0  0  0  0  0
    7.4001   10.6748   25.1088 C   0  0  0  0  0  0  0  0  0  0  0  0
    6.7048   12.9708   25.8881 C   0  0  0  0  0  0  0  0  0  0  0  0
   11.1047   13.4305   23.0000 C   0  0  0  0  0  0  0  0  0  0  0  0
    8.1590    9.8121   24.3964 N   0  0  0  0  0  0  0  0  0  0  0  0
    6.3762   10.1356   25.9272 N   0  0  0  0  0  0  0  0  0  0  0  0
   10.3927   12.2197   22.7140 N   0  0  0  0  0  0  0  0  0  0  0  0
    8.7265   13.6500   24.2395 H   0  0  0  0  0  0  0  0  0  0  0  0
    9.7189    9.6411   23.0663 H   0  0  0  0  0  0  0  0  0  0  0  0
    5.8231   13.2726   25.3092 H   0  0  0  0  0  0  0  0  0  0  0  0
    6.3642   12.4927   26.8160 H   0  0  0  0  0  0  0  0  0  0  0  0
    7.2547   13.8751   26.1807 H   0  0  0  0  0  0  0  0  0  0  0  0
   10.7218   13.8700   23.9329 H   0  0  0  0  0  0  0  0  0  0  0  0
   12.1760   13.2079   23.1124 H   0  0  0  0  0  0  0  0  0  0  0  0
   10.9628   14.1430   22.1740 H   0  0  0  0  0  0  0  0  0  0  0  0
    5.8387   10.7537   26.4949 H   0  0  0  0  0  0  0  0  0  0  0  0
    6.2803    9.1454   25.9873 H   0  0  0  0  0  0  0  0  0  0  0  0
   10.6219   11.6908   21.8904 H   0  0  0  0  0  0  0  0  0  0  0  0
  1  3  1  0  0  0  0
  1  4  2  0  0  0  0
  2  4  1  0  0  0  0
  2  8  2  0  0  0  0
  3  5  2  0  0  0  0
  3  6  1  0  0  0  0
  4 10  1  0  0  0  0
  5  8  1  0  0  0  0
  5  9  1  0  0  0  0
  7 10  1  0  0  0  0
  1 11  1  0  0  0  0
  2 12  1  0  0  0  0
  6 13  1  0  0  0  0
  6 14  1  0  0  0  0
  6 15  1  0  0  0  0
  7 16  1  0  0  0  0
  7 17  1  0  0  0  0
  7 18  1  0  0  0  0
  9 19  1  0  0  0  0
  9 20  1  0  0  0  0
 10 21  1  0  0  0  0
M  END
> <id>
EN300-363543

> <smiles>
CNC=1C=NC(N)=C(C)C1

> <MDLNUMBER>
MFCD19214445

> <IUPAC Name>
N3,5-dimethylpyridine-2,5-diamine

> <CAS>
1314912-99-6

> <URL>
https://www.enaminestore.com/catalog/EN300-363543

> <ROCS_ShapeQuery>
_x1140_x0812_0A_x1140_0A_x1097_0A_x0365_0A_x1097_0A_x0310_0A

> <ROCS_TanimotoCombo>
0.624 

> <ROCS_ShapeTanimoto>
0.212 

> <ROCS_ColorTanimoto>
0.412 

> <ROCS_RefTversky>
0.191 

> <ROCS_RefColorTversky>
0.483 

> <ROCS_RefTverskyCombo>
0.674 

> <ROCS_FitTversky>
2.062 

> <ROCS_FitColorTversky>
0.736 

> <ROCS_FitTverskyCombo>
2.798 

> <ROCS_ColorScore>
-3.795

> <ROCS_Overlap>
1953.682

> <ROCS_Rank>
173                 

$$$$
untitled-dbase-531514_0
  -OEChem-02092423213D

 35 37  0     0  0  0  0  0  0999 V2000
   13.0810   12.7078   23.1656 C   0  0  0  0  0  0  0  0  0  0  0  0
   11.9611   12.2191   23.8383 C   0  0  0  0  0  0  0  0  0  0  0  0
   12.9704   13.1271   21.8398 C   0  0  0  0  0  0  0  0  0  0  0  0
    8.7563   12.5192   24.5883 C   0  0  0  0  0  0  0  0  0  0  0  0
   10.6199   12.5688   21.8594 C   0  0  0  0  0  0  0  0  0  0  0  0
   10.7305   12.1495   23.1852 C   0  0  0  0  0  0  0  0  0  0  0  0
    9.5677   11.6423   23.8836 C   0  0  0  0  0  0  0  0  0  0  0  0
    7.6350   12.0386   25.2716 C   0  0  0  0  0  0  0  0  0  0  0  0
   11.7398   13.0576   21.1867 C   0  0  0  0  0  0  0  0  0  0  0  0
    7.3404   10.6677   25.2048 C   0  0  0  0  0  0  0  0  0  0  0  0
    9.2187   10.3061   23.8839 C   0  0  0  0  0  0  0  0  0  0  0  0
    6.7416   12.9912   26.0227 C   0  0  0  0  0  0  0  0  0  0  0  0
    5.8925   12.2559   27.0589 C   0  0  0  0  0  0  0  0  0  0  0  0
    5.2257   11.0419   26.4241 C   0  0  0  0  0  0  0  0  0  0  0  0
   11.6224   13.5060   19.7690 C   0  0  0  0  0  0  0  0  0  0  0  0
    8.1363    9.8054   24.5219 N   0  0  0  0  0  0  0  0  0  0  0  0
    6.2263   10.1586   25.8608 N   0  0  0  0  0  0  0  0  0  0  0  0
   10.0352    9.3899   23.1736 N   0  0  0  0  0  0  0  0  0  0  0  0
   14.0393   12.7616   23.6742 H   0  0  0  0  0  0  0  0  0  0  0  0
   12.0633   11.8962   24.8718 H   0  0  0  0  0  0  0  0  0  0  0  0
   13.8481   13.5068   21.3232 H   0  0  0  0  0  0  0  0  0  0  0  0
    8.9866   13.5822   24.6164 H   0  0  0  0  0  0  0  0  0  0  0  0
    9.6630   12.5168   21.3440 H   0  0  0  0  0  0  0  0  0  0  0  0
    7.3418   13.7552   26.5302 H   0  0  0  0  0  0  0  0  0  0  0  0
    6.0899   13.4987   25.3010 H   0  0  0  0  0  0  0  0  0  0  0  0
    6.5194   11.9343   27.9007 H   0  0  0  0  0  0  0  0  0  0  0  0
    5.1342   12.9344   27.4655 H   0  0  0  0  0  0  0  0  0  0  0  0
    4.6428   10.4985   27.1753 H   0  0  0  0  0  0  0  0  0  0  0  0
    4.5309   11.3574   25.6367 H   0  0  0  0  0  0  0  0  0  0  0  0
   11.8157   12.6692   19.0867 H   0  0  0  0  0  0  0  0  0  0  0  0
   10.6208   13.9026   19.5583 H   0  0  0  0  0  0  0  0  0  0  0  0
   12.3359   14.3097   19.5451 H   0  0  0  0  0  0  0  0  0  0  0  0
    6.0352    9.1676   25.7798 H   0  0  0  0  0  0  0  0  0  0  0  0
   10.8107    9.7397   22.6551 H   0  0  0  0  0  0  0  0  0  0  0  0
    9.7600    8.4333   23.1328 H   0  0  0  0  0  0  0  0  0  0  0  0
  1  2  1  0  0  0  0
  1  3  2  0  0  0  0
  2  6  2  0  0  0  0
  3  9  1  0  0  0  0
  4  7  1  0  0  0  0
  4  8  2  0  0  0  0
  5  6  1  0  0  0  0
  5  9  2  0  0  0  0
  6  7  1  0  0  0  0
  7 11  2  0  0  0  0
  8 10  1  0  0  0  0
  8 12  1  0  0  0  0
  9 15  1  0  0  0  0
 10 16  2  0  0  0  0
 10 17  1  0  0  0  0
 11 16  1  0  0  0  0
 11 18  1  0  0  0  0
 12 13  1  0  0  0  0
 13 14  1  0  0  0  0
 14 17  1  0  0  0  0
  1 19  1  0  0  0  0
  2 20  1  0  0  0  0
  3 21  1  0  0  0  0
  4 22  1  0  0  0  0
  5 23  1  0  0  0  0
 12 24  1  0  0  0  0
 12 25  1  0  0  0  0
 13 26  1  0  0  0  0
 13 27  1  0  0  0  0
 14 28  1  0  0  0  0
 14 29  1  0  0  0  0
 15 30  1  0  0  0  0
 15 31  1  0  0  0  0
 15 32  1  0  0  0  0
 17 33  1  0  0  0  0
 18 34  1  0  0  0  0
 18 35  1  0  0  0  0
M  END
> <id>
EN300-364308

> <smiles>
CC=1C=CC=C(C1)C=2C=C3CCCNC3=NC2N

> <MDLNUMBER>
MFCD30728177

> <IUPAC Name>
3-(3-methylphenyl)-5,6,7,8-tetrahydro-1,8-naphthyridin-2-amine

> <CAS>
2137596-21-3

> <URL>
https://www.enaminestore.com/catalog/EN300-364308

> <ROCS_ShapeQuery>
_x1140_x0812_0A_x1140_0A_x1097_0A_x0365_0A_x1097_0A_x0310_0A

> <ROCS_TanimotoCombo>
0.623 

> <ROCS_ShapeTanimoto>
0.276 

> <ROCS_ColorTanimoto>
0.347 

> <ROCS_RefTversky>
0.244 

> <ROCS_RefColorTversky>
0.487 

> <ROCS_RefTverskyCombo>
0.731 

> <ROCS_FitTversky>
1.902 

> <ROCS_FitColorTversky>
0.548 

> <ROCS_FitTverskyCombo>
2.450 

> <ROCS_ColorScore>
-3.868

> <ROCS_Overlap>
2506.550

> <ROCS_Rank>
174                 

$$$$
untitled-dbase-512047_9
  -OEChem-02092423213D

 29 30  0     0  0  0  0  0  0999 V2000
    8.9842   10.1549   23.6888 C   0  0  0  0  0  0  0  0  0  0  0  0
    9.1761   11.5202   23.4912 C   0  0  0  0  0  0  0  0  0  0  0  0
    7.4257   11.8849   25.0522 C   0  0  0  0  0  0  0  0  0  0  0  0
    8.3699   12.4102   24.1922 C   0  0  0  0  0  0  0  0  0  0  0  0
    7.2963   10.5063   25.1912 C   0  0  0  0  0  0  0  0  0  0  0  0
   10.2003   11.9766   22.5640 C   0  0  0  0  0  0  0  0  0  0  0  0
    6.4224   12.5922   25.9002 C   0  0  0  0  0  0  0  0  0  0  0  0
    5.8228   11.4284   26.7173 C   0  0  0  0  0  0  0  0  0  0  0  0
    8.5090   13.8850   24.0268 C   0  0  0  0  0  0  0  0  0  0  0  0
   13.0077   13.1884   21.7563 C   0  0  0  0  0  0  0  0  0  0  0  0
   11.7669   13.7680   22.4013 C   0  0  0  0  0  0  0  0  0  0  0  0
    8.0591    9.6205   24.5236 N   0  0  0  0  0  0  0  0  0  0  0  0
    6.2771   10.1950   26.1008 N   0  0  0  0  0  0  0  0  0  0  0  0
   10.2261   11.6990   21.3580 O   0  0  0  0  0  0  0  0  0  0  0  0
   11.1349   12.7545   23.1907 O   0  0  0  0  0  0  0  0  0  0  0  0
    9.5890    9.4220   23.1621 H   0  0  0  0  0  0  0  0  0  0  0  0
    6.8898   13.3337   26.5546 H   0  0  0  0  0  0  0  0  0  0  0  0
    5.6587   13.0646   25.2741 H   0  0  0  0  0  0  0  0  0  0  0  0
    6.1806   11.4716   27.7527 H   0  0  0  0  0  0  0  0  0  0  0  0
    4.7293   11.4812   26.7387 H   0  0  0  0  0  0  0  0  0  0  0  0
    7.8572   14.2429   23.2201 H   0  0  0  0  0  0  0  0  0  0  0  0
    8.2433   14.4171   24.9498 H   0  0  0  0  0  0  0  0  0  0  0  0
    9.5437   14.1640   23.7869 H   0  0  0  0  0  0  0  0  0  0  0  0
   13.7167   12.8437   22.5142 H   0  0  0  0  0  0  0  0  0  0  0  0
   12.7476   12.3463   21.1065 H   0  0  0  0  0  0  0  0  0  0  0  0
   13.5002   13.9363   21.1261 H   0  0  0  0  0  0  0  0  0  0  0  0
   11.0621   14.1108   21.6379 H   0  0  0  0  0  0  0  0  0  0  0  0
   12.0287   14.6086   23.0507 H   0  0  0  0  0  0  0  0  0  0  0  0
    6.0410    9.2607   26.3965 H   0  0  0  0  0  0  0  0  0  0  0  0
  1  2  1  0  0  0  0
  1 12  2  0  0  0  0
  2  4  2  0  0  0  0
  2  6  1  0  0  0  0
  3  4  1  0  0  0  0
  3  5  2  0  0  0  0
  3  7  1  0  0  0  0
  4  9  1  0  0  0  0
  5 12  1  0  0  0  0
  5 13  1  0  0  0  0
  6 14  2  0  0  0  0
  6 15  1  0  0  0  0
  7  8  1  0  0  0  0
  8 13  1  0  0  0  0
 10 11  1  0  0  0  0
 11 15  1  0  0  0  0
  1 16  1  0  0  0  0
  7 17  1  0  0  0  0
  7 18  1  0  0  0  0
  8 19  1  0  0  0  0
  8 20  1  0  0  0  0
  9 21  1  0  0  0  0
  9 22  1  0  0  0  0
  9 23  1  0  0  0  0
 10 24  1  0  0  0  0
 10 25  1  0  0  0  0
 10 26  1  0  0  0  0
 11 27  1  0  0  0  0
 11 28  1  0  0  0  0
 13 29  1  0  0  0  0
M  END
> <id>
EN300-28272617

> <smiles>
CCOC(=O)C=1C=NC=2NCCC2C1C

> <IUPAC Name>
ethyl 4-methyl-1H,2H,3H-pyrrolo[2,3-b]pyridine-5-carboxylate

> <CAS>
2091558-75-5

> <URL>
https://www.enaminestore.com/catalog/EN300-28272617

> <ROCS_ShapeQuery>
_x1140_x0812_0A_x1140_0A_x1097_0A_x0365_0A_x1097_0A_x0310_0A

> <ROCS_TanimotoCombo>
0.623 

> <ROCS_ShapeTanimoto>
0.262 

> <ROCS_ColorTanimoto>
0.361 

> <ROCS_RefTversky>
0.232 

> <ROCS_RefColorTversky>
0.440 

> <ROCS_RefTverskyCombo>
0.672 

> <ROCS_FitTversky>
2.017 

> <ROCS_FitColorTversky>
0.668 

> <ROCS_FitTverskyCombo>
2.685 

> <ROCS_ColorScore>
-3.454

> <ROCS_Overlap>
2374.672

> <ROCS_Rank>
175                 

$$$$
untitled-dbase-38189_5
  -OEChem-02092423213D

 22 22  0     0  0  0  0  0  0999 V2000
    7.7915   10.5581   25.4931 C   0  0  0  0  0  0  0  0  0  0  0  0
    7.7019   11.9342   25.4745 C   0  0  0  0  0  0  0  0  0  0  0  0
    8.8064   10.9289   23.5846 C   0  0  0  0  0  0  0  0  0  0  0  0
    9.5178   10.6589   22.3231 C   0  0  0  0  0  0  0  0  0  0  0  0
    7.2742    9.6725   26.5555 C   0  0  0  0  0  0  0  0  0  0  0  0
   11.1692    8.7401   22.4930 C   0  0  0  0  0  0  0  0  0  0  0  0
    9.8197    9.2052   21.9686 C   0  0  0  0  0  0  0  0  0  0  0  0
    8.4242    9.9798   24.4100 N   0  0  0  0  0  0  0  0  0  0  0  0
    9.8696   11.5616   21.5611 O   0  0  0  0  0  0  0  0  0  0  0  0
    7.2475   14.4560   25.9735 O   0  0  0  0  0  0  0  0  0  0  0  0
    5.7311   12.7127   27.0266 O   0  0  0  0  0  0  0  0  0  0  0  0
    8.4380   12.5395   24.0486 S   0  0  0  0  0  0  0  0  0  0  0  0
    7.0294   13.1442   26.5490 S   0  0  0  0  0  0  0  0  0  0  0  0
    8.2672   13.0171   28.1727 Cl  0  0  0  0  0  0  0  0  0  0  0  0
    6.2351    9.3693   26.3481 H   0  0  0  0  0  0  0  0  0  0  0  0
    7.8775    8.7547   26.6585 H   0  0  0  0  0  0  0  0  0  0  0  0
    7.2904   10.1608   27.5447 H   0  0  0  0  0  0  0  0  0  0  0  0
   11.9814    9.3521   22.0868 H   0  0  0  0  0  0  0  0  0  0  0  0
   11.1991    8.8139   23.5845 H   0  0  0  0  0  0  0  0  0  0  0  0
   11.3617    7.6984   22.2156 H   0  0  0  0  0  0  0  0  0  0  0  0
    9.0387    8.5686   22.3981 H   0  0  0  0  0  0  0  0  0  0  0  0
    9.8124    9.1001   20.8783 H   0  0  0  0  0  0  0  0  0  0  0  0
  1  2  2  0  0  0  0
  1  5  1  0  0  0  0
  1  8  1  0  0  0  0
  2 12  1  0  0  0  0
  2 13  1  0  0  0  0
  3  4  1  0  0  0  0
  3  8  2  0  0  0  0
  3 12  1  0  0  0  0
  4  7  1  0  0  0  0
  4  9  2  0  0  0  0
  6  7  1  0  0  0  0
 10 13  2  0  0  0  0
 11 13  2  0  0  0  0
 13 14  1  0  0  0  0
  5 15  1  0  0  0  0
  5 16  1  0  0  0  0
  5 17  1  0  0  0  0
  6 18  1  0  0  0  0
  6 19  1  0  0  0  0
  6 20  1  0  0  0  0
  7 21  1  0  0  0  0
  7 22  1  0  0  0  0
M  END
> <id>
EN300-194344

> <smiles>
CCC(=O)C1=NC(C)=C(S1)S(=O)(=O)Cl

> <MDLNUMBER>
MFCD28139538

> <IUPAC Name>
4-methyl-2-propanoyl-1,3-thiazole-5-sulfonyl chloride

> <CAS>
1690581-32-8

> <URL>
https://www.enaminestore.com/catalog/EN300-194344

> <ROCS_ShapeQuery>
_x1140_x0812_0A_x1140_0A_x1097_0A_x0365_0A_x1097_0A_x0310_0A

> <ROCS_TanimotoCombo>
0.623 

> <ROCS_ShapeTanimoto>
0.200 

> <ROCS_ColorTanimoto>
0.423 

> <ROCS_RefTversky>
0.184 

> <ROCS_RefColorTversky>
0.457 

> <ROCS_RefTverskyCombo>
0.642 

> <ROCS_FitTversky>
1.769 

> <ROCS_FitColorTversky>
0.849 

> <ROCS_FitTverskyCombo>
2.618 

> <ROCS_ColorScore>
-3.567

> <ROCS_Overlap>
1887.849

> <ROCS_Rank>
176                 

$$$$
untitled-dbase-460868_0
  -OEChem-02092423213D

 33 34  0     0  0  0  0  0  0999 V2000
    6.6364    9.9312   25.9416 C   0  0  0  0  0  0  0  0  0  0  0  0
    5.7092   10.7245   26.6218 C   0  0  0  0  0  0  0  0  0  0  0  0
    8.5679   12.4510   24.0915 C   0  0  0  0  0  0  0  0  0  0  0  0
    6.6726   12.6881   25.6255 C   0  0  0  0  0  0  0  0  0  0  0  0
    7.6052   11.8900   24.9414 C   0  0  0  0  0  0  0  0  0  0  0  0
    7.5929   10.4880   25.0970 C   0  0  0  0  0  0  0  0  0  0  0  0
    9.4750   11.6357   23.4300 C   0  0  0  0  0  0  0  0  0  0  0  0
    5.7270   12.1047   26.4638 C   0  0  0  0  0  0  0  0  0  0  0  0
    9.3851   10.2754   23.6451 C   0  0  0  0  0  0  0  0  0  0  0  0
   11.8072    9.6480   23.3527 C   0  0  0  0  0  0  0  0  0  0  0  0
   10.2139    9.4486   21.4143 C   0  0  0  0  0  0  0  0  0  0  0  0
   10.1194    7.8233   23.2933 C   0  0  0  0  0  0  0  0  0  0  0  0
   10.3292    9.3376   22.9652 C   0  0  0  0  0  0  0  0  0  0  0  0
    8.4719    9.6943   24.4564 N   0  0  0  0  0  0  0  0  0  0  0  0
   10.7179   13.5449   22.5741 N   0  0  0  0  0  0  0  0  0  0  0  0
   10.4417   12.1949   22.5770 N   0  0  0  0  0  0  0  0  0  0  0  0
    4.8400   12.8691   27.1137 F   0  0  0  0  0  0  0  0  0  0  0  0
    6.6010    8.8525   26.0833 H   0  0  0  0  0  0  0  0  0  0  0  0
    4.9750   10.2609   27.2740 H   0  0  0  0  0  0  0  0  0  0  0  0
    8.6068   13.5294   23.9475 H   0  0  0  0  0  0  0  0  0  0  0  0
    6.6775   13.7696   25.5091 H   0  0  0  0  0  0  0  0  0  0  0  0
   12.5215    8.9732   22.8667 H   0  0  0  0  0  0  0  0  0  0  0  0
   12.0904   10.6687   23.0731 H   0  0  0  0  0  0  0  0  0  0  0  0
   11.9438    9.5540   24.4366 H   0  0  0  0  0  0  0  0  0  0  0  0
   10.9037    8.7634   20.9097 H   0  0  0  0  0  0  0  0  0  0  0  0
    9.2069    9.2161   21.0484 H   0  0  0  0  0  0  0  0  0  0  0  0
   10.4614   10.4652   21.0865 H   0  0  0  0  0  0  0  0  0  0  0  0
   10.8350    7.1765   22.7714 H   0  0  0  0  0  0  0  0  0  0  0  0
   10.2397    7.6356   24.3667 H   0  0  0  0  0  0  0  0  0  0  0  0
    9.1155    7.4953   22.9994 H   0  0  0  0  0  0  0  0  0  0  0  0
   10.7959   13.8556   21.6069 H   0  0  0  0  0  0  0  0  0  0  0  0
   11.6370   13.6885   22.9905 H   0  0  0  0  0  0  0  0  0  0  0  0
   11.0881   11.5711   22.1100 H   0  0  0  0  0  0  0  0  0  0  0  0
  1  2  2  0  0  0  0
  1  6  1  0  0  0  0
  2  8  1  0  0  0  0
  3  5  2  0  0  0  0
  3  7  1  0  0  0  0
  4  5  1  0  0  0  0
  4  8  2  0  0  0  0
  5  6  1  0  0  0  0
  6 14  2  0  0  0  0
  7  9  2  0  0  0  0
  7 16  1  0  0  0  0
  8 17  1  0  0  0  0
  9 13  1  0  0  0  0
  9 14  1  0  0  0  0
 10 13  1  0  0  0  0
 11 13  1  0  0  0  0
 12 13  1  0  0  0  0
 15 16  1  0  0  0  0
  1 18  1  0  0  0  0
  2 19  1  0  0  0  0
  3 20  1  0  0  0  0
  4 21  1  0  0  0  0
 10 22  1  0  0  0  0
 10 23  1  0  0  0  0
 10 24  1  0  0  0  0
 11 25  1  0  0  0  0
 11 26  1  0  0  0  0
 11 27  1  0  0  0  0
 12 28  1  0  0  0  0
 12 29  1  0  0  0  0
 12 30  1  0  0  0  0
 15 31  1  0  0  0  0
 15 32  1  0  0  0  0
 16 33  1  0  0  0  0
M  END
> <id>
EN300-801639

> <smiles>
CC(C)(C)C=1N=C2C=CC(F)=CC2=CC1NN

> <IUPAC Name>
2-tert-butyl-6-fluoro-3-hydrazinylquinoline

> <CAS>
2138379-91-4

> <URL>
https://www.enaminestore.com/catalog/EN300-801639

> <ROCS_ShapeQuery>
_x1140_x0812_0A_x1140_0A_x1097_0A_x0365_0A_x1097_0A_x0310_0A

> <ROCS_TanimotoCombo>
0.623 

> <ROCS_ShapeTanimoto>
0.287 

> <ROCS_ColorTanimoto>
0.336 

> <ROCS_RefTversky>
0.250 

> <ROCS_RefColorTversky>
0.455 

> <ROCS_RefTverskyCombo>
0.705 

> <ROCS_FitTversky>
2.030 

> <ROCS_FitColorTversky>
0.564 

> <ROCS_FitTverskyCombo>
2.593 

> <ROCS_ColorScore>
-3.601

> <ROCS_Overlap>
2566.976

> <ROCS_Rank>
177                 

$$$$
untitled-dbase-511370_9
  -OEChem-02092423213D

 37 37  0     1  0  0  0  0  0999 V2000
   11.0070    8.7879   22.6460 C   0  0  0  0  0  0  0  0  0  0  0  0
    9.8486    9.4524   22.7173 C   0  0  0  0  0  0  0  0  0  0  0  0
   10.6378   12.3427   21.4268 C   0  0  0  0  0  0  0  0  0  0  0  0
    7.4974   11.9247   25.2582 C   0  0  0  0  0  0  0  0  0  0  0  0
    8.6392   12.6358   24.5401 C   0  0  0  0  0  0  0  0  0  0  0  0
    7.9045   10.5078   25.6336 C   0  0  0  0  0  0  0  0  0  0  0  0
    9.4702   10.3563   23.8477 C   0  0  1  0  0  0  0  0  0  0  0  0
    9.1532   11.7859   23.3699 C   0  0  2  0  0  0  0  0  0  0  0  0
   10.2553   14.6876   20.3311 C   0  0  0  0  0  0  0  0  0  0  0  0
   12.6989   15.1797   20.6407 C   0  0  0  0  0  0  0  0  0  0  0  0
   11.9617   13.5869   18.8441 C   0  0  0  0  0  0  0  0  0  0  0  0
   11.6717   14.1207   20.2461 C   0  0  0  0  0  0  0  0  0  0  0  0
   10.3249   12.4231   22.7684 N   0  0  0  0  0  0  0  0  0  0  0  0
    9.9911   11.7402   20.5763 O   0  0  0  0  0  0  0  0  0  0  0  0
    8.3173    9.7816   24.4773 O   0  0  0  0  0  0  0  0  0  0  0  0
   11.7865   13.0398   21.1783 O   0  0  0  0  0  0  0  0  0  0  0  0
   11.2213    8.1471   21.7977 H   0  0  0  0  0  0  0  0  0  0  0  0
   11.7571    8.8695   23.4250 H   0  0  0  0  0  0  0  0  0  0  0  0
    9.1287    9.3379   21.9117 H   0  0  0  0  0  0  0  0  0  0  0  0
    7.2010   12.4855   26.1506 H   0  0  0  0  0  0  0  0  0  0  0  0
    6.6308   11.8859   24.5868 H   0  0  0  0  0  0  0  0  0  0  0  0
    8.2955   13.6127   24.1800 H   0  0  0  0  0  0  0  0  0  0  0  0
    9.4519   12.8203   25.2546 H   0  0  0  0  0  0  0  0  0  0  0  0
    8.7120   10.5058   26.3750 H   0  0  0  0  0  0  0  0  0  0  0  0
    7.0519    9.9794   26.0718 H   0  0  0  0  0  0  0  0  0  0  0  0
   10.2939   10.3629   24.5695 H   0  0  0  0  0  0  0  0  0  0  0  0
    8.3863   11.7554   22.5948 H   0  0  0  0  0  0  0  0  0  0  0  0
    9.5150   13.9305   20.0486 H   0  0  0  0  0  0  0  0  0  0  0  0
   10.0225   15.0420   21.3405 H   0  0  0  0  0  0  0  0  0  0  0  0
   10.1256   15.5224   19.6328 H   0  0  0  0  0  0  0  0  0  0  0  0
   13.7166   14.7773   20.5811 H   0  0  0  0  0  0  0  0  0  0  0  0
   12.5528   15.4972   21.6794 H   0  0  0  0  0  0  0  0  0  0  0  0
   12.6369   16.0625   19.9963 H   0  0  0  0  0  0  0  0  0  0  0  0
   12.9776   13.1802   18.7828 H   0  0  0  0  0  0  0  0  0  0  0  0
   11.2565   12.7996   18.5584 H   0  0  0  0  0  0  0  0  0  0  0  0
   11.9053   14.3911   18.1015 H   0  0  0  0  0  0  0  0  0  0  0  0
   10.9439   12.9554   23.3733 H   0  0  0  0  0  0  0  0  0  0  0  0
  1  2  2  0  0  0  0
  2  7  1  1  0  0  0
  3 13  1  0  0  0  0
  3 14  2  0  0  0  0
  3 16  1  0  0  0  0
  4  5  1  0  0  0  0
  4  6  1  0  0  0  0
  5  8  1  0  0  0  0
  6 15  1  0  0  0  0
  7  8  1  0  0  0  0
  7 15  1  0  0  0  0
  8 13  1  6  0  0  0
  9 12  1  0  0  0  0
 10 12  1  0  0  0  0
 11 12  1  0  0  0  0
 12 16  1  0  0  0  0
  1 17  1  0  0  0  0
  1 18  1  0  0  0  0
  2 19  1  0  0  0  0
  4 20  1  0  0  0  0
  4 21  1  0  0  0  0
  5 22  1  0  0  0  0
  5 23  1  0  0  0  0
  6 24  1  0  0  0  0
  6 25  1  0  0  0  0
  7 26  1  0  0  0  0
  8 27  1  0  0  0  0
  9 28  1  0  0  0  0
  9 29  1  0  0  0  0
  9 30  1  0  0  0  0
 10 31  1  0  0  0  0
 10 32  1  0  0  0  0
 10 33  1  0  0  0  0
 11 34  1  0  0  0  0
 11 35  1  0  0  0  0
 11 36  1  0  0  0  0
 13 37  1  0  0  0  0
M  END
> <id>
EN300-7064089

> <smiles>
CC(C)(C)OC(=O)N[C@@H]1CCCO[C@H]1C=C |&1:8,13,r|

> <IUPAC Name>
rac-tert-butyl N-[(2R,3S)-2-ethenyloxan-3-yl]carbamate

> <CAS>
1663470-81-2

> <URL>
https://www.enaminestore.com/catalog/EN300-7064089

> <ROCS_ShapeQuery>
_x1140_x0812_0A_x1140_0A_x1097_0A_x0365_0A_x1097_0A_x0310_0A

> <ROCS_TanimotoCombo>
0.623 

> <ROCS_ShapeTanimoto>
0.211 

> <ROCS_ColorTanimoto>
0.412 

> <ROCS_RefTversky>
0.195 

> <ROCS_RefColorTversky>
0.517 

> <ROCS_RefTverskyCombo>
0.711 

> <ROCS_FitTversky>
1.688 

> <ROCS_FitColorTversky>
0.669 

> <ROCS_FitTverskyCombo>
2.357 

> <ROCS_ColorScore>
-4.082

> <ROCS_Overlap>
1994.855

> <ROCS_Rank>
178                 

$$$$
untitled-dbase-560212_1
  -OEChem-02092423213D

 23 23  0     0  0  0  0  0  0999 V2000
    6.6538   13.1179   25.9701 B   0  0  0  0  0  0  0  0  0  0  0  0
    8.4464   12.5117   24.2148 C   0  0  0  0  0  0  0  0  0  0  0  0
    7.4670   10.7311   25.4504 C   0  0  0  0  0  0  0  0  0  0  0  0
    7.5488   12.0893   25.1890 C   0  0  0  0  0  0  0  0  0  0  0  0
    9.2239   11.5762   23.5413 C   0  0  0  0  0  0  0  0  0  0  0  0
    9.0674   10.2410   23.8766 C   0  0  0  0  0  0  0  0  0  0  0  0
   10.1605   12.0271   22.5207 C   0  0  0  0  0  0  0  0  0  0  0  0
   12.0681   13.4021   22.1292 C   0  0  0  0  0  0  0  0  0  0  0  0
    8.2058    9.7926   24.8170 N   0  0  0  0  0  0  0  0  0  0  0  0
    9.8539    9.2807   23.1916 N   0  0  0  0  0  0  0  0  0  0  0  0
   10.1214   11.6783   21.3347 O   0  0  0  0  0  0  0  0  0  0  0  0
    6.7310   14.4651   25.7143 O   0  0  0  0  0  0  0  0  0  0  0  0
    5.7830   12.6537   26.9269 O   0  0  0  0  0  0  0  0  0  0  0  0
   11.0894   12.8868   23.0381 O   0  0  0  0  0  0  0  0  0  0  0  0
    8.5493   13.5675   23.9678 H   0  0  0  0  0  0  0  0  0  0  0  0
    6.7888   10.3248   26.1967 H   0  0  0  0  0  0  0  0  0  0  0  0
   12.7462   14.0718   22.6639 H   0  0  0  0  0  0  0  0  0  0  0  0
   11.5678   13.9419   21.3212 H   0  0  0  0  0  0  0  0  0  0  0  0
   12.6376   12.5691   21.7103 H   0  0  0  0  0  0  0  0  0  0  0  0
   10.4579    9.5872   22.4609 H   0  0  0  0  0  0  0  0  0  0  0  0
    9.7148    8.3146   23.3921 H   0  0  0  0  0  0  0  0  0  0  0  0
    6.1310   15.0013   26.2581 H   0  0  0  0  0  0  0  0  0  0  0  0
    5.2887   13.3835   27.3366 H   0  0  0  0  0  0  0  0  0  0  0  0
  1  4  1  0  0  0  0
  1 12  1  0  0  0  0
  1 13  1  0  0  0  0
  2  4  2  0  0  0  0
  2  5  1  0  0  0  0
  3  4  1  0  0  0  0
  3  9  2  0  0  0  0
  5  6  2  0  0  0  0
  5  7  1  0  0  0  0
  6  9  1  0  0  0  0
  6 10  1  0  0  0  0
  7 11  2  0  0  0  0
  7 14  1  0  0  0  0
  8 14  1  0  0  0  0
  2 15  1  0  0  0  0
  3 16  1  0  0  0  0
  8 17  1  0  0  0  0
  8 18  1  0  0  0  0
  8 19  1  0  0  0  0
 10 20  1  0  0  0  0
 10 21  1  0  0  0  0
 12 22  1  0  0  0  0
 13 23  1  0  0  0  0
M  END
> <id>
EN300-23627321

> <smiles>
COC(=O)C=1C=C(C=NC1N)B(O)O

> <MDLNUMBER>
MFCD18262103

> <IUPAC Name>
[6-amino-5-(methoxycarbonyl)pyridin-3-yl]boronic acid

> <URL>
https://www.enaminestore.com/catalog/EN300-23627321

> <ROCS_ShapeQuery>
_x1140_x0812_0A_x1140_0A_x1097_0A_x0365_0A_x1097_0A_x0310_0A

> <ROCS_TanimotoCombo>
0.623 

> <ROCS_ShapeTanimoto>
0.250 

> <ROCS_ColorTanimoto>
0.373 

> <ROCS_RefTversky>
0.222 

> <ROCS_RefColorTversky>
0.450 

> <ROCS_RefTverskyCombo>
0.672 

> <ROCS_FitTversky>
2.028 

> <ROCS_FitColorTversky>
0.685 

> <ROCS_FitTverskyCombo>
2.713 

> <ROCS_ColorScore>
-3.534

> <ROCS_Overlap>
2273.518

> <ROCS_Rank>
179                 

$$$$
untitled-dbase-541231_8
  -OEChem-02092423213D

 25 25  0     0  0  0  0  0  0999 V2000
    7.5468   10.6406   25.3588 C   0  0  0  0  0  0  0  0  0  0  0  0
    7.9031   11.9458   25.6266 C   0  0  0  0  0  0  0  0  0  0  0  0
    9.0783   10.8891   23.8087 C   0  0  0  0  0  0  0  0  0  0  0  0
    9.9639   10.5636   22.6753 C   0  0  0  0  0  0  0  0  0  0  0  0
    6.5249    9.8537   26.0789 C   0  0  0  0  0  0  0  0  0  0  0  0
    7.3953   12.8794   26.6516 C   0  0  0  0  0  0  0  0  0  0  0  0
   12.1821    9.6728   21.9307 C   0  0  0  0  0  0  0  0  0  0  0  0
   10.3076    8.0812   22.4255 C   0  0  0  0  0  0  0  0  0  0  0  0
   10.9645    9.4085   22.8116 C   0  0  0  0  0  0  0  0  0  0  0  0
    8.2194   10.0332   24.3164 N   0  0  0  0  0  0  0  0  0  0  0  0
    9.9306   11.2031   21.6203 O   0  0  0  0  0  0  0  0  0  0  0  0
    9.1304   12.4424   24.5365 S   0  0  0  0  0  0  0  0  0  0  0  0
    5.5328    9.9735   25.6147 H   0  0  0  0  0  0  0  0  0  0  0  0
    6.7639    8.7770   26.0879 H   0  0  0  0  0  0  0  0  0  0  0  0
    6.4402   10.1567   27.1362 H   0  0  0  0  0  0  0  0  0  0  0  0
    7.9771   12.7994   27.5843 H   0  0  0  0  0  0  0  0  0  0  0  0
    7.4435   13.9289   26.3151 H   0  0  0  0  0  0  0  0  0  0  0  0
    6.3373   12.6866   26.8985 H   0  0  0  0  0  0  0  0  0  0  0  0
   11.8944    9.7764   20.8784 H   0  0  0  0  0  0  0  0  0  0  0  0
   12.9033    8.8524   22.0070 H   0  0  0  0  0  0  0  0  0  0  0  0
   12.6924   10.5972   22.2194 H   0  0  0  0  0  0  0  0  0  0  0  0
    9.9722    8.1039   21.3833 H   0  0  0  0  0  0  0  0  0  0  0  0
    9.4378    7.8618   23.0546 H   0  0  0  0  0  0  0  0  0  0  0  0
   11.0148    7.2519   22.5363 H   0  0  0  0  0  0  0  0  0  0  0  0
   11.2701    9.3079   23.8579 H   0  0  0  0  0  0  0  0  0  0  0  0
  1  2  2  0  0  0  0
  1  5  1  0  0  0  0
  1 10  1  0  0  0  0
  2  6  1  0  0  0  0
  2 12  1  0  0  0  0
  3  4  1  0  0  0  0
  3 10  2  0  0  0  0
  3 12  1  0  0  0  0
  4  9  1  0  0  0  0
  4 11  2  0  0  0  0
  7  9  1  0  0  0  0
  8  9  1  0  0  0  0
  5 13  1  0  0  0  0
  5 14  1  0  0  0  0
  5 15  1  0  0  0  0
  6 16  1  0  0  0  0
  6 17  1  0  0  0  0
  6 18  1  0  0  0  0
  7 19  1  0  0  0  0
  7 20  1  0  0  0  0
  7 21  1  0  0  0  0
  8 22  1  0  0  0  0
  8 23  1  0  0  0  0
  8 24  1  0  0  0  0
  9 25  1  0  0  0  0
M  END
> <id>
EN300-1269012

> <smiles>
CC(C)C(=O)C1=NC(C)=C(C)S1

> <IUPAC Name>
1-(dimethyl-1,3-thiazol-2-yl)-2-methylpropan-1-one

> <CAS>
1541051-49-3

> <URL>
https://www.enaminestore.com/catalog/EN300-1269012

> <ROCS_ShapeQuery>
_x1140_x0812_0A_x1140_0A_x1097_0A_x0365_0A_x1097_0A_x0310_0A

> <ROCS_TanimotoCombo>
0.623 

> <ROCS_ShapeTanimoto>
0.193 

> <ROCS_ColorTanimoto>
0.429 

> <ROCS_RefTversky>
0.178 

> <ROCS_RefColorTversky>
0.462 

> <ROCS_RefTverskyCombo>
0.640 

> <ROCS_FitTversky>
1.813 

> <ROCS_FitColorTversky>
0.858 

> <ROCS_FitTverskyCombo>
2.671 

> <ROCS_ColorScore>
-3.605

> <ROCS_Overlap>
1822.588

> <ROCS_Rank>
180                 

$$$$
untitled-dbase-344594_2
  -OEChem-02092423213D

 25 25  0     0  0  0  0  0  0999 V2000
    6.6975   12.9302   25.8156 C   0  0  0  0  0  0  0  0  0  0  0  0
    8.4557   12.4152   24.1994 C   0  0  0  0  0  0  0  0  0  0  0  0
    7.4739   11.9807   25.0830 C   0  0  0  0  0  0  0  0  0  0  0  0
    9.2063   11.4841   23.4903 C   0  0  0  0  0  0  0  0  0  0  0  0
    8.9384   10.1408   23.6989 C   0  0  0  0  0  0  0  0  0  0  0  0
    7.2834   10.6151   25.2201 C   0  0  0  0  0  0  0  0  0  0  0  0
   10.2346   11.9376   22.5663 C   0  0  0  0  0  0  0  0  0  0  0  0
   11.8776   14.5485   21.8689 C   0  0  0  0  0  0  0  0  0  0  0  0
   12.2620   13.1831   22.3977 C   0  0  0  0  0  0  0  0  0  0  0  0
    9.7118    9.0936   22.9658 C   0  0  0  0  0  0  0  0  0  0  0  0
    6.0668   13.7014   26.4107 N   0  0  0  0  0  0  0  0  0  0  0  0
    7.9929    9.6807   24.5485 N   0  0  0  0  0  0  0  0  0  0  0  0
   10.2449   11.6885   21.3538 O   0  0  0  0  0  0  0  0  0  0  0  0
    6.3270   10.1387   26.0798 O   0  0  0  0  0  0  0  0  0  0  0  0
   11.1925   12.6772   23.2040 O   0  0  0  0  0  0  0  0  0  0  0  0
   10.6540    9.6040   22.1202 F   0  0  0  0  0  0  0  0  0  0  0  0
   10.3920    8.2435   23.7888 F   0  0  0  0  0  0  0  0  0  0  0  0
    8.9151    8.3003   22.1937 F   0  0  0  0  0  0  0  0  0  0  0  0
    8.6381   13.4791   24.0615 H   0  0  0  0  0  0  0  0  0  0  0  0
   10.9751   14.4890   21.2542 H   0  0  0  0  0  0  0  0  0  0  0  0
   11.6980   15.2455   22.6941 H   0  0  0  0  0  0  0  0  0  0  0  0
   12.6883   14.9711   21.2662 H   0  0  0  0  0  0  0  0  0  0  0  0
   13.1652   13.2496   23.0116 H   0  0  0  0  0  0  0  0  0  0  0  0
   12.4402   12.4878   21.5720 H   0  0  0  0  0  0  0  0  0  0  0  0
    6.3220    9.1720   26.0584 H   0  0  0  0  0  0  0  0  0  0  0  0
  1  3  1  0  0  0  0
  1 11  3  0  0  0  0
  2  3  2  0  0  0  0
  2  4  1  0  0  0  0
  3  6  1  0  0  0  0
  4  5  2  0  0  0  0
  4  7  1  0  0  0  0
  5 10  1  0  0  0  0
  5 12  1  0  0  0  0
  6 12  2  0  0  0  0
  6 14  1  0  0  0  0
  7 13  2  0  0  0  0
  7 15  1  0  0  0  0
  8  9  1  0  0  0  0
  9 15  1  0  0  0  0
 10 16  1  0  0  0  0
 10 17  1  0  0  0  0
 10 18  1  0  0  0  0
  2 19  1  0  0  0  0
  8 20  1  0  0  0  0
  8 21  1  0  0  0  0
  8 22  1  0  0  0  0
  9 23  1  0  0  0  0
  9 24  1  0  0  0  0
 14 25  1  0  0  0  0
M  END
> <id>
EN300-7542705

> <smiles>
CCOC(=O)C=1C=C(C#N)C(O)=NC1C(F)(F)F

> <MDLNUMBER>
MFCD00178796

> <IUPAC Name>
ethyl 5-cyano-6-hydroxy-2-(trifluoromethyl)pyridine-3-carboxylate

> <CAS>
144456-86-0

> <Purity>
95

> <URL>
https://www.enaminestore.com/catalog/EN300-7542705

> <ROCS_ShapeQuery>
_x1140_x0812_0A_x1140_0A_x1097_0A_x0365_0A_x1097_0A_x0310_0A

> <ROCS_TanimotoCombo>
0.623 

> <ROCS_ShapeTanimoto>
0.294 

> <ROCS_ColorTanimoto>
0.328 

> <ROCS_RefTversky>
0.256 

> <ROCS_RefColorTversky>
0.438 

> <ROCS_RefTverskyCombo>
0.695 

> <ROCS_FitTversky>
2.006 

> <ROCS_FitColorTversky>
0.567 

> <ROCS_FitTverskyCombo>
2.573 

> <ROCS_ColorScore>
-3.462

> <ROCS_Overlap>
2631.986

> <ROCS_Rank>
181                 

$$$$
untitled-dbase-135253_2
  -OEChem-02092423213D

 25 25  0     0  0  0  0  0  0999 V2000
    8.1178   11.8548   25.6966 C   0  0  0  0  0  0  0  0  0  0  0  0
    7.6573   10.6004   25.3555 C   0  0  0  0  0  0  0  0  0  0  0  0
    9.1218   10.8634   23.7442 C   0  0  0  0  0  0  0  0  0  0  0  0
    9.9179   10.5691   22.5533 C   0  0  0  0  0  0  0  0  0  0  0  0
    6.6204    9.8366   26.0768 C   0  0  0  0  0  0  0  0  0  0  0  0
   10.8383    8.5195   23.8411 C   0  0  0  0  0  0  0  0  0  0  0  0
   10.4801    8.4366   21.3502 C   0  0  0  0  0  0  0  0  0  0  0  0
   12.2972    9.8450   22.3323 C   0  0  0  0  0  0  0  0  0  0  0  0
   10.8551    9.3334   22.5377 C   0  0  0  0  0  0  0  0  0  0  0  0
    8.2316   10.0305   24.2360 N   0  0  0  0  0  0  0  0  0  0  0  0
    9.8519   11.2985   21.5608 O   0  0  0  0  0  0  0  0  0  0  0  0
    9.3201   12.3500   24.5782 S   0  0  0  0  0  0  0  0  0  0  0  0
    7.8195   12.4853   26.5221 H   0  0  0  0  0  0  0  0  0  0  0  0
    5.6160   10.0579   25.6802 H   0  0  0  0  0  0  0  0  0  0  0  0
    6.7792    8.7475   25.9985 H   0  0  0  0  0  0  0  0  0  0  0  0
    6.6129   10.0666   27.1560 H   0  0  0  0  0  0  0  0  0  0  0  0
   11.5088    7.6559   23.7981 H   0  0  0  0  0  0  0  0  0  0  0  0
   11.1672    9.1291   24.6909 H   0  0  0  0  0  0  0  0  0  0  0  0
    9.8312    8.1511   24.0673 H   0  0  0  0  0  0  0  0  0  0  0  0
   11.1161    7.5480   21.2967 H   0  0  0  0  0  0  0  0  0  0  0  0
   10.5833    8.9734   20.4004 H   0  0  0  0  0  0  0  0  0  0  0  0
    9.4438    8.0878   21.4275 H   0  0  0  0  0  0  0  0  0  0  0  0
   13.0097    9.0119   22.3124 H   0  0  0  0  0  0  0  0  0  0  0  0
   12.3956   10.3961   21.3900 H   0  0  0  0  0  0  0  0  0  0  0  0
   12.6057   10.5199   23.1391 H   0  0  0  0  0  0  0  0  0  0  0  0
  1  2  2  0  0  0  0
  1 12  1  0  0  0  0
  2  5  1  0  0  0  0
  2 10  1  0  0  0  0
  3  4  1  0  0  0  0
  3 10  2  0  0  0  0
  3 12  1  0  0  0  0
  4  9  1  0  0  0  0
  4 11  2  0  0  0  0
  6  9  1  0  0  0  0
  7  9  1  0  0  0  0
  8  9  1  0  0  0  0
  1 13  1  0  0  0  0
  5 14  1  0  0  0  0
  5 15  1  0  0  0  0
  5 16  1  0  0  0  0
  6 17  1  0  0  0  0
  6 18  1  0  0  0  0
  6 19  1  0  0  0  0
  7 20  1  0  0  0  0
  7 21  1  0  0  0  0
  7 22  1  0  0  0  0
  8 23  1  0  0  0  0
  8 24  1  0  0  0  0
  8 25  1  0  0  0  0
M  END
> <id>
EN300-1268916

> <smiles>
CC1=CSC(=N1)C(=O)C(C)(C)C

> <IUPAC Name>
2,2-dimethyl-1-(4-methyl-1,3-thiazol-2-yl)propan-1-one

> <CAS>
1523746-44-2

> <URL>
https://www.enaminestore.com/catalog/EN300-1268916

> <ROCS_ShapeQuery>
_x1140_x0812_0A_x1140_0A_x1097_0A_x0365_0A_x1097_0A_x0310_0A

> <ROCS_TanimotoCombo>
0.623 

> <ROCS_ShapeTanimoto>
0.183 

> <ROCS_ColorTanimoto>
0.440 

> <ROCS_RefTversky>
0.170 

> <ROCS_RefColorTversky>
0.470 

> <ROCS_RefTverskyCombo>
0.640 

> <ROCS_FitTversky>
1.723 

> <ROCS_FitColorTversky>
0.872 

> <ROCS_FitTverskyCombo>
2.595 

> <ROCS_ColorScore>
-3.664

> <ROCS_Overlap>
1741.154

> <ROCS_Rank>
182                 

$$$$
untitled-dbase-135782_6
  -OEChem-02092423213D

 25 25  0     0  0  0  0  0  0999 V2000
    7.5307   10.7078   25.3558 C   0  0  0  0  0  0  0  0  0  0  0  0
    7.9870   11.9767   25.6453 C   0  0  0  0  0  0  0  0  0  0  0  0
    9.0818   10.8604   23.8128 C   0  0  0  0  0  0  0  0  0  0  0  0
    9.9491   10.4819   22.6678 C   0  0  0  0  0  0  0  0  0  0  0  0
    6.4483    9.9918   26.0613 C   0  0  0  0  0  0  0  0  0  0  0  0
    7.5505   12.9307   26.6842 C   0  0  0  0  0  0  0  0  0  0  0  0
   12.3121    9.6845   22.5915 C   0  0  0  0  0  0  0  0  0  0  0  0
   10.4620    8.2300   21.7183 C   0  0  0  0  0  0  0  0  0  0  0  0
   10.8573    9.2594   22.7703 C   0  0  0  0  0  0  0  0  0  0  0  0
    8.1571   10.0663   24.3051 N   0  0  0  0  0  0  0  0  0  0  0  0
    9.9023   11.1687   21.6481 O   0  0  0  0  0  0  0  0  0  0  0  0
   10.7764    8.6632   23.9960 F   0  0  0  0  0  0  0  0  0  0  0  0
    9.2528   12.3930   24.5656 S   0  0  0  0  0  0  0  0  0  0  0  0
    5.4700   10.1962   25.5972 H   0  0  0  0  0  0  0  0  0  0  0  0
    6.6024    8.8997   26.0534 H   0  0  0  0  0  0  0  0  0  0  0  0
    6.3841   10.2837   27.1231 H   0  0  0  0  0  0  0  0  0  0  0  0
    8.1213   12.7907   27.6165 H   0  0  0  0  0  0  0  0  0  0  0  0
    7.6817   13.9785   26.3646 H   0  0  0  0  0  0  0  0  0  0  0  0
    6.4800   12.8173   26.9259 H   0  0  0  0  0  0  0  0  0  0  0  0
   13.0004    8.8355   22.6581 H   0  0  0  0  0  0  0  0  0  0  0  0
   12.4542   10.1597   21.6146 H   0  0  0  0  0  0  0  0  0  0  0  0
   12.5947   10.4224   23.3499 H   0  0  0  0  0  0  0  0  0  0  0  0
   11.1061    7.3466   21.7804 H   0  0  0  0  0  0  0  0  0  0  0  0
   10.5280    8.6408   20.7051 H   0  0  0  0  0  0  0  0  0  0  0  0
    9.4342    7.8859   21.8722 H   0  0  0  0  0  0  0  0  0  0  0  0
  1  2  2  0  0  0  0
  1  5  1  0  0  0  0
  1 10  1  0  0  0  0
  2  6  1  0  0  0  0
  2 13  1  0  0  0  0
  3  4  1  0  0  0  0
  3 10  2  0  0  0  0
  3 13  1  0  0  0  0
  4  9  1  0  0  0  0
  4 11  2  0  0  0  0
  7  9  1  0  0  0  0
  8  9  1  0  0  0  0
  9 12  1  0  0  0  0
  5 14  1  0  0  0  0
  5 15  1  0  0  0  0
  5 16  1  0  0  0  0
  6 17  1  0  0  0  0
  6 18  1  0  0  0  0
  6 19  1  0  0  0  0
  7 20  1  0  0  0  0
  7 21  1  0  0  0  0
  7 22  1  0  0  0  0
  8 23  1  0  0  0  0
  8 24  1  0  0  0  0
  8 25  1  0  0  0  0
M  END
> <id>
EN300-1269028

> <smiles>
CC=1N=C(SC1C)C(=O)C(C)(C)F

> <IUPAC Name>
1-(dimethyl-1,3-thiazol-2-yl)-2-fluoro-2-methylpropan-1-one

> <CAS>
2171831-46-0

> <URL>
https://www.enaminestore.com/catalog/EN300-1269028

> <ROCS_ShapeQuery>
_x1140_x0812_0A_x1140_0A_x1097_0A_x0365_0A_x1097_0A_x0310_0A

> <ROCS_TanimotoCombo>
0.622 

> <ROCS_ShapeTanimoto>
0.199 

> <ROCS_ColorTanimoto>
0.423 

> <ROCS_RefTversky>
0.183 

> <ROCS_RefColorTversky>
0.457 

> <ROCS_RefTverskyCombo>
0.641 

> <ROCS_FitTversky>
1.778 

> <ROCS_FitColorTversky>
0.849 

> <ROCS_FitTverskyCombo>
2.627 

> <ROCS_ColorScore>
-3.567

> <ROCS_Overlap>
1880.037

> <ROCS_Rank>
183                 

$$$$
untitled-dbase-149813_3
  -OEChem-02092423213D

 26 26  0     0  0  0  0  0  0999 V2000
    9.1789   12.0737   24.5678 C   0  0  0  0  0  0  0  0  0  0  0  0
    8.2252   11.8416   25.5875 C   0  0  0  0  0  0  0  0  0  0  0  0
    9.1631   10.9547   23.7682 C   0  0  0  0  0  0  0  0  0  0  0  0
    7.6944   10.5974   25.3381 C   0  0  0  0  0  0  0  0  0  0  0  0
    9.9240   10.6098   22.5679 C   0  0  0  0  0  0  0  0  0  0  0  0
    6.6742    9.7854   26.0163 C   0  0  0  0  0  0  0  0  0  0  0  0
   10.8256    8.5732   23.8892 C   0  0  0  0  0  0  0  0  0  0  0  0
   10.4073    8.4332   21.4102 C   0  0  0  0  0  0  0  0  0  0  0  0
   12.2797    9.8226   22.3123 C   0  0  0  0  0  0  0  0  0  0  0  0
   10.8311    9.3517   22.5642 C   0  0  0  0  0  0  0  0  0  0  0  0
    9.8521   11.3140   21.5577 O   0  0  0  0  0  0  0  0  0  0  0  0
    8.2608   10.0501   24.2308 O   0  0  0  0  0  0  0  0  0  0  0  0
    9.7992   12.9487   24.4353 H   0  0  0  0  0  0  0  0  0  0  0  0
    7.9604   12.5007   26.4020 H   0  0  0  0  0  0  0  0  0  0  0  0
    5.6646    9.9908   25.6180 H   0  0  0  0  0  0  0  0  0  0  0  0
    6.8583    8.7007   25.9050 H   0  0  0  0  0  0  0  0  0  0  0  0
    6.6436    9.9734   27.1057 H   0  0  0  0  0  0  0  0  0  0  0  0
   11.4743    7.6927   23.8542 H   0  0  0  0  0  0  0  0  0  0  0  0
   11.1886    9.1969   24.7145 H   0  0  0  0  0  0  0  0  0  0  0  0
    9.8156    8.2355   24.1481 H   0  0  0  0  0  0  0  0  0  0  0  0
   11.0207    7.5283   21.3662 H   0  0  0  0  0  0  0  0  0  0  0  0
   10.5008    8.9421   20.4441 H   0  0  0  0  0  0  0  0  0  0  0  0
    9.3651    8.1119   21.5204 H   0  0  0  0  0  0  0  0  0  0  0  0
   12.9716    8.9722   22.2986 H   0  0  0  0  0  0  0  0  0  0  0  0
   12.3690   10.3460   21.3535 H   0  0  0  0  0  0  0  0  0  0  0  0
   12.6228   10.5109   23.0934 H   0  0  0  0  0  0  0  0  0  0  0  0
  1  2  1  0  0  0  0
  1  3  2  0  0  0  0
  2  4  2  0  0  0  0
  3  5  1  0  0  0  0
  3 12  1  0  0  0  0
  4  6  1  0  0  0  0
  4 12  1  0  0  0  0
  5 10  1  0  0  0  0
  5 11  2  0  0  0  0
  7 10  1  0  0  0  0
  8 10  1  0  0  0  0
  9 10  1  0  0  0  0
  1 13  1  0  0  0  0
  2 14  1  0  0  0  0
  6 15  1  0  0  0  0
  6 16  1  0  0  0  0
  6 17  1  0  0  0  0
  7 18  1  0  0  0  0
  7 19  1  0  0  0  0
  7 20  1  0  0  0  0
  8 21  1  0  0  0  0
  8 22  1  0  0  0  0
  8 23  1  0  0  0  0
  9 24  1  0  0  0  0
  9 25  1  0  0  0  0
  9 26  1  0  0  0  0
M  END
> <id>
EN300-108619

> <smiles>
CC1=CC=C(O1)C(=O)C(C)(C)C

> <MDLNUMBER>
MFCD16087025

> <IUPAC Name>
2,2-dimethyl-1-(5-methylfuran-2-yl)propan-1-one

> <CAS>
117347-72-5

> <Purity>
95

> <URL>
https://www.enaminestore.com/catalog/EN300-108619

> <ROCS_ShapeQuery>
_x1140_x0812_0A_x1140_0A_x1097_0A_x0365_0A_x1097_0A_x0310_0A

> <ROCS_TanimotoCombo>
0.622 

> <ROCS_ShapeTanimoto>
0.188 

> <ROCS_ColorTanimoto>
0.435 

> <ROCS_RefTversky>
0.174 

> <ROCS_RefColorTversky>
0.466 

> <ROCS_RefTverskyCombo>
0.640 

> <ROCS_FitTversky>
1.728 

> <ROCS_FitColorTversky>
0.866 

> <ROCS_FitTverskyCombo>
2.594 

> <ROCS_ColorScore>
-3.637

> <ROCS_Overlap>
1780.752

> <ROCS_Rank>
184                 

$$$$
untitled-dbase-514165_2
  -OEChem-02092423213D

 22 22  0     0  0  0  0  0  0999 V2000
    9.0348   10.9979   23.7712 C   0  0  0  0  0  0  0  0  0  0  0  0
    9.1327   12.1769   24.4800 C   0  0  0  0  0  0  0  0  0  0  0  0
    7.4387   10.6381   25.2317 C   0  0  0  0  0  0  0  0  0  0  0  0
    9.8655   10.6597   22.6487 C   0  0  0  0  0  0  0  0  0  0  0  0
   10.0421   13.3271   24.3000 C   0  0  0  0  0  0  0  0  0  0  0  0
    5.8836    8.7165   25.5707 C   0  0  0  0  0  0  0  0  0  0  0  0
   11.4609    9.0715   21.8166 C   0  0  0  0  0  0  0  0  0  0  0  0
    8.0643   10.1141   24.2011 N   0  0  0  0  0  0  0  0  0  0  0  0
    6.4230   10.0306   25.9009 N   0  0  0  0  0  0  0  0  0  0  0  0
    9.9401   11.3137   21.5882 O   0  0  0  0  0  0  0  0  0  0  0  0
   10.5917    9.5126   22.8651 O   0  0  0  0  0  0  0  0  0  0  0  0
    7.9658   12.1912   25.7367 S   0  0  0  0  0  0  0  0  0  0  0  0
    9.6061   14.0736   23.6168 H   0  0  0  0  0  0  0  0  0  0  0  0
   10.2614   13.8331   25.2551 H   0  0  0  0  0  0  0  0  0  0  0  0
   11.0173   13.0209   23.8854 H   0  0  0  0  0  0  0  0  0  0  0  0
    6.4253    8.3038   24.7068 H   0  0  0  0  0  0  0  0  0  0  0  0
    6.0025    8.0442   26.4332 H   0  0  0  0  0  0  0  0  0  0  0  0
    4.8159    8.8101   25.3232 H   0  0  0  0  0  0  0  0  0  0  0  0
   11.9700    8.1553   22.1255 H   0  0  0  0  0  0  0  0  0  0  0  0
   12.1938    9.8520   21.5971 H   0  0  0  0  0  0  0  0  0  0  0  0
   10.8660    8.8713   20.9223 H   0  0  0  0  0  0  0  0  0  0  0  0
    5.9861   10.5083   26.6976 H   0  0  0  0  0  0  0  0  0  0  0  0
  1  2  2  0  0  0  0
  1  4  1  0  0  0  0
  1  8  1  0  0  0  0
  2  5  1  0  0  0  0
  2 12  1  0  0  0  0
  3  8  2  0  0  0  0
  3  9  1  0  0  0  0
  3 12  1  0  0  0  0
  4 10  2  0  0  0  0
  4 11  1  0  0  0  0
  6  9  1  0  0  0  0
  7 11  1  0  0  0  0
  5 13  1  0  0  0  0
  5 14  1  0  0  0  0
  5 15  1  0  0  0  0
  6 16  1  0  0  0  0
  6 17  1  0  0  0  0
  6 18  1  0  0  0  0
  7 19  1  0  0  0  0
  7 20  1  0  0  0  0
  7 21  1  0  0  0  0
  9 22  1  0  0  0  0
M  END
> <id>
EN300-7887100

> <smiles>
CNC1=NC(C(=O)OC)=C(C)S1

> <MDLNUMBER>
MFCD23652796

> <IUPAC Name>
methyl 5-methyl-2-(methylamino)-1,3-thiazole-4-carboxylate

> <CAS>
1552600-99-3

> <URL>
https://www.enaminestore.com/catalog/EN300-7887100

> <ROCS_ShapeQuery>
_x1140_x0812_0A_x1140_0A_x1097_0A_x0365_0A_x1097_0A_x0310_0A

> <ROCS_TanimotoCombo>
0.622 

> <ROCS_ShapeTanimoto>
0.201 

> <ROCS_ColorTanimoto>
0.421 

> <ROCS_RefTversky>
0.184 

> <ROCS_RefColorTversky>
0.456 

> <ROCS_RefTverskyCombo>
0.640 

> <ROCS_FitTversky>
1.853 

> <ROCS_FitColorTversky>
0.847 

> <ROCS_FitTverskyCombo>
2.699 

> <ROCS_ColorScore>
-3.555

> <ROCS_Overlap>
1887.756

> <ROCS_Rank>
185                 

$$$$
untitled-dbase-370551_2
  -OEChem-02092423213D

 30 31  0     1  0  0  0  0  0999 V2000
    5.9309   12.2649   27.0650 C   0  0  0  0  0  0  0  0  0  0  0  0
    5.6920   10.8943   26.9952 C   0  0  0  0  0  0  0  0  0  0  0  0
    6.9314   12.8396   26.2807 C   0  0  0  0  0  0  0  0  0  0  0  0
    6.4583   10.0962   26.1470 C   0  0  0  0  0  0  0  0  0  0  0  0
    7.6996   12.0477   25.4166 C   0  0  0  0  0  0  0  0  0  0  0  0
    7.4692   10.6683   25.3703 C   0  0  0  0  0  0  0  0  0  0  0  0
   10.6752   12.0942   21.4646 C   0  0  0  0  0  0  0  0  0  0  0  0
    8.7746   12.6788   24.5789 C   0  0  0  0  0  0  0  0  0  0  0  0
    9.1983   11.7397   23.4451 C   0  0  2  0  0  0  0  0  0  0  0  0
    9.4005   10.3296   24.0260 C   0  0  2  0  0  0  0  0  0  0  0  0
   11.9625   12.7469   21.0298 C   0  0  0  0  0  0  0  0  0  0  0  0
    9.8626    9.3137   22.9823 C   0  0  0  0  0  0  0  0  0  0  0  0
   10.4028   12.2714   22.8124 N   0  0  0  0  0  0  0  0  0  0  0  0
    9.9557   11.4877   20.6729 O   0  0  0  0  0  0  0  0  0  0  0  0
    8.1671    9.8125   24.5602 O   0  0  0  0  0  0  0  0  0  0  0  0
    9.9536    8.0948   23.5356 F   0  0  0  0  0  0  0  0  0  0  0  0
    8.9862    9.2659   21.9675 F   0  0  0  0  0  0  0  0  0  0  0  0
   11.0654    9.6633   22.5014 F   0  0  0  0  0  0  0  0  0  0  0  0
   11.5735   13.9379   19.7788 Cl  0  0  0  0  0  0  0  0  0  0  0  0
    5.3371   12.8869   27.7285 H   0  0  0  0  0  0  0  0  0  0  0  0
    4.9105   10.4473   27.6025 H   0  0  0  0  0  0  0  0  0  0  0  0
    7.1060   13.9108   26.3431 H   0  0  0  0  0  0  0  0  0  0  0  0
    6.2665    9.0274   26.1004 H   0  0  0  0  0  0  0  0  0  0  0  0
    8.4156   13.6243   24.1542 H   0  0  0  0  0  0  0  0  0  0  0  0
    9.6289   12.9016   25.2311 H   0  0  0  0  0  0  0  0  0  0  0  0
    8.4227   11.7219   22.6811 H   0  0  0  0  0  0  0  0  0  0  0  0
   10.1381   10.3457   24.8430 H   0  0  0  0  0  0  0  0  0  0  0  0
   12.4736   13.2556   21.8508 H   0  0  0  0  0  0  0  0  0  0  0  0
   12.6295   11.9898   20.6084 H   0  0  0  0  0  0  0  0  0  0  0  0
   11.0663   12.7909   23.3818 H   0  0  0  0  0  0  0  0  0  0  0  0
  1  2  1  0  0  0  0
  1  3  2  0  0  0  0
  2  4  2  0  0  0  0
  3  5  1  0  0  0  0
  4  6  1  0  0  0  0
  5  6  2  0  0  0  0
  5  8  1  0  0  0  0
  6 15  1  0  0  0  0
  7 11  1  0  0  0  0
  7 13  1  0  0  0  0
  7 14  2  0  0  0  0
  8  9  1  0  0  0  0
  9 10  1  0  0  0  0
  9 13  1  1  0  0  0
 10 12  1  6  0  0  0
 10 15  1  0  0  0  0
 11 19  1  0  0  0  0
 12 16  1  0  0  0  0
 12 17  1  0  0  0  0
 12 18  1  0  0  0  0
  1 20  1  0  0  0  0
  2 21  1  0  0  0  0
  3 22  1  0  0  0  0
  4 23  1  0  0  0  0
  8 24  1  0  0  0  0
  8 25  1  0  0  0  0
  9 26  1  0  0  0  0
 10 27  1  0  0  0  0
 11 28  1  0  0  0  0
 11 29  1  0  0  0  0
 13 30  1  0  0  0  0
M  END
> <id>
EN300-26605396

> <smiles>
FC(F)(F)[C@@H]1OC=2C=CC=CC2C[C@H]1NC(=O)CCl |&1:4,13,r|

> <IUPAC Name>
rac-2-chloro-N-[(2R,3R)-2-(trifluoromethyl)-3,4-dihydro-2H-1-benzopyran-3-yl]acetamide

> <CAS>
2411180-04-4

> <URL>
https://www.enaminestore.com/catalog/EN300-26605396

> <ROCS_ShapeQuery>
_x1140_x0812_0A_x1140_0A_x1097_0A_x0365_0A_x1097_0A_x0310_0A

> <ROCS_TanimotoCombo>
0.622 

> <ROCS_ShapeTanimoto>
0.286 

> <ROCS_ColorTanimoto>
0.336 

> <ROCS_RefTversky>
0.252 

> <ROCS_RefColorTversky>
0.417 

> <ROCS_RefTverskyCombo>
0.668 

> <ROCS_FitTversky>
1.918 

> <ROCS_FitColorTversky>
0.635 

> <ROCS_FitTverskyCombo>
2.553 

> <ROCS_ColorScore>
-3.273

> <ROCS_Overlap>
2582.018

> <ROCS_Rank>
186                 

$$$$
untitled-dbase-565228_0
  -OEChem-02092423213D

 36 37  0     0  0  0  0  0  0999 V2000
    5.7097   10.7236   26.6225 C   0  0  0  0  0  0  0  0  0  0  0  0
    6.6372    9.9304   25.9424 C   0  0  0  0  0  0  0  0  0  0  0  0
    6.6724   12.6873   25.6255 C   0  0  0  0  0  0  0  0  0  0  0  0
    8.5675   12.4504   24.0913 C   0  0  0  0  0  0  0  0  0  0  0  0
    7.6051   11.8893   24.9416 C   0  0  0  0  0  0  0  0  0  0  0  0
    5.7270   12.1038   26.4641 C   0  0  0  0  0  0  0  0  0  0  0  0
    7.5933   10.4873   25.0975 C   0  0  0  0  0  0  0  0  0  0  0  0
    9.4748   11.6352   23.4300 C   0  0  0  0  0  0  0  0  0  0  0  0
    9.3854   10.2749   23.6454 C   0  0  0  0  0  0  0  0  0  0  0  0
    4.7395   12.9542   27.1876 C   0  0  0  0  0  0  0  0  0  0  0  0
   11.8078    9.6484   23.3538 C   0  0  0  0  0  0  0  0  0  0  0  0
   10.2150    9.4478   21.4151 C   0  0  0  0  0  0  0  0  0  0  0  0
   10.1208    7.8230   23.2946 C   0  0  0  0  0  0  0  0  0  0  0  0
   10.3301    9.3373   22.9661 C   0  0  0  0  0  0  0  0  0  0  0  0
    8.4725    9.6937   24.4571 N   0  0  0  0  0  0  0  0  0  0  0  0
   10.7169   13.5445   22.5733 N   0  0  0  0  0  0  0  0  0  0  0  0
   10.4412   12.1945   22.5766 N   0  0  0  0  0  0  0  0  0  0  0  0
    4.9788   10.2508   27.2732 H   0  0  0  0  0  0  0  0  0  0  0  0
    6.6028    8.8516   26.0835 H   0  0  0  0  0  0  0  0  0  0  0  0
    6.6847   13.7687   25.5025 H   0  0  0  0  0  0  0  0  0  0  0  0
    8.6063   13.5287   23.9469 H   0  0  0  0  0  0  0  0  0  0  0  0
    5.1371   13.2552   28.1649 H   0  0  0  0  0  0  0  0  0  0  0  0
    4.4989   13.8605   26.6164 H   0  0  0  0  0  0  0  0  0  0  0  0
    3.7936   12.4197   27.3471 H   0  0  0  0  0  0  0  0  0  0  0  0
   12.5225    8.9737   22.8681 H   0  0  0  0  0  0  0  0  0  0  0  0
   12.0907   10.6692   23.0740 H   0  0  0  0  0  0  0  0  0  0  0  0
   11.9443    9.5548   24.4377 H   0  0  0  0  0  0  0  0  0  0  0  0
   10.9052    8.7627   20.9108 H   0  0  0  0  0  0  0  0  0  0  0  0
    9.2082    9.2148   21.0490 H   0  0  0  0  0  0  0  0  0  0  0  0
   10.4622   10.4644   21.0870 H   0  0  0  0  0  0  0  0  0  0  0  0
   10.8368    7.1764   22.7731 H   0  0  0  0  0  0  0  0  0  0  0  0
   10.2410    7.6356   24.3680 H   0  0  0  0  0  0  0  0  0  0  0  0
    9.1171    7.4945   23.0006 H   0  0  0  0  0  0  0  0  0  0  0  0
   10.7947   13.8550   21.6060 H   0  0  0  0  0  0  0  0  0  0  0  0
   11.6360   13.6886   22.9895 H   0  0  0  0  0  0  0  0  0  0  0  0
   11.0877   11.5708   22.1098 H   0  0  0  0  0  0  0  0  0  0  0  0
  1  2  2  0  0  0  0
  1  6  1  0  0  0  0
  2  7  1  0  0  0  0
  3  5  1  0  0  0  0
  3  6  2  0  0  0  0
  4  5  1  0  0  0  0
  4  8  2  0  0  0  0
  5  7  2  0  0  0  0
  6 10  1  0  0  0  0
  7 15  1  0  0  0  0
  8  9  1  0  0  0  0
  8 17  1  0  0  0  0
  9 14  1  0  0  0  0
  9 15  2  0  0  0  0
 11 14  1  0  0  0  0
 12 14  1  0  0  0  0
 13 14  1  0  0  0  0
 16 17  1  0  0  0  0
  1 18  1  0  0  0  0
  2 19  1  0  0  0  0
  3 20  1  0  0  0  0
  4 21  1  0  0  0  0
 10 22  1  0  0  0  0
 10 23  1  0  0  0  0
 10 24  1  0  0  0  0
 11 25  1  0  0  0  0
 11 26  1  0  0  0  0
 11 27  1  0  0  0  0
 12 28  1  0  0  0  0
 12 29  1  0  0  0  0
 12 30  1  0  0  0  0
 13 31  1  0  0  0  0
 13 32  1  0  0  0  0
 13 33  1  0  0  0  0
 16 34  1  0  0  0  0
 16 35  1  0  0  0  0
 17 36  1  0  0  0  0
M  END
> <id>
EN300-801698

> <smiles>
CC=1C=CC=2N=C(C(NN)=CC2C1)C(C)(C)C

> <IUPAC Name>
2-tert-butyl-3-hydrazinyl-6-methylquinoline

> <CAS>
2138003-33-3

> <URL>
https://www.enaminestore.com/catalog/EN300-801698

> <ROCS_ShapeQuery>
_x1140_x0812_0A_x1140_0A_x1097_0A_x0365_0A_x1097_0A_x0310_0A

> <ROCS_TanimotoCombo>
0.622 

> <ROCS_ShapeTanimoto>
0.286 

> <ROCS_ColorTanimoto>
0.336 

> <ROCS_RefTversky>
0.250 

> <ROCS_RefColorTversky>
0.455 

> <ROCS_RefTverskyCombo>
0.705 

> <ROCS_FitTversky>
2.031 

> <ROCS_FitColorTversky>
0.564 

> <ROCS_FitTverskyCombo>
2.595 

> <ROCS_ColorScore>
-3.602

> <ROCS_Overlap>
2559.671

> <ROCS_Rank>
187                 

$$$$
untitled-dbase-132961_6
  -OEChem-02092423213D

 26 26  0     0  0  0  0  0  0999 V2000
    7.9734   12.1187   25.3626 C   0  0  0  0  0  0  0  0  0  0  0  0
    7.6815   10.7644   25.3864 C   0  0  0  0  0  0  0  0  0  0  0  0
    8.8243   12.5836   24.3660 C   0  0  0  0  0  0  0  0  0  0  0  0
    9.3498   11.6926   23.4368 C   0  0  0  0  0  0  0  0  0  0  0  0
    8.9964   10.3574   23.5470 C   0  0  0  0  0  0  0  0  0  0  0  0
    9.1562   14.0390   24.3179 C   0  0  0  0  0  0  0  0  0  0  0  0
   11.3502    8.2632   23.6091 C   0  0  0  0  0  0  0  0  0  0  0  0
   11.3195    8.9367   21.1807 C   0  0  0  0  0  0  0  0  0  0  0  0
   10.9080    9.3090   22.5970 C   0  0  0  0  0  0  0  0  0  0  0  0
    8.1728    9.8686   24.5011 N   0  0  0  0  0  0  0  0  0  0  0  0
   10.2130   12.1333   22.4155 N   0  0  0  0  0  0  0  0  0  0  0  0
    9.4914    9.4460   22.6531 O   0  0  0  0  0  0  0  0  0  0  0  0
    7.5470   12.7870   26.1026 H   0  0  0  0  0  0  0  0  0  0  0  0
    7.0234   10.3513   26.1437 H   0  0  0  0  0  0  0  0  0  0  0  0
   10.0491   14.2450   24.9194 H   0  0  0  0  0  0  0  0  0  0  0  0
    9.3442   14.3688   23.2887 H   0  0  0  0  0  0  0  0  0  0  0  0
    8.3279   14.6472   24.7019 H   0  0  0  0  0  0  0  0  0  0  0  0
   10.9320    7.2800   23.3728 H   0  0  0  0  0  0  0  0  0  0  0  0
   12.4426    8.1847   23.6233 H   0  0  0  0  0  0  0  0  0  0  0  0
   11.0420    8.5406   24.6233 H   0  0  0  0  0  0  0  0  0  0  0  0
   10.9006    7.9696   20.8865 H   0  0  0  0  0  0  0  0  0  0  0  0
   12.4107    8.8840   21.1023 H   0  0  0  0  0  0  0  0  0  0  0  0
   10.9889    9.6948   20.4621 H   0  0  0  0  0  0  0  0  0  0  0  0
   11.3419   10.2791   22.8606 H   0  0  0  0  0  0  0  0  0  0  0  0
   10.4134   13.1105   22.3306 H   0  0  0  0  0  0  0  0  0  0  0  0
   10.5387   11.4778   21.7324 H   0  0  0  0  0  0  0  0  0  0  0  0
  1  2  1  0  0  0  0
  1  3  2  0  0  0  0
  2 10  2  0  0  0  0
  3  4  1  0  0  0  0
  3  6  1  0  0  0  0
  4  5  2  0  0  0  0
  4 11  1  0  0  0  0
  5 10  1  0  0  0  0
  5 12  1  0  0  0  0
  7  9  1  0  0  0  0
  8  9  1  0  0  0  0
  9 12  1  0  0  0  0
  1 13  1  0  0  0  0
  2 14  1  0  0  0  0
  6 15  1  0  0  0  0
  6 16  1  0  0  0  0
  6 17  1  0  0  0  0
  7 18  1  0  0  0  0
  7 19  1  0  0  0  0
  7 20  1  0  0  0  0
  8 21  1  0  0  0  0
  8 22  1  0  0  0  0
  8 23  1  0  0  0  0
  9 24  1  0  0  0  0
 11 25  1  0  0  0  0
 11 26  1  0  0  0  0
M  END
> <id>
EN300-1295014

> <smiles>
CC(C)OC=1N=CC=C(C)C1N

> <MDLNUMBER>
MFCD19679992

> <IUPAC Name>
4-methyl-2-(propan-2-yloxy)pyridin-3-amine

> <CAS>
1343976-46-4

> <URL>
https://www.enaminestore.com/catalog/EN300-1295014

> <ROCS_ShapeQuery>
_x1140_x0812_0A_x1140_0A_x1097_0A_x0365_0A_x1097_0A_x0310_0A

> <ROCS_TanimotoCombo>
0.622 

> <ROCS_ShapeTanimoto>
0.209 

> <ROCS_ColorTanimoto>
0.413 

> <ROCS_RefTversky>
0.190 

> <ROCS_RefColorTversky>
0.518 

> <ROCS_RefTverskyCombo>
0.709 

> <ROCS_FitTversky>
1.892 

> <ROCS_FitColorTversky>
0.670 

> <ROCS_FitTverskyCombo>
2.562 

> <ROCS_ColorScore>
-4.095

> <ROCS_Overlap>
1950.418

> <ROCS_Rank>
188                 

$$$$
untitled-dbase-494123_9
  -OEChem-02092423213D

 34 34  0     0  0  0  0  0  0999 V2000
    8.7901   11.0044   23.6610 C   0  0  0  0  0  0  0  0  0  0  0  0
    8.9191   12.2129   24.3129 C   0  0  0  0  0  0  0  0  0  0  0  0
    7.3361   10.6689   25.2682 C   0  0  0  0  0  0  0  0  0  0  0  0
    9.5535   10.6274   22.4446 C   0  0  0  0  0  0  0  0  0  0  0  0
   10.7966   13.6808   25.1337 C   0  0  0  0  0  0  0  0  0  0  0  0
    8.9749   14.6545   23.6886 C   0  0  0  0  0  0  0  0  0  0  0  0
   11.9521    9.8818   23.1487 C   0  0  0  0  0  0  0  0  0  0  0  0
   11.1723    7.4950   23.0845 C   0  0  0  0  0  0  0  0  0  0  0  0
   11.5729    8.7380   20.9391 C   0  0  0  0  0  0  0  0  0  0  0  0
    9.7801   13.3746   24.0101 C   0  0  0  0  0  0  0  0  0  0  0  0
   11.1121    8.8544   22.3913 C   0  0  0  0  0  0  0  0  0  0  0  0
    7.8832   10.1176   24.2076 N   0  0  0  0  0  0  0  0  0  0  0  0
    6.3979   10.0668   26.0465 N   0  0  0  0  0  0  0  0  0  0  0  0
    9.9375   11.4387   21.6165 O   0  0  0  0  0  0  0  0  0  0  0  0
    9.7500    9.2835   22.4031 O   0  0  0  0  0  0  0  0  0  0  0  0
    7.8654   12.2523   25.6654 S   0  0  0  0  0  0  0  0  0  0  0  0
   10.2916   13.8910   26.0829 H   0  0  0  0  0  0  0  0  0  0  0  0
   11.4246   14.5455   24.8930 H   0  0  0  0  0  0  0  0  0  0  0  0
   11.4567   12.8203   25.2903 H   0  0  0  0  0  0  0  0  0  0  0  0
    8.3361   14.9219   24.5379 H   0  0  0  0  0  0  0  0  0  0  0  0
    8.3303   14.5231   22.8127 H   0  0  0  0  0  0  0  0  0  0  0  0
    9.6375   15.5037   23.4888 H   0  0  0  0  0  0  0  0  0  0  0  0
   11.9115   10.8590   22.6543 H   0  0  0  0  0  0  0  0  0  0  0  0
   11.6094   10.0003   24.1818 H   0  0  0  0  0  0  0  0  0  0  0  0
   13.0078    9.5877   23.1659 H   0  0  0  0  0  0  0  0  0  0  0  0
   10.5710    6.7547   22.5444 H   0  0  0  0  0  0  0  0  0  0  0  0
   10.7541    7.5537   24.0959 H   0  0  0  0  0  0  0  0  0  0  0  0
   12.1993    7.1225   23.1550 H   0  0  0  0  0  0  0  0  0  0  0  0
   10.9706    8.0011   20.3956 H   0  0  0  0  0  0  0  0  0  0  0  0
   11.5016    9.6967   20.4152 H   0  0  0  0  0  0  0  0  0  0  0  0
   12.6105    8.3887   20.8864 H   0  0  0  0  0  0  0  0  0  0  0  0
   10.3937   13.1788   23.1042 H   0  0  0  0  0  0  0  0  0  0  0  0
    6.0206    9.1411   25.8167 H   0  0  0  0  0  0  0  0  0  0  0  0
    5.9629   10.5524   26.8384 H   0  0  0  0  0  0  0  0  0  0  0  0
  1  2  2  0  0  0  0
  1  4  1  0  0  0  0
  1 12  1  0  0  0  0
  2 10  1  0  0  0  0
  2 16  1  0  0  0  0
  3 12  2  0  0  0  0
  3 13  1  0  0  0  0
  3 16  1  0  0  0  0
  4 14  2  0  0  0  0
  4 15  1  0  0  0  0
  5 10  1  0  0  0  0
  6 10  1  0  0  0  0
  7 11  1  0  0  0  0
  8 11  1  0  0  0  0
  9 11  1  0  0  0  0
 11 15  1  0  0  0  0
  5 17  1  0  0  0  0
  5 18  1  0  0  0  0
  5 19  1  0  0  0  0
  6 20  1  0  0  0  0
  6 21  1  0  0  0  0
  6 22  1  0  0  0  0
  7 23  1  0  0  0  0
  7 24  1  0  0  0  0
  7 25  1  0  0  0  0
  8 26  1  0  0  0  0
  8 27  1  0  0  0  0
  8 28  1  0  0  0  0
  9 29  1  0  0  0  0
  9 30  1  0  0  0  0
  9 31  1  0  0  0  0
 10 32  1  0  0  0  0
 13 33  1  0  0  0  0
 13 34  1  0  0  0  0
M  END
> <id>
EN300-1458430

> <smiles>
CC(C)C=1SC(N)=NC1C(=O)OC(C)(C)C

> <IUPAC Name>
tert-butyl 2-amino-5-(propan-2-yl)-1,3-thiazole-4-carboxylate

> <CAS>
2167084-98-0

> <URL>
https://www.enaminestore.com/catalog/EN300-1458430

> <ROCS_ShapeQuery>
_x1140_x0812_0A_x1140_0A_x1097_0A_x0365_0A_x1097_0A_x0310_0A

> <ROCS_TanimotoCombo>
0.622 

> <ROCS_ShapeTanimoto>
0.222 

> <ROCS_ColorTanimoto>
0.401 

> <ROCS_RefTversky>
0.202 

> <ROCS_RefColorTversky>
0.540 

> <ROCS_RefTverskyCombo>
0.742 

> <ROCS_FitTversky>
1.756 

> <ROCS_FitColorTversky>
0.608 

> <ROCS_FitTverskyCombo>
2.365 

> <ROCS_ColorScore>
-4.293

> <ROCS_Overlap>
2073.736

> <ROCS_Rank>
189                 

$$$$
untitled-dbase-75412_0
  -OEChem-02092423213D

 32 34  0     0  0  0  0  0  0999 V2000
   11.9568   12.2275   23.8296 C   0  0  0  0  0  0  0  0  0  0  0  0
   10.6143   12.5678   21.8500 C   0  0  0  0  0  0  0  0  0  0  0  0
   13.0754   12.7168   23.1551 C   0  0  0  0  0  0  0  0  0  0  0  0
   11.7329   13.0571   21.1755 C   0  0  0  0  0  0  0  0  0  0  0  0
    8.7516   12.5218   24.5798 C   0  0  0  0  0  0  0  0  0  0  0  0
   10.7263   12.1529   23.1770 C   0  0  0  0  0  0  0  0  0  0  0  0
    9.5649   11.6448   23.8774 C   0  0  0  0  0  0  0  0  0  0  0  0
    7.6317   12.0405   25.2649 C   0  0  0  0  0  0  0  0  0  0  0  0
   12.9635   13.1316   21.8281 C   0  0  0  0  0  0  0  0  0  0  0  0
    7.3406   10.6686   25.2023 C   0  0  0  0  0  0  0  0  0  0  0  0
    9.2193   10.3078   23.8818 C   0  0  0  0  0  0  0  0  0  0  0  0
    6.7362   12.9931   26.0134 C   0  0  0  0  0  0  0  0  0  0  0  0
    5.8893   12.2587   27.0521 C   0  0  0  0  0  0  0  0  0  0  0  0
    5.2253   11.0411   26.4212 C   0  0  0  0  0  0  0  0  0  0  0  0
    8.1384    9.8063   24.5217 N   0  0  0  0  0  0  0  0  0  0  0  0
    6.2280   10.1586   25.8601 N   0  0  0  0  0  0  0  0  0  0  0  0
   10.0379    9.3916   23.1739 N   0  0  0  0  0  0  0  0  0  0  0  0
   14.0377   13.6015   21.1804 F   0  0  0  0  0  0  0  0  0  0  0  0
   12.0603   11.9079   24.8638 H   0  0  0  0  0  0  0  0  0  0  0  0
    9.6620   12.5160   21.3276 H   0  0  0  0  0  0  0  0  0  0  0  0
   14.0337   12.7748   23.6628 H   0  0  0  0  0  0  0  0  0  0  0  0
   11.6465   13.3803   20.1423 H   0  0  0  0  0  0  0  0  0  0  0  0
    8.9792   13.5855   24.6046 H   0  0  0  0  0  0  0  0  0  0  0  0
    7.3346   13.7600   26.5184 H   0  0  0  0  0  0  0  0  0  0  0  0
    6.0830   13.4967   25.2905 H   0  0  0  0  0  0  0  0  0  0  0  0
    6.5173   11.9412   27.8946 H   0  0  0  0  0  0  0  0  0  0  0  0
    5.1295   12.9365   27.4569 H   0  0  0  0  0  0  0  0  0  0  0  0
    4.6441   10.4985   27.1742 H   0  0  0  0  0  0  0  0  0  0  0  0
    4.5295   11.3525   25.6331 H   0  0  0  0  0  0  0  0  0  0  0  0
    6.0394    9.1669   25.7822 H   0  0  0  0  0  0  0  0  0  0  0  0
   10.8123    9.7417   22.6541 H   0  0  0  0  0  0  0  0  0  0  0  0
    9.7650    8.4341   23.1361 H   0  0  0  0  0  0  0  0  0  0  0  0
  1  3  2  0  0  0  0
  1  6  1  0  0  0  0
  2  4  1  0  0  0  0
  2  6  2  0  0  0  0
  3  9  1  0  0  0  0
  4  9  2  0  0  0  0
  5  7  1  0  0  0  0
  5  8  2  0  0  0  0
  6  7  1  0  0  0  0
  7 11  2  0  0  0  0
  8 10  1  0  0  0  0
  8 12  1  0  0  0  0
  9 18  1  0  0  0  0
 10 15  2  0  0  0  0
 10 16  1  0  0  0  0
 11 15  1  0  0  0  0
 11 17  1  0  0  0  0
 12 13  1  0  0  0  0
 13 14  1  0  0  0  0
 14 16  1  0  0  0  0
  1 19  1  0  0  0  0
  2 20  1  0  0  0  0
  3 21  1  0  0  0  0
  4 22  1  0  0  0  0
  5 23  1  0  0  0  0
 12 24  1  0  0  0  0
 12 25  1  0  0  0  0
 13 26  1  0  0  0  0
 13 27  1  0  0  0  0
 14 28  1  0  0  0  0
 14 29  1  0  0  0  0
 16 30  1  0  0  0  0
 17 31  1  0  0  0  0
 17 32  1  0  0  0  0
M  END
> <id>
EN300-364306

> <smiles>
NC=1N=C2NCCCC2=CC1C=3C=CC(F)=CC3

> <MDLNUMBER>
MFCD30728175

> <IUPAC Name>
3-(4-fluorophenyl)-5,6,7,8-tetrahydro-1,8-naphthyridin-2-amine

> <CAS>
2138180-64-8

> <URL>
https://www.enaminestore.com/catalog/EN300-364306

> <ROCS_ShapeQuery>
_x1140_x0812_0A_x1140_0A_x1097_0A_x0365_0A_x1097_0A_x0310_0A

> <ROCS_TanimotoCombo>
0.622 

> <ROCS_ShapeTanimoto>
0.275 

> <ROCS_ColorTanimoto>
0.347 

> <ROCS_RefTversky>
0.243 

> <ROCS_RefColorTversky>
0.486 

> <ROCS_RefTverskyCombo>
0.730 

> <ROCS_FitTversky>
1.888 

> <ROCS_FitColorTversky>
0.548 

> <ROCS_FitTverskyCombo>
2.436 

> <ROCS_ColorScore>
-3.868

> <ROCS_Overlap>
2497.740

> <ROCS_Rank>
190                 

$$$$
untitled-dbase-287244_4
  -OEChem-02092423213D

 25 25  0     0  0  0  0  0  0999 V2000
    7.5455   12.0843   25.2003 C   0  0  0  0  0  0  0  0  0  0  0  0
    7.4651   10.7245   25.4534 C   0  0  0  0  0  0  0  0  0  0  0  0
    9.2186   11.5826   23.5470 C   0  0  0  0  0  0  0  0  0  0  0  0
    8.4415   12.5134   24.2275 C   0  0  0  0  0  0  0  0  0  0  0  0
    9.0634   10.2452   23.8743 C   0  0  0  0  0  0  0  0  0  0  0  0
   10.1635   12.0162   22.5234 C   0  0  0  0  0  0  0  0  0  0  0  0
   11.5833   14.6504   21.5095 C   0  0  0  0  0  0  0  0  0  0  0  0
   12.0874   13.3638   22.1278 C   0  0  0  0  0  0  0  0  0  0  0  0
    8.5462   13.9747   23.9366 C   0  0  0  0  0  0  0  0  0  0  0  0
    8.2036    9.7905   24.8132 N   0  0  0  0  0  0  0  0  0  0  0  0
    9.8513    9.2883   23.1864 N   0  0  0  0  0  0  0  0  0  0  0  0
   10.1199   11.6603   21.3410 O   0  0  0  0  0  0  0  0  0  0  0  0
   11.1012   12.8663   23.0385 O   0  0  0  0  0  0  0  0  0  0  0  0
    7.7118   14.7430   24.6961 F   0  0  0  0  0  0  0  0  0  0  0  0
    9.7946   14.4841   24.1494 F   0  0  0  0  0  0  0  0  0  0  0  0
    8.2430   14.2729   22.6405 F   0  0  0  0  0  0  0  0  0  0  0  0
    6.9249   12.7845   25.7491 H   0  0  0  0  0  0  0  0  0  0  0  0
    6.7817   10.3385   26.2027 H   0  0  0  0  0  0  0  0  0  0  0  0
   10.6539   14.4807   20.9589 H   0  0  0  0  0  0  0  0  0  0  0  0
   11.4038   15.4055   22.2819 H   0  0  0  0  0  0  0  0  0  0  0  0
   12.3289   15.0672   20.8242 H   0  0  0  0  0  0  0  0  0  0  0  0
   13.0171   13.5405   22.6770 H   0  0  0  0  0  0  0  0  0  0  0  0
   12.2655   12.6103   21.3548 H   0  0  0  0  0  0  0  0  0  0  0  0
   10.4566    9.5982   22.4580 H   0  0  0  0  0  0  0  0  0  0  0  0
    9.7121    8.3212   23.3822 H   0  0  0  0  0  0  0  0  0  0  0  0
  1  2  2  0  0  0  0
  1  4  1  0  0  0  0
  2 10  1  0  0  0  0
  3  4  2  0  0  0  0
  3  5  1  0  0  0  0
  3  6  1  0  0  0  0
  4  9  1  0  0  0  0
  5 10  2  0  0  0  0
  5 11  1  0  0  0  0
  6 12  2  0  0  0  0
  6 13  1  0  0  0  0
  7  8  1  0  0  0  0
  8 13  1  0  0  0  0
  9 14  1  0  0  0  0
  9 15  1  0  0  0  0
  9 16  1  0  0  0  0
  1 17  1  0  0  0  0
  2 18  1  0  0  0  0
  7 19  1  0  0  0  0
  7 20  1  0  0  0  0
  7 21  1  0  0  0  0
  8 22  1  0  0  0  0
  8 23  1  0  0  0  0
 11 24  1  0  0  0  0
 11 25  1  0  0  0  0
M  END
> <id>
EN300-6511650

> <smiles>
CCOC(=O)C=1C(N)=NC=CC1C(F)(F)F

> <MDLNUMBER>
MFCD16037029

> <IUPAC Name>
ethyl 2-amino-4-(trifluoromethyl)pyridine-3-carboxylate

> <CAS>
1227508-36-2

> <URL>
https://www.enaminestore.com/catalog/EN300-6511650

> <ROCS_ShapeQuery>
_x1140_x0812_0A_x1140_0A_x1097_0A_x0365_0A_x1097_0A_x0310_0A

> <ROCS_TanimotoCombo>
0.622 

> <ROCS_ShapeTanimoto>
0.247 

> <ROCS_ColorTanimoto>
0.375 

> <ROCS_RefTversky>
0.222 

> <ROCS_RefColorTversky>
0.452 

> <ROCS_RefTverskyCombo>
0.673 

> <ROCS_FitTversky>
1.862 

> <ROCS_FitColorTversky>
0.687 

> <ROCS_FitTverskyCombo>
2.550 

> <ROCS_ColorScore>
-3.545

> <ROCS_Overlap>
2275.578

> <ROCS_Rank>
191                 

$$$$
untitled-dbase-492195_7
  -OEChem-02092423213D

 25 25  0     0  0  0  0  0  0999 V2000
    7.5410   12.0910   25.1924 C   0  0  0  0  0  0  0  0  0  0  0  0
    9.2173   11.5865   23.5432 C   0  0  0  0  0  0  0  0  0  0  0  0
    8.4381   12.5183   24.2198 C   0  0  0  0  0  0  0  0  0  0  0  0
    9.0629   10.2498   23.8735 C   0  0  0  0  0  0  0  0  0  0  0  0
    7.4614   10.7317   25.4488 C   0  0  0  0  0  0  0  0  0  0  0  0
   10.1640   12.0187   22.5211 C   0  0  0  0  0  0  0  0  0  0  0  0
    8.5420   13.9787   23.9237 C   0  0  0  0  0  0  0  0  0  0  0  0
   11.3972   14.1282   21.0158 C   0  0  0  0  0  0  0  0  0  0  0  0
   12.0881   13.3670   22.1271 C   0  0  0  0  0  0  0  0  0  0  0  0
    8.2020    9.7967   24.8122 N   0  0  0  0  0  0  0  0  0  0  0  0
    9.8513    9.2918   23.1880 N   0  0  0  0  0  0  0  0  0  0  0  0
   10.1236   11.6606   21.3391 O   0  0  0  0  0  0  0  0  0  0  0  0
   11.1001   12.8706   23.0365 O   0  0  0  0  0  0  0  0  0  0  0  0
    6.3877   10.1133   26.6357 Cl  0  0  0  0  0  0  0  0  0  0  0  0
    6.9246   12.8031   25.7320 H   0  0  0  0  0  0  0  0  0  0  0  0
    9.3004   14.4430   24.5646 H   0  0  0  0  0  0  0  0  0  0  0  0
    8.8159   14.1519   22.8758 H   0  0  0  0  0  0  0  0  0  0  0  0
    7.5839   14.4860   24.0915 H   0  0  0  0  0  0  0  0  0  0  0  0
   10.7115   13.4782   20.4653 H   0  0  0  0  0  0  0  0  0  0  0  0
   10.8333   14.9751   21.4206 H   0  0  0  0  0  0  0  0  0  0  0  0
   12.1317   14.5404   20.3159 H   0  0  0  0  0  0  0  0  0  0  0  0
   12.7724   14.0228   22.6736 H   0  0  0  0  0  0  0  0  0  0  0  0
   12.6503   12.5208   21.7210 H   0  0  0  0  0  0  0  0  0  0  0  0
   10.4565    9.6003   22.4589 H   0  0  0  0  0  0  0  0  0  0  0  0
    9.7127    8.3250   23.3860 H   0  0  0  0  0  0  0  0  0  0  0  0
  1  3  2  0  0  0  0
  1  5  1  0  0  0  0
  2  3  1  0  0  0  0
  2  4  2  0  0  0  0
  2  6  1  0  0  0  0
  3  7  1  0  0  0  0
  4 10  1  0  0  0  0
  4 11  1  0  0  0  0
  5 10  2  0  0  0  0
  5 14  1  0  0  0  0
  6 12  2  0  0  0  0
  6 13  1  0  0  0  0
  8  9  1  0  0  0  0
  9 13  1  0  0  0  0
  1 15  1  0  0  0  0
  7 16  1  0  0  0  0
  7 17  1  0  0  0  0
  7 18  1  0  0  0  0
  8 19  1  0  0  0  0
  8 20  1  0  0  0  0
  8 21  1  0  0  0  0
  9 22  1  0  0  0  0
  9 23  1  0  0  0  0
 11 24  1  0  0  0  0
 11 25  1  0  0  0  0
M  END
> <id>
EN300-28229212

> <smiles>
CCOC(=O)C=1C(C)=CC(Cl)=NC1N

> <IUPAC Name>
ethyl 2-amino-6-chloro-4-methylpyridine-3-carboxylate

> <CAS>
2092127-39-2

> <URL>
https://www.enaminestore.com/catalog/EN300-28229212

> <ROCS_ShapeQuery>
_x1140_x0812_0A_x1140_0A_x1097_0A_x0365_0A_x1097_0A_x0310_0A

> <ROCS_TanimotoCombo>
0.622 

> <ROCS_ShapeTanimoto>
0.247 

> <ROCS_ColorTanimoto>
0.374 

> <ROCS_RefTversky>
0.220 

> <ROCS_RefColorTversky>
0.451 

> <ROCS_RefTverskyCombo>
0.671 

> <ROCS_FitTversky>
2.025 

> <ROCS_FitColorTversky>
0.687 

> <ROCS_FitTverskyCombo>
2.712 

> <ROCS_ColorScore>
-3.544

> <ROCS_Overlap>
2253.028

> <ROCS_Rank>
192                 

$$$$
untitled-dbase-482573_4
  -OEChem-02092423213D

 42 44  0     0  0  0  0  0  0999 V2000
    8.4538   12.5400   24.1975 C   0  0  0  0  0  0  0  0  0  0  0  0
    9.2242   11.5886   23.5330 C   0  0  0  0  0  0  0  0  0  0  0  0
    7.5621   12.0971   25.1531 C   0  0  0  0  0  0  0  0  0  0  0  0
    7.4796   10.7350   25.4215 C   0  0  0  0  0  0  0  0  0  0  0  0
    9.0658   10.2444   23.8712 C   0  0  0  0  0  0  0  0  0  0  0  0
   10.1675   12.0316   22.5148 C   0  0  0  0  0  0  0  0  0  0  0  0
    6.6473   12.8816   26.0322 C   0  0  0  0  0  0  0  0  0  0  0  0
    6.4958   10.4697   26.5247 C   0  0  0  0  0  0  0  0  0  0  0  0
    5.6931   11.7793   26.5207 C   0  0  0  0  0  0  0  0  0  0  0  0
   10.9281    6.9649   23.1573 C   0  0  0  0  0  0  0  0  0  0  0  0
   10.5502    7.2630   24.5787 C   0  0  0  0  0  0  0  0  0  0  0  0
    9.7802    7.8911   23.4501 C   0  0  0  0  0  0  0  0  0  0  0  0
   11.3731   14.1622   21.0159 C   0  0  0  0  0  0  0  0  0  0  0  0
   13.0042   14.3213   22.9195 C   0  0  0  0  0  0  0  0  0  0  0  0
   12.8737   12.2154   21.5571 C   0  0  0  0  0  0  0  0  0  0  0  0
   12.0853   13.3933   22.1278 C   0  0  0  0  0  0  0  0  0  0  0  0
    8.2076    9.7842   24.8132 N   0  0  0  0  0  0  0  0  0  0  0  0
    9.8599    9.2897   23.1851 N   0  0  0  0  0  0  0  0  0  0  0  0
   10.1302   11.6810   21.3294 O   0  0  0  0  0  0  0  0  0  0  0  0
   11.1000   12.8860   23.0342 O   0  0  0  0  0  0  0  0  0  0  0  0
    8.5487   13.5983   23.9762 H   0  0  0  0  0  0  0  0  0  0  0  0
    7.2060   13.3191   26.8659 H   0  0  0  0  0  0  0  0  0  0  0  0
    6.1091   13.6629   25.4887 H   0  0  0  0  0  0  0  0  0  0  0  0
    5.8638    9.6022   26.3181 H   0  0  0  0  0  0  0  0  0  0  0  0
    7.0273   10.3323   27.4717 H   0  0  0  0  0  0  0  0  0  0  0  0
    5.2589   12.0066   27.4994 H   0  0  0  0  0  0  0  0  0  0  0  0
    4.8590   11.6869   25.8111 H   0  0  0  0  0  0  0  0  0  0  0  0
   11.8512    7.3895   22.7825 H   0  0  0  0  0  0  0  0  0  0  0  0
   10.6956    5.9810   22.7687 H   0  0  0  0  0  0  0  0  0  0  0  0
   10.0635    6.4798   25.1468 H   0  0  0  0  0  0  0  0  0  0  0  0
   11.2198    7.8882   25.1565 H   0  0  0  0  0  0  0  0  0  0  0  0
    8.7832    7.5063   23.2653 H   0  0  0  0  0  0  0  0  0  0  0  0
   10.7126   13.4995   20.4453 H   0  0  0  0  0  0  0  0  0  0  0  0
   10.7761   14.9885   21.4154 H   0  0  0  0  0  0  0  0  0  0  0  0
   12.0945   14.5713   20.2994 H   0  0  0  0  0  0  0  0  0  0  0  0
   13.5173   13.7738   23.7184 H   0  0  0  0  0  0  0  0  0  0  0  0
   12.4289   15.1151   23.4095 H   0  0  0  0  0  0  0  0  0  0  0  0
   13.7593   14.7862   22.2774 H   0  0  0  0  0  0  0  0  0  0  0  0
   13.3846   11.6637   22.3545 H   0  0  0  0  0  0  0  0  0  0  0  0
   12.2240   11.5192   21.0168 H   0  0  0  0  0  0  0  0  0  0  0  0
   13.6554   12.5646   20.8728 H   0  0  0  0  0  0  0  0  0  0  0  0
   10.4898    9.6457   22.4966 H   0  0  0  0  0  0  0  0  0  0  0  0
  1  2  1  0  0  0  0
  1  3  2  0  0  0  0
  2  5  2  0  0  0  0
  2  6  1  0  0  0  0
  3  4  1  0  0  0  0
  3  7  1  0  0  0  0
  4  8  1  0  0  0  0
  4 17  2  0  0  0  0
  5 17  1  0  0  0  0
  5 18  1  0  0  0  0
  6 19  2  0  0  0  0
  6 20  1  0  0  0  0
  7  9  1  0  0  0  0
  8  9  1  0  0  0  0
 10 11  1  0  0  0  0
 10 12  1  0  0  0  0
 11 12  1  0  0  0  0
 12 18  1  0  0  0  0
 13 16  1  0  0  0  0
 14 16  1  0  0  0  0
 15 16  1  0  0  0  0
 16 20  1  0  0  0  0
  1 21  1  0  0  0  0
  7 22  1  0  0  0  0
  7 23  1  0  0  0  0
  8 24  1  0  0  0  0
  8 25  1  0  0  0  0
  9 26  1  0  0  0  0
  9 27  1  0  0  0  0
 10 28  1  0  0  0  0
 10 29  1  0  0  0  0
 11 30  1  0  0  0  0
 11 31  1  0  0  0  0
 12 32  1  0  0  0  0
 13 33  1  0  0  0  0
 13 34  1  0  0  0  0
 13 35  1  0  0  0  0
 14 36  1  0  0  0  0
 14 37  1  0  0  0  0
 14 38  1  0  0  0  0
 15 39  1  0  0  0  0
 15 40  1  0  0  0  0
 15 41  1  0  0  0  0
 18 42  1  0  0  0  0
M  END
> <id>
EN300-27782537

> <smiles>
CC(C)(C)OC(=O)C=1C=C2CCCC2=NC1NC3CC3

> <IUPAC Name>
tert-butyl 2-(cyclopropylamino)-5H,6H,7H-cyclopenta[b]pyridine-3-carboxylate

> <CAS>
2639404-25-2

> <URL>
https://www.enaminestore.com/catalog/EN300-27782537

> <ROCS_ShapeQuery>
_x1140_x0812_0A_x1140_0A_x1097_0A_x0365_0A_x1097_0A_x0310_0A

> <ROCS_TanimotoCombo>
0.622 

> <ROCS_ShapeTanimoto>
0.285 

> <ROCS_ColorTanimoto>
0.337 

> <ROCS_RefTversky>
0.252 

> <ROCS_RefColorTversky>
0.447 

> <ROCS_RefTverskyCombo>
0.699 

> <ROCS_FitTversky>
1.855 

> <ROCS_FitColorTversky>
0.578 

> <ROCS_FitTverskyCombo>
2.433 

> <ROCS_ColorScore>
-3.533

> <ROCS_Overlap>
2583.579

> <ROCS_Rank>
193                 

$$$$
untitled-dbase-481444_5
  -OEChem-02092423213D

 25 25  0     0  0  0  0  0  0999 V2000
    8.4437   12.5161   24.2057 C   0  0  0  0  0  0  0  0  0  0  0  0
    9.2216   11.5785   23.5357 C   0  0  0  0  0  0  0  0  0  0  0  0
    7.5451   12.0968   25.1804 C   0  0  0  0  0  0  0  0  0  0  0  0
    7.4629   10.7394   25.4458 C   0  0  0  0  0  0  0  0  0  0  0  0
    9.0646   10.2443   23.8749 C   0  0  0  0  0  0  0  0  0  0  0  0
   10.1603   12.0275   22.5170 C   0  0  0  0  0  0  0  0  0  0  0  0
    6.5199   10.2154   26.4797 C   0  0  0  0  0  0  0  0  0  0  0  0
   13.2647   12.4720   22.1153 C   0  0  0  0  0  0  0  0  0  0  0  0
   12.0698   13.4013   22.1276 C   0  0  0  0  0  0  0  0  0  0  0  0
    8.2022    9.7989   24.8159 N   0  0  0  0  0  0  0  0  0  0  0  0
    9.8545    9.2824   23.1965 N   0  0  0  0  0  0  0  0  0  0  0  0
   10.1240   11.6775   21.3310 O   0  0  0  0  0  0  0  0  0  0  0  0
   11.0888   12.8875   23.0350 O   0  0  0  0  0  0  0  0  0  0  0  0
    6.5831   13.2581   26.0078 Cl  0  0  0  0  0  0  0  0  0  0  0  0
    8.5400   13.5729   23.9659 H   0  0  0  0  0  0  0  0  0  0  0  0
    5.5489    9.9867   26.0260 H   0  0  0  0  0  0  0  0  0  0  0  0
    6.9116    9.3037   26.9468 H   0  0  0  0  0  0  0  0  0  0  0  0
    6.3678   10.9464   27.2831 H   0  0  0  0  0  0  0  0  0  0  0  0
   13.7133   12.4000   23.1100 H   0  0  0  0  0  0  0  0  0  0  0  0
   12.9709   11.4697   21.7866 H   0  0  0  0  0  0  0  0  0  0  0  0
   14.0234   12.8284   21.4106 H   0  0  0  0  0  0  0  0  0  0  0  0
   11.6259   13.4688   21.1299 H   0  0  0  0  0  0  0  0  0  0  0  0
   12.3649   14.4019   22.4571 H   0  0  0  0  0  0  0  0  0  0  0  0
   10.4614    9.5868   22.4671 H   0  0  0  0  0  0  0  0  0  0  0  0
    9.7153    8.3168   23.3996 H   0  0  0  0  0  0  0  0  0  0  0  0
  1  2  1  0  0  0  0
  1  3  2  0  0  0  0
  2  5  2  0  0  0  0
  2  6  1  0  0  0  0
  3  4  1  0  0  0  0
  3 14  1  0  0  0  0
  4  7  1  0  0  0  0
  4 10  2  0  0  0  0
  5 10  1  0  0  0  0
  5 11  1  0  0  0  0
  6 12  2  0  0  0  0
  6 13  1  0  0  0  0
  8  9  1  0  0  0  0
  9 13  1  0  0  0  0
  1 15  1  0  0  0  0
  7 16  1  0  0  0  0
  7 17  1  0  0  0  0
  7 18  1  0  0  0  0
  8 19  1  0  0  0  0
  8 20  1  0  0  0  0
  8 21  1  0  0  0  0
  9 22  1  0  0  0  0
  9 23  1  0  0  0  0
 11 24  1  0  0  0  0
 11 25  1  0  0  0  0
M  END
> <id>
EN300-27729749

> <smiles>
CCOC(=O)C=1C=C(Cl)C(C)=NC1N

> <IUPAC Name>
ethyl 2-amino-5-chloro-6-methylpyridine-3-carboxylate

> <CAS>
2091632-37-8

> <URL>
https://www.enaminestore.com/catalog/EN300-27729749

> <ROCS_ShapeQuery>
_x1140_x0812_0A_x1140_0A_x1097_0A_x0365_0A_x1097_0A_x0310_0A

> <ROCS_TanimotoCombo>
0.622 

> <ROCS_ShapeTanimoto>
0.249 

> <ROCS_ColorTanimoto>
0.373 

> <ROCS_RefTversky>
0.221 

> <ROCS_RefColorTversky>
0.450 

> <ROCS_RefTverskyCombo>
0.671 

> <ROCS_FitTversky>
2.036 

> <ROCS_FitColorTversky>
0.685 

> <ROCS_FitTverskyCombo>
2.720 

> <ROCS_ColorScore>
-3.533

> <ROCS_Overlap>
2264.062

> <ROCS_Rank>
194                 

$$$$
untitled-dbase-75413_0
  -OEChem-02092423213D

 35 37  0     0  0  0  0  0  0999 V2000
   11.9606   12.2192   23.8379 C   0  0  0  0  0  0  0  0  0  0  0  0
   10.6195   12.5673   21.8587 C   0  0  0  0  0  0  0  0  0  0  0  0
   13.0806   12.7074   23.1649 C   0  0  0  0  0  0  0  0  0  0  0  0
   11.7395   13.0556   21.1857 C   0  0  0  0  0  0  0  0  0  0  0  0
    8.7558   12.5193   24.5878 C   0  0  0  0  0  0  0  0  0  0  0  0
   10.7301   12.1491   23.1848 C   0  0  0  0  0  0  0  0  0  0  0  0
    9.5673   11.6421   23.8835 C   0  0  0  0  0  0  0  0  0  0  0  0
    7.6346   12.0389   25.2714 C   0  0  0  0  0  0  0  0  0  0  0  0
   12.9700   13.1256   21.8388 C   0  0  0  0  0  0  0  0  0  0  0  0
    7.3403   10.6679   25.2054 C   0  0  0  0  0  0  0  0  0  0  0  0
    9.2185   10.3059   23.8846 C   0  0  0  0  0  0  0  0  0  0  0  0
    6.7411   12.9918   26.0219 C   0  0  0  0  0  0  0  0  0  0  0  0
    5.8921   12.2570   27.0585 C   0  0  0  0  0  0  0  0  0  0  0  0
    5.2254   11.0424   26.4245 C   0  0  0  0  0  0  0  0  0  0  0  0
   14.1675   13.6474   21.1191 C   0  0  0  0  0  0  0  0  0  0  0  0
    8.1363    9.8054   24.5229 N   0  0  0  0  0  0  0  0  0  0  0  0
    6.2262   10.1590   25.8616 N   0  0  0  0  0  0  0  0  0  0  0  0
   10.0352    9.3894   23.1747 N   0  0  0  0  0  0  0  0  0  0  0  0
   12.0631   11.8964   24.8713 H   0  0  0  0  0  0  0  0  0  0  0  0
    9.6671   12.5195   21.3361 H   0  0  0  0  0  0  0  0  0  0  0  0
   14.0356   12.7574   23.6812 H   0  0  0  0  0  0  0  0  0  0  0  0
   11.6441   13.3798   20.1527 H   0  0  0  0  0  0  0  0  0  0  0  0
    8.9859   13.5823   24.6153 H   0  0  0  0  0  0  0  0  0  0  0  0
    7.3412   13.7561   26.5290 H   0  0  0  0  0  0  0  0  0  0  0  0
    6.0893   13.4988   25.3000 H   0  0  0  0  0  0  0  0  0  0  0  0
    6.5191   11.9359   27.9005 H   0  0  0  0  0  0  0  0  0  0  0  0
    5.1337   12.9356   27.4647 H   0  0  0  0  0  0  0  0  0  0  0  0
    4.6427   10.4994   27.1760 H   0  0  0  0  0  0  0  0  0  0  0  0
    4.5306   11.3574   25.6369 H   0  0  0  0  0  0  0  0  0  0  0  0
   14.6974   12.8292   20.6160 H   0  0  0  0  0  0  0  0  0  0  0  0
   13.8856   14.3944   20.3658 H   0  0  0  0  0  0  0  0  0  0  0  0
   14.8641   14.1403   21.8099 H   0  0  0  0  0  0  0  0  0  0  0  0
    6.0353    9.1679   25.7812 H   0  0  0  0  0  0  0  0  0  0  0  0
   10.8106    9.7390   22.6560 H   0  0  0  0  0  0  0  0  0  0  0  0
    9.7601    8.4327   23.1345 H   0  0  0  0  0  0  0  0  0  0  0  0
  1  3  2  0  0  0  0
  1  6  1  0  0  0  0
  2  4  1  0  0  0  0
  2  6  2  0  0  0  0
  3  9  1  0  0  0  0
  4  9  2  0  0  0  0
  5  7  1  0  0  0  0
  5  8  2  0  0  0  0
  6  7  1  0  0  0  0
  7 11  2  0  0  0  0
  8 10  1  0  0  0  0
  8 12  1  0  0  0  0
  9 15  1  0  0  0  0
 10 16  2  0  0  0  0
 10 17  1  0  0  0  0
 11 16  1  0  0  0  0
 11 18  1  0  0  0  0
 12 13  1  0  0  0  0
 13 14  1  0  0  0  0
 14 17  1  0  0  0  0
  1 19  1  0  0  0  0
  2 20  1  0  0  0  0
  3 21  1  0  0  0  0
  4 22  1  0  0  0  0
  5 23  1  0  0  0  0
 12 24  1  0  0  0  0
 12 25  1  0  0  0  0
 13 26  1  0  0  0  0
 13 27  1  0  0  0  0
 14 28  1  0  0  0  0
 14 29  1  0  0  0  0
 15 30  1  0  0  0  0
 15 31  1  0  0  0  0
 15 32  1  0  0  0  0
 17 33  1  0  0  0  0
 18 34  1  0  0  0  0
 18 35  1  0  0  0  0
M  END
> <id>
EN300-364309

> <smiles>
CC=1C=CC(=CC1)C=2C=C3CCCNC3=NC2N

> <MDLNUMBER>
MFCD30728178

> <IUPAC Name>
3-(4-methylphenyl)-5,6,7,8-tetrahydro-1,8-naphthyridin-2-amine

> <CAS>
2137675-27-3

> <URL>
https://www.enaminestore.com/catalog/EN300-364309

> <ROCS_ShapeQuery>
_x1140_x0812_0A_x1140_0A_x1097_0A_x0365_0A_x1097_0A_x0310_0A

> <ROCS_TanimotoCombo>
0.622 

> <ROCS_ShapeTanimoto>
0.275 

> <ROCS_ColorTanimoto>
0.347 

> <ROCS_RefTversky>
0.243 

> <ROCS_RefColorTversky>
0.487 

> <ROCS_RefTverskyCombo>
0.730 

> <ROCS_FitTversky>
1.893 

> <ROCS_FitColorTversky>
0.548 

> <ROCS_FitTverskyCombo>
2.440 

> <ROCS_ColorScore>
-3.868

> <ROCS_Overlap>
2494.229

> <ROCS_Rank>
195                 

$$$$
untitled-dbase-287561_8
  -OEChem-02092423213D

 36 37  0     0  0  0  0  0  0999 V2000
    9.1564   12.4912   24.1148 C   0  0  0  0  0  0  0  0  0  0  0  0
    8.4977   12.9428   25.2566 C   0  0  0  0  0  0  0  0  0  0  0  0
    7.8850   10.4396   24.1979 C   0  0  0  0  0  0  0  0  0  0  0  0
    8.8537   11.2388   23.5884 C   0  0  0  0  0  0  0  0  0  0  0  0
    7.5332   12.1401   25.8820 C   0  0  0  0  0  0  0  0  0  0  0  0
    7.2002   10.8825   25.3387 C   0  0  0  0  0  0  0  0  0  0  0  0
    9.5458   10.7644   22.4007 C   0  0  0  0  0  0  0  0  0  0  0  0
    6.8231   12.6473   27.1135 C   0  0  0  0  0  0  0  0  0  0  0  0
    6.2169   11.4972   27.9175 C   0  0  0  0  0  0  0  0  0  0  0  0
    5.4116   10.5812   27.0035 C   0  0  0  0  0  0  0  0  0  0  0  0
   11.9210    9.8349   23.0736 C   0  0  0  0  0  0  0  0  0  0  0  0
   10.9478    7.5194   23.0965 C   0  0  0  0  0  0  0  0  0  0  0  0
   11.3968    8.6656   20.9073 C   0  0  0  0  0  0  0  0  0  0  0  0
   10.9821    8.8595   22.3651 C   0  0  0  0  0  0  0  0  0  0  0  0
    6.2491   10.0649   25.9381 N   0  0  0  0  0  0  0  0  0  0  0  0
    9.9831   11.4987   21.5047 O   0  0  0  0  0  0  0  0  0  0  0  0
    9.6569    9.4007   22.3940 O   0  0  0  0  0  0  0  0  0  0  0  0
    9.9050   13.1244   23.6458 H   0  0  0  0  0  0  0  0  0  0  0  0
    8.7427   13.9219   25.6604 H   0  0  0  0  0  0  0  0  0  0  0  0
    7.6534    9.4621   23.7775 H   0  0  0  0  0  0  0  0  0  0  0  0
    7.5207   13.1998   27.7534 H   0  0  0  0  0  0  0  0  0  0  0  0
    6.0328   13.3396   26.7987 H   0  0  0  0  0  0  0  0  0  0  0  0
    7.0115   10.9210   28.4093 H   0  0  0  0  0  0  0  0  0  0  0  0
    5.5752   11.8978   28.7102 H   0  0  0  0  0  0  0  0  0  0  0  0
    5.0023    9.7444   27.5789 H   0  0  0  0  0  0  0  0  0  0  0  0
    4.5640   11.1254   26.5706 H   0  0  0  0  0  0  0  0  0  0  0  0
   11.9484   10.7981   22.5516 H   0  0  0  0  0  0  0  0  0  0  0  0
   11.6141   10.0095   24.1099 H   0  0  0  0  0  0  0  0  0  0  0  0
   12.9493    9.4555   23.0764 H   0  0  0  0  0  0  0  0  0  0  0  0
   10.2753    6.8165   22.5916 H   0  0  0  0  0  0  0  0  0  0  0  0
   10.5603    7.6401   24.1146 H   0  0  0  0  0  0  0  0  0  0  0  0
   11.9424    7.0658   23.1556 H   0  0  0  0  0  0  0  0  0  0  0  0
   10.7234    7.9661   20.3989 H   0  0  0  0  0  0  0  0  0  0  0  0
   11.3913    9.6122   20.3571 H   0  0  0  0  0  0  0  0  0  0  0  0
   12.4008    8.2309   20.8423 H   0  0  0  0  0  0  0  0  0  0  0  0
    5.9868    9.2000   25.4804 H   0  0  0  0  0  0  0  0  0  0  0  0
  1  2  2  0  0  0  0
  1  4  1  0  0  0  0
  2  5  1  0  0  0  0
  3  4  2  0  0  0  0
  3  6  1  0  0  0  0
  4  7  1  0  0  0  0
  5  6  2  0  0  0  0
  5  8  1  0  0  0  0
  6 15  1  0  0  0  0
  7 16  2  0  0  0  0
  7 17  1  0  0  0  0
  8  9  1  0  0  0  0
  9 10  1  0  0  0  0
 10 15  1  0  0  0  0
 11 14  1  0  0  0  0
 12 14  1  0  0  0  0
 13 14  1  0  0  0  0
 14 17  1  0  0  0  0
  1 18  1  0  0  0  0
  2 19  1  0  0  0  0
  3 20  1  0  0  0  0
  8 21  1  0  0  0  0
  8 22  1  0  0  0  0
  9 23  1  0  0  0  0
  9 24  1  0  0  0  0
 10 25  1  0  0  0  0
 10 26  1  0  0  0  0
 11 27  1  0  0  0  0
 11 28  1  0  0  0  0
 11 29  1  0  0  0  0
 12 30  1  0  0  0  0
 12 31  1  0  0  0  0
 12 32  1  0  0  0  0
 13 33  1  0  0  0  0
 13 34  1  0  0  0  0
 13 35  1  0  0  0  0
 15 36  1  0  0  0  0
M  END
> <id>
EN300-6509023

> <smiles>
CC(C)(C)OC(=O)C=1C=CC=2CCCNC2C1

> <IUPAC Name>
tert-butyl 1,2,3,4-tetrahydroquinoline-7-carboxylate

> <CAS>
2248370-44-5

> <URL>
https://www.enaminestore.com/catalog/EN300-6509023

> <ROCS_ShapeQuery>
_x1140_x0812_0A_x1140_0A_x1097_0A_x0365_0A_x1097_0A_x0310_0A

> <ROCS_TanimotoCombo>
0.622 

> <ROCS_ShapeTanimoto>
0.239 

> <ROCS_ColorTanimoto>
0.383 

> <ROCS_RefTversky>
0.216 

> <ROCS_RefColorTversky>
0.459 

> <ROCS_RefTverskyCombo>
0.675 

> <ROCS_FitTversky>
1.769 

> <ROCS_FitColorTversky>
0.698 

> <ROCS_FitTverskyCombo>
2.467 

> <ROCS_ColorScore>
-3.600

> <ROCS_Overlap>
2219.752

> <ROCS_Rank>
196                 

$$$$
untitled-dbase-35919_1
  -OEChem-02092423213D

 21 21  0     0  0  0  0  0  0999 V2000
    8.4460   12.5121   24.2094 C   0  0  0  0  0  0  0  0  0  0  0  0
    9.2264   11.5830   23.5304 C   0  0  0  0  0  0  0  0  0  0  0  0
    7.5513   12.0814   25.1827 C   0  0  0  0  0  0  0  0  0  0  0  0
    7.4754   10.7216   25.4376 C   0  0  0  0  0  0  0  0  0  0  0  0
    9.0757   10.2456   23.8594 C   0  0  0  0  0  0  0  0  0  0  0  0
   10.1651   12.0261   22.5113 C   0  0  0  0  0  0  0  0  0  0  0  0
    6.5346   10.1851   26.4672 C   0  0  0  0  0  0  0  0  0  0  0  0
   12.0815   13.3911   22.1174 C   0  0  0  0  0  0  0  0  0  0  0  0
    8.2172    9.7892   24.7987 N   0  0  0  0  0  0  0  0  0  0  0  0
   10.1270   11.6754   21.3247 O   0  0  0  0  0  0  0  0  0  0  0  0
    9.8269    9.2972   23.2146 O   0  0  0  0  0  0  0  0  0  0  0  0
   11.0991   12.8829   23.0264 O   0  0  0  0  0  0  0  0  0  0  0  0
    6.5853   13.2324   26.0193 Cl  0  0  0  0  0  0  0  0  0  0  0  0
    8.5375   13.5707   23.9765 H   0  0  0  0  0  0  0  0  0  0  0  0
    5.5648    9.9555   26.0115 H   0  0  0  0  0  0  0  0  0  0  0  0
    6.9306    9.2717   26.9272 H   0  0  0  0  0  0  0  0  0  0  0  0
    6.3790   10.9091   27.2762 H   0  0  0  0  0  0  0  0  0  0  0  0
   12.7624   14.0585   22.6514 H   0  0  0  0  0  0  0  0  0  0  0  0
   11.5850   13.9315   21.3076 H   0  0  0  0  0  0  0  0  0  0  0  0
   12.6473   12.5542   21.7011 H   0  0  0  0  0  0  0  0  0  0  0  0
    9.6064    8.4192   23.5549 H   0  0  0  0  0  0  0  0  0  0  0  0
  1  2  1  0  0  0  0
  1  3  2  0  0  0  0
  2  5  2  0  0  0  0
  2  6  1  0  0  0  0
  3  4  1  0  0  0  0
  3 13  1  0  0  0  0
  4  7  1  0  0  0  0
  4  9  2  0  0  0  0
  5  9  1  0  0  0  0
  5 11  1  0  0  0  0
  6 10  2  0  0  0  0
  6 12  1  0  0  0  0
  8 12  1  0  0  0  0
  1 14  1  0  0  0  0
  7 15  1  0  0  0  0
  7 16  1  0  0  0  0
  7 17  1  0  0  0  0
  8 18  1  0  0  0  0
  8 19  1  0  0  0  0
  8 20  1  0  0  0  0
 11 21  1  0  0  0  0
M  END
> <id>
EN300-175844

> <smiles>
COC(=O)C=1C=C(Cl)C(C)=NC1O

> <MDLNUMBER>
MFCD25542314

> <IUPAC Name>
methyl 5-chloro-2-hydroxy-6-methylpyridine-3-carboxylate

> <CAS>
934361-39-4

> <Purity>
95

> <URL>
https://www.enaminestore.com/catalog/EN300-175844

> <ROCS_ShapeQuery>
_x1140_x0812_0A_x1140_0A_x1097_0A_x0365_0A_x1097_0A_x0310_0A

> <ROCS_TanimotoCombo>
0.622 

> <ROCS_ShapeTanimoto>
0.247 

> <ROCS_ColorTanimoto>
0.374 

> <ROCS_RefTversky>
0.219 

> <ROCS_RefColorTversky>
0.451 

> <ROCS_RefTverskyCombo>
0.670 

> <ROCS_FitTversky>
2.085 

> <ROCS_FitColorTversky>
0.687 

> <ROCS_FitTverskyCombo>
2.772 

> <ROCS_ColorScore>
-3.543

> <ROCS_Overlap>
2245.101

> <ROCS_Rank>
197                 

$$$$
untitled-dbase-162849_0
  -OEChem-02092423213D

 17 17  0     0  0  0  0  0  0999 V2000
    8.5175   12.5313   24.1364 C   0  0  0  0  0  0  0  0  0  0  0  0
    7.5343   12.0467   24.9919 C   0  0  0  0  0  0  0  0  0  0  0  0
    9.3073   11.6403   23.4185 C   0  0  0  0  0  0  0  0  0  0  0  0
    9.0760   10.2850   23.5900 C   0  0  0  0  0  0  0  0  0  0  0  0
    7.3822   10.6732   25.0928 C   0  0  0  0  0  0  0  0  0  0  0  0
    9.8930    9.2785   22.8467 C   0  0  0  0  0  0  0  0  0  0  0  0
    8.1304    9.7766   24.4116 N   0  0  0  0  0  0  0  0  0  0  0  0
   10.3048   12.1205   22.5510 N   0  0  0  0  0  0  0  0  0  0  0  0
    6.4195   10.1711   25.9290 O   0  0  0  0  0  0  0  0  0  0  0  0
   10.8345    9.8365   22.0311 F   0  0  0  0  0  0  0  0  0  0  0  0
   10.5831    8.4291   23.6621 F   0  0  0  0  0  0  0  0  0  0  0  0
    9.1339    8.4813   22.0417 F   0  0  0  0  0  0  0  0  0  0  0  0
    8.6603   13.6042   24.0368 H   0  0  0  0  0  0  0  0  0  0  0  0
    6.9090   12.7292   25.5570 H   0  0  0  0  0  0  0  0  0  0  0  0
   10.4087   13.1084   22.4200 H   0  0  0  0  0  0  0  0  0  0  0  0
   10.8353   11.4701   22.0039 H   0  0  0  0  0  0  0  0  0  0  0  0
    5.9496   10.8982   26.3605 H   0  0  0  0  0  0  0  0  0  0  0  0
  1  2  2  0  0  0  0
  1  3  1  0  0  0  0
  2  5  1  0  0  0  0
  3  4  2  0  0  0  0
  3  8  1  0  0  0  0
  4  6  1  0  0  0  0
  4  7  1  0  0  0  0
  5  7  2  0  0  0  0
  5  9  1  0  0  0  0
  6 10  1  0  0  0  0
  6 11  1  0  0  0  0
  6 12  1  0  0  0  0
  1 13  1  0  0  0  0
  2 14  1  0  0  0  0
  8 15  1  0  0  0  0
  8 16  1  0  0  0  0
  9 17  1  0  0  0  0
M  END
> <id>
EN300-173081

> <smiles>
NC=1C=CC(O)=NC1C(F)(F)F

> <MDLNUMBER>
MFCD28724130

> <IUPAC Name>
5-amino-6-(trifluoromethyl)pyridin-2-ol

> <CAS>
1535999-70-2

> <Purity>
95

> <URL>
https://www.enaminestore.com/catalog/EN300-173081

> <ROCS_ShapeQuery>
_x1140_x0812_0A_x1140_0A_x1097_0A_x0365_0A_x1097_0A_x0310_0A

> <ROCS_TanimotoCombo>
0.622 

> <ROCS_ShapeTanimoto>
0.230 

> <ROCS_ColorTanimoto>
0.391 

> <ROCS_RefTversky>
0.206 

> <ROCS_RefColorTversky>
0.499 

> <ROCS_RefTverskyCombo>
0.705 

> <ROCS_FitTversky>
2.003 

> <ROCS_FitColorTversky>
0.645 

> <ROCS_FitTverskyCombo>
2.648 

> <ROCS_ColorScore>
-3.941

> <ROCS_Overlap>
2114.608

> <ROCS_Rank>
198                 

$$$$
untitled-dbase-318116_5
  -OEChem-02092423213D

 26 26  0     0  0  0  0  0  0999 V2000
    7.3267   12.0334   24.9627 C   0  0  0  0  0  0  0  0  0  0  0  0
    8.1697   12.2524   23.9007 C   0  0  0  0  0  0  0  0  0  0  0  0
    7.2860   10.6372   25.0969 C   0  0  0  0  0  0  0  0  0  0  0  0
    9.4397   10.6846   22.4168 C   0  0  0  0  0  0  0  0  0  0  0  0
   11.4101    9.2659   23.8776 C   0  0  0  0  0  0  0  0  0  0  0  0
   10.8502    7.3249   22.3848 C   0  0  0  0  0  0  0  0  0  0  0  0
   11.7772    9.4382   21.3936 C   0  0  0  0  0  0  0  0  0  0  0  0
   10.9029    8.8469   22.4984 C   0  0  0  0  0  0  0  0  0  0  0  0
    8.0416   10.0089   24.1945 N   0  0  0  0  0  0  0  0  0  0  0  0
    8.5820   11.0138   23.4626 N   0  0  0  0  0  0  0  0  0  0  0  0
    6.5389   10.0419   26.0619 N   0  0  0  0  0  0  0  0  0  0  0  0
    9.9518   11.5529   21.7286 O   0  0  0  0  0  0  0  0  0  0  0  0
    9.5691    9.3377   22.3355 O   0  0  0  0  0  0  0  0  0  0  0  0
    6.8201   12.7877   25.5478 H   0  0  0  0  0  0  0  0  0  0  0  0
    8.5022   13.1688   23.4325 H   0  0  0  0  0  0  0  0  0  0  0  0
   11.4494   10.3577   23.9631 H   0  0  0  0  0  0  0  0  0  0  0  0
   10.7714    8.8772   24.6775 H   0  0  0  0  0  0  0  0  0  0  0  0
   12.4317    8.9058   24.0445 H   0  0  0  0  0  0  0  0  0  0  0  0
   10.4868    7.0198   21.3969 H   0  0  0  0  0  0  0  0  0  0  0  0
   10.1501    6.9030   23.1150 H   0  0  0  0  0  0  0  0  0  0  0  0
   11.8342    6.8733   22.5470 H   0  0  0  0  0  0  0  0  0  0  0  0
   11.4136    9.1378   20.4043 H   0  0  0  0  0  0  0  0  0  0  0  0
   11.7971   10.5320   21.4370 H   0  0  0  0  0  0  0  0  0  0  0  0
   12.8059    9.0679   21.4705 H   0  0  0  0  0  0  0  0  0  0  0  0
    6.0161   10.5894   26.7553 H   0  0  0  0  0  0  0  0  0  0  0  0
    6.5413    9.0241   26.1959 H   0  0  0  0  0  0  0  0  0  0  0  0
  1  2  2  0  0  0  0
  1  3  1  0  0  0  0
  2 10  1  0  0  0  0
  3  9  2  0  0  0  0
  3 11  1  0  0  0  0
  4 10  1  0  0  0  0
  4 12  2  0  0  0  0
  4 13  1  0  0  0  0
  5  8  1  0  0  0  0
  6  8  1  0  0  0  0
  7  8  1  0  0  0  0
  8 13  1  0  0  0  0
  9 10  1  0  0  0  0
  1 14  1  0  0  0  0
  2 15  1  0  0  0  0
  5 16  1  0  0  0  0
  5 17  1  0  0  0  0
  5 18  1  0  0  0  0
  6 19  1  0  0  0  0
  6 20  1  0  0  0  0
  6 21  1  0  0  0  0
  7 22  1  0  0  0  0
  7 23  1  0  0  0  0
  7 24  1  0  0  0  0
 11 25  1  0  0  0  0
 11 26  1  0  0  0  0
M  END
> <id>
EN300-73834

> <smiles>
CC(C)(C)OC(=O)N1C=CC(N)=N1

> <MDLNUMBER>
MFCD13194910

> <IUPAC Name>
tert-butyl 3-amino-1H-pyrazole-1-carboxylate

> <CAS>
863504-84-1

> <Purity>
95

> <URL>
https://www.enaminestore.com/catalog/EN300-73834

> <MP>
112-115

> <ROCS_ShapeQuery>
_x1140_x0812_0A_x1140_0A_x1097_0A_x0365_0A_x1097_0A_x0310_0A

> <ROCS_TanimotoCombo>
0.621 

> <ROCS_ShapeTanimoto>
0.203 

> <ROCS_ColorTanimoto>
0.419 

> <ROCS_RefTversky>
0.187 

> <ROCS_RefColorTversky>
0.523 

> <ROCS_RefTverskyCombo>
0.710 

> <ROCS_FitTversky>
1.754 

> <ROCS_FitColorTversky>
0.677 

> <ROCS_FitTverskyCombo>
2.431 

> <ROCS_ColorScore>
-4.133

> <ROCS_Overlap>
1913.135

> <ROCS_Rank>
199                 

$$$$
untitled-dbase-346656_7
  -OEChem-02092423213D

 24 24  0     0  0  0  0  0  0999 V2000
    7.6221   12.0615   25.2755 C   0  0  0  0  0  0  0  0  0  0  0  0
    7.4586   10.6857   25.2855 C   0  0  0  0  0  0  0  0  0  0  0  0
    8.6304   12.5913   24.4781 C   0  0  0  0  0  0  0  0  0  0  0  0
    9.4331   11.7411   23.7256 C   0  0  0  0  0  0  0  0  0  0  0  0
    9.1887   10.3796   23.8051 C   0  0  0  0  0  0  0  0  0  0  0  0
   10.5577   12.0884   21.5399 C   0  0  0  0  0  0  0  0  0  0  0  0
    8.8270   14.0719   24.4499 C   0  0  0  0  0  0  0  0  0  0  0  0
   11.7902   12.7686   20.9905 C   0  0  0  0  0  0  0  0  0  0  0  0
   10.0161    9.4134   23.0205 C   0  0  0  0  0  0  0  0  0  0  0  0
    8.2186    9.8280   24.5683 N   0  0  0  0  0  0  0  0  0  0  0  0
   10.4532   12.2465   22.9161 N   0  0  0  0  0  0  0  0  0  0  0  0
    9.8050   11.4741   20.7888 O   0  0  0  0  0  0  0  0  0  0  0  0
   10.9817   10.0122   22.2645 F   0  0  0  0  0  0  0  0  0  0  0  0
   10.6788    8.5087   23.7981 F   0  0  0  0  0  0  0  0  0  0  0  0
    9.2707    8.6751   22.1494 F   0  0  0  0  0  0  0  0  0  0  0  0
   12.7888   11.5304   20.2125 Cl  0  0  0  0  0  0  0  0  0  0  0  0
    6.9788   12.6971   25.8747 H   0  0  0  0  0  0  0  0  0  0  0  0
    6.6868   10.2223   25.8913 H   0  0  0  0  0  0  0  0  0  0  0  0
    9.5364   14.3754   25.2284 H   0  0  0  0  0  0  0  0  0  0  0  0
    9.2123   14.4019   23.4774 H   0  0  0  0  0  0  0  0  0  0  0  0
    7.8798   14.6003   24.6143 H   0  0  0  0  0  0  0  0  0  0  0  0
   12.3815   13.2633   21.7652 H   0  0  0  0  0  0  0  0  0  0  0  0
   11.4943   13.5107   20.2436 H   0  0  0  0  0  0  0  0  0  0  0  0
   11.1874   12.7795   23.3770 H   0  0  0  0  0  0  0  0  0  0  0  0
  1  2  2  0  0  0  0
  1  3  1  0  0  0  0
  2 10  1  0  0  0  0
  3  4  2  0  0  0  0
  3  7  1  0  0  0  0
  4  5  1  0  0  0  0
  4 11  1  0  0  0  0
  5  9  1  0  0  0  0
  5 10  2  0  0  0  0
  6  8  1  0  0  0  0
  6 11  1  0  0  0  0
  6 12  2  0  0  0  0
  8 16  1  0  0  0  0
  9 13  1  0  0  0  0
  9 14  1  0  0  0  0
  9 15  1  0  0  0  0
  1 17  1  0  0  0  0
  2 18  1  0  0  0  0
  7 19  1  0  0  0  0
  7 20  1  0  0  0  0
  7 21  1  0  0  0  0
  8 22  1  0  0  0  0
  8 23  1  0  0  0  0
 11 24  1  0  0  0  0
M  END
> <id>
EN300-26582285

> <smiles>
CC=1C=CN=C(C1NC(=O)CCl)C(F)(F)F

> <IUPAC Name>
2-chloro-N-[4-methyl-2-(trifluoromethyl)pyridin-3-yl]acetamide

> <CAS>
2411268-02-3

> <URL>
https://www.enaminestore.com/catalog/EN300-26582285

> <ROCS_ShapeQuery>
_x1140_x0812_0A_x1140_0A_x1097_0A_x0365_0A_x1097_0A_x0310_0A

> <ROCS_TanimotoCombo>
0.621 

> <ROCS_ShapeTanimoto>
0.245 

> <ROCS_ColorTanimoto>
0.377 

> <ROCS_RefTversky>
0.220 

> <ROCS_RefColorTversky>
0.421 

> <ROCS_RefTverskyCombo>
0.641 

> <ROCS_FitTversky>
1.859 

> <ROCS_FitColorTversky>
0.782 

> <ROCS_FitTverskyCombo>
2.641 

> <ROCS_ColorScore>
-3.284

> <ROCS_Overlap>
2253.760

> <ROCS_Rank>
200                 

$$$$
untitled-dbase-557161_0
  -OEChem-02092423213D

 24 24  0     0  0  0  0  0  0999 V2000
    8.5565   12.6027   24.0615 C   0  0  0  0  0  0  0  0  0  0  0  0
    7.6156   12.1960   25.0009 C   0  0  0  0  0  0  0  0  0  0  0  0
    9.3437   11.6539   23.4185 C   0  0  0  0  0  0  0  0  0  0  0  0
    7.5018   10.8396   25.2596 C   0  0  0  0  0  0  0  0  0  0  0  0
    9.1527   10.3218   23.7481 C   0  0  0  0  0  0  0  0  0  0  0  0
    6.5353   10.3585   26.2316 C   0  0  0  0  0  0  0  0  0  0  0  0
    9.8336    7.9518   23.3668 C   0  0  0  0  0  0  0  0  0  0  0  0
    5.6605    8.3986   27.2768 C   0  0  0  0  0  0  0  0  0  0  0  0
    8.2487    9.8886   24.6553 N   0  0  0  0  0  0  0  0  0  0  0  0
   10.2967   12.0636   22.4672 N   0  0  0  0  0  0  0  0  0  0  0  0
    9.9511    9.3474   23.0976 N   0  0  0  0  0  0  0  0  0  0  0  0
    5.7692   11.0860   26.8790 O   0  0  0  0  0  0  0  0  0  0  0  0
    6.5713    8.9950   26.3469 O   0  0  0  0  0  0  0  0  0  0  0  0
    8.6674   13.6607   23.8386 H   0  0  0  0  0  0  0  0  0  0  0  0
    6.9957   12.9270   25.5091 H   0  0  0  0  0  0  0  0  0  0  0  0
    9.0540    7.7886   24.1255 H   0  0  0  0  0  0  0  0  0  0  0  0
    9.5618    7.4217   22.4421 H   0  0  0  0  0  0  0  0  0  0  0  0
   10.7946    7.5684   23.7404 H   0  0  0  0  0  0  0  0  0  0  0  0
    5.7915    7.3138   27.2714 H   0  0  0  0  0  0  0  0  0  0  0  0
    4.6350    8.6539   26.9984 H   0  0  0  0  0  0  0  0  0  0  0  0
    5.8710    8.7838   28.2773 H   0  0  0  0  0  0  0  0  0  0  0  0
   10.3658   13.0335   22.2279 H   0  0  0  0  0  0  0  0  0  0  0  0
   10.8267   11.3715   21.9743 H   0  0  0  0  0  0  0  0  0  0  0  0
   10.6137    9.6854   22.4303 H   0  0  0  0  0  0  0  0  0  0  0  0
  1  2  2  0  0  0  0
  1  3  1  0  0  0  0
  2  4  1  0  0  0  0
  3  5  2  0  0  0  0
  3 10  1  0  0  0  0
  4  6  1  0  0  0  0
  4  9  2  0  0  0  0
  5  9  1  0  0  0  0
  5 11  1  0  0  0  0
  6 12  2  0  0  0  0
  6 13  1  0  0  0  0
  7 11  1  0  0  0  0
  8 13  1  0  0  0  0
  1 14  1  0  0  0  0
  2 15  1  0  0  0  0
  7 16  1  0  0  0  0
  7 17  1  0  0  0  0
  7 18  1  0  0  0  0
  8 19  1  0  0  0  0
  8 20  1  0  0  0  0
  8 21  1  0  0  0  0
 10 22  1  0  0  0  0
 10 23  1  0  0  0  0
 11 24  1  0  0  0  0
M  END
> <id>
EN300-134009

> <smiles>
CNC=1N=C(C=CC1N)C(=O)OC

> <MDLNUMBER>
MFCD26719210

> <IUPAC Name>
methyl 5-amino-6-(methylamino)pyridine-2-carboxylate

> <CAS>
1525791-31-4

> <Purity>
95

> <URL>
https://www.enaminestore.com/catalog/EN300-134009

> <ROCS_ShapeQuery>
_x1140_x0812_0A_x1140_0A_x1097_0A_x0365_0A_x1097_0A_x0310_0A

> <ROCS_TanimotoCombo>
0.621 

> <ROCS_ShapeTanimoto>
0.227 

> <ROCS_ColorTanimoto>
0.394 

> <ROCS_RefTversky>
0.205 

> <ROCS_RefColorTversky>
0.501 

> <ROCS_RefTverskyCombo>
0.706 

> <ROCS_FitTversky>
1.940 

> <ROCS_FitColorTversky>
0.649 

> <ROCS_FitTverskyCombo>
2.588 

> <ROCS_ColorScore>
-3.957

> <ROCS_Overlap>
2099.553

> <ROCS_Rank>
201                 

$$$$
untitled-dbase-492239_6
  -OEChem-02092423213D

 34 35  0     0  0  0  0  0  0999 V2000
    9.6352   14.9690   25.3356 C   0  0  0  0  0  0  0  0  0  0  0  0
   10.3179   14.5833   24.1844 C   0  0  0  0  0  0  0  0  0  0  0  0
    8.7092   14.1056   25.9238 C   0  0  0  0  0  0  0  0  0  0  0  0
   10.0777   13.3326   23.6160 C   0  0  0  0  0  0  0  0  0  0  0  0
    7.5327   11.9545   25.9307 C   0  0  0  0  0  0  0  0  0  0  0  0
    8.4549   12.8425   25.3649 C   0  0  0  0  0  0  0  0  0  0  0  0
    9.1480   12.4558   24.1993 C   0  0  0  0  0  0  0  0  0  0  0  0
    8.8690   11.1930   23.6728 C   0  0  0  0  0  0  0  0  0  0  0  0
    7.3377   10.7254   25.3194 C   0  0  0  0  0  0  0  0  0  0  0  0
    9.5253   10.6873   22.4721 C   0  0  0  0  0  0  0  0  0  0  0  0
   11.9218    9.7896   23.0936 C   0  0  0  0  0  0  0  0  0  0  0  0
   10.9621    7.4716   23.2162 C   0  0  0  0  0  0  0  0  0  0  0  0
   11.3331    8.5549   20.9809 C   0  0  0  0  0  0  0  0  0  0  0  0
   10.9653    8.7898   22.4452 C   0  0  0  0  0  0  0  0  0  0  0  0
    7.9825   10.3213   24.2042 N   0  0  0  0  0  0  0  0  0  0  0  0
    6.3980    9.8480   25.9161 N   0  0  0  0  0  0  0  0  0  0  0  0
    9.9281   11.4002   21.5466 O   0  0  0  0  0  0  0  0  0  0  0  0
    9.6390    9.3258   22.5018 O   0  0  0  0  0  0  0  0  0  0  0  0
    9.8234   15.9432   25.7771 H   0  0  0  0  0  0  0  0  0  0  0  0
   11.0379   15.2571   23.7287 H   0  0  0  0  0  0  0  0  0  0  0  0
    8.1875   14.4282   26.8223 H   0  0  0  0  0  0  0  0  0  0  0  0
   10.6277   13.0628   22.7176 H   0  0  0  0  0  0  0  0  0  0  0  0
    6.9821   12.2231   26.8284 H   0  0  0  0  0  0  0  0  0  0  0  0
   11.9270   10.7371   22.5431 H   0  0  0  0  0  0  0  0  0  0  0  0
   11.6481    9.9933   24.1339 H   0  0  0  0  0  0  0  0  0  0  0  0
   12.9516    9.4149   23.0737 H   0  0  0  0  0  0  0  0  0  0  0  0
   10.2771    6.7512   22.7545 H   0  0  0  0  0  0  0  0  0  0  0  0
   10.6075    7.6205   24.2425 H   0  0  0  0  0  0  0  0  0  0  0  0
   11.9605    7.0242   23.2559 H   0  0  0  0  0  0  0  0  0  0  0  0
   10.6471    7.8378   20.5156 H   0  0  0  0  0  0  0  0  0  0  0  0
   11.3046    9.4848   20.4037 H   0  0  0  0  0  0  0  0  0  0  0  0
   12.3367    8.1228   20.8956 H   0  0  0  0  0  0  0  0  0  0  0  0
    5.9552   10.1230   26.7654 H   0  0  0  0  0  0  0  0  0  0  0  0
    6.2725    8.9400   25.5250 H   0  0  0  0  0  0  0  0  0  0  0  0
  1  2  1  0  0  0  0
  1  3  2  0  0  0  0
  2  4  2  0  0  0  0
  3  6  1  0  0  0  0
  4  7  1  0  0  0  0
  5  6  2  0  0  0  0
  5  9  1  0  0  0  0
  6  7  1  0  0  0  0
  7  8  2  0  0  0  0
  8 10  1  0  0  0  0
  8 15  1  0  0  0  0
  9 15  2  0  0  0  0
  9 16  1  0  0  0  0
 10 17  2  0  0  0  0
 10 18  1  0  0  0  0
 11 14  1  0  0  0  0
 12 14  1  0  0  0  0
 13 14  1  0  0  0  0
 14 18  1  0  0  0  0
  1 19  1  0  0  0  0
  2 20  1  0  0  0  0
  3 21  1  0  0  0  0
  4 22  1  0  0  0  0
  5 23  1  0  0  0  0
 11 24  1  0  0  0  0
 11 25  1  0  0  0  0
 11 26  1  0  0  0  0
 12 27  1  0  0  0  0
 12 28  1  0  0  0  0
 12 29  1  0  0  0  0
 13 30  1  0  0  0  0
 13 31  1  0  0  0  0
 13 32  1  0  0  0  0
 16 33  1  0  0  0  0
 16 34  1  0  0  0  0
M  END
> <id>
EN300-27730106

> <smiles>
CC(C)(C)OC(=O)C=1N=C(N)C=C2C=CC=CC12

> <IUPAC Name>
tert-butyl 3-aminoisoquinoline-1-carboxylate

> <CAS>
2639410-62-9

> <URL>
https://www.enaminestore.com/catalog/EN300-27730106

> <ROCS_ShapeQuery>
_x1140_x0812_0A_x1140_0A_x1097_0A_x0365_0A_x1097_0A_x0310_0A

> <ROCS_TanimotoCombo>
0.621 

> <ROCS_ShapeTanimoto>
0.240 

> <ROCS_ColorTanimoto>
0.381 

> <ROCS_RefTversky>
0.218 

> <ROCS_RefColorTversky>
0.521 

> <ROCS_RefTverskyCombo>
0.740 

> <ROCS_FitTversky>
1.704 

> <ROCS_FitColorTversky>
0.587 

> <ROCS_FitTverskyCombo>
2.291 

> <ROCS_ColorScore>
-4.144

> <ROCS_Overlap>
2239.532

> <ROCS_Rank>
202                 

$$$$
untitled-dbase-120558_0
  -OEChem-02092423213D

 33 34  0     0  0  0  0  0  0999 V2000
    5.7258   12.1117   26.4612 C   0  0  0  0  0  0  0  0  0  0  0  0
    6.6724   12.6938   25.6230 C   0  0  0  0  0  0  0  0  0  0  0  0
    5.7069   10.7316   26.6203 C   0  0  0  0  0  0  0  0  0  0  0  0
    8.5684   12.4540   24.0903 C   0  0  0  0  0  0  0  0  0  0  0  0
    7.6048   11.8944   24.9401 C   0  0  0  0  0  0  0  0  0  0  0  0
    7.5913   10.4925   25.0968 C   0  0  0  0  0  0  0  0  0  0  0  0
    9.4752   11.6375   23.4300 C   0  0  0  0  0  0  0  0  0  0  0  0
    6.6339    9.9371   25.9413 C   0  0  0  0  0  0  0  0  0  0  0  0
    9.3842   10.2774   23.6461 C   0  0  0  0  0  0  0  0  0  0  0  0
   11.8062    9.6482   23.3564 C   0  0  0  0  0  0  0  0  0  0  0  0
   10.2144    9.4484   21.4167 C   0  0  0  0  0  0  0  0  0  0  0  0
   10.1172    7.8246   23.2968 C   0  0  0  0  0  0  0  0  0  0  0  0
   10.3283    9.3385   22.9678 C   0  0  0  0  0  0  0  0  0  0  0  0
    8.4701    9.6976   24.4574 N   0  0  0  0  0  0  0  0  0  0  0  0
   10.7200   13.5451   22.5734 N   0  0  0  0  0  0  0  0  0  0  0  0
   10.4429   12.1954   22.5771 N   0  0  0  0  0  0  0  0  0  0  0  0
    6.5924    8.6071   26.1142 F   0  0  0  0  0  0  0  0  0  0  0  0
    5.0066   12.7325   26.9866 H   0  0  0  0  0  0  0  0  0  0  0  0
    6.6781   13.7752   25.5056 H   0  0  0  0  0  0  0  0  0  0  0  0
    4.9722   10.2689   27.2725 H   0  0  0  0  0  0  0  0  0  0  0  0
    8.6085   13.5323   23.9451 H   0  0  0  0  0  0  0  0  0  0  0  0
   12.5204    8.9725   22.8715 H   0  0  0  0  0  0  0  0  0  0  0  0
   12.0903   10.6685   23.0763 H   0  0  0  0  0  0  0  0  0  0  0  0
   11.9417    9.5549   24.4405 H   0  0  0  0  0  0  0  0  0  0  0  0
   10.9042    8.7624   20.9131 H   0  0  0  0  0  0  0  0  0  0  0  0
    9.2076    9.2163   21.0501 H   0  0  0  0  0  0  0  0  0  0  0  0
   10.4629   10.4646   21.0883 H   0  0  0  0  0  0  0  0  0  0  0  0
   10.8329    7.1769   22.7761 H   0  0  0  0  0  0  0  0  0  0  0  0
   10.2364    7.6376   24.3705 H   0  0  0  0  0  0  0  0  0  0  0  0
    9.1134    7.4970   23.0023 H   0  0  0  0  0  0  0  0  0  0  0  0
   10.7988   13.8551   21.6061 H   0  0  0  0  0  0  0  0  0  0  0  0
   11.6390   13.6884   22.9903 H   0  0  0  0  0  0  0  0  0  0  0  0
   11.0891   11.5708   22.1110 H   0  0  0  0  0  0  0  0  0  0  0  0
  1  2  2  0  0  0  0
  1  3  1  0  0  0  0
  2  5  1  0  0  0  0
  3  8  2  0  0  0  0
  4  5  2  0  0  0  0
  4  7  1  0  0  0  0
  5  6  1  0  0  0  0
  6  8  1  0  0  0  0
  6 14  2  0  0  0  0
  7  9  2  0  0  0  0
  7 16  1  0  0  0  0
  8 17  1  0  0  0  0
  9 13  1  0  0  0  0
  9 14  1  0  0  0  0
 10 13  1  0  0  0  0
 11 13  1  0  0  0  0
 12 13  1  0  0  0  0
 15 16  1  0  0  0  0
  1 18  1  0  0  0  0
  2 19  1  0  0  0  0
  3 20  1  0  0  0  0
  4 21  1  0  0  0  0
 10 22  1  0  0  0  0
 10 23  1  0  0  0  0
 10 24  1  0  0  0  0
 11 25  1  0  0  0  0
 11 26  1  0  0  0  0
 11 27  1  0  0  0  0
 12 28  1  0  0  0  0
 12 29  1  0  0  0  0
 12 30  1  0  0  0  0
 15 31  1  0  0  0  0
 15 32  1  0  0  0  0
 16 33  1  0  0  0  0
M  END
> <id>
EN300-801773

> <smiles>
CC(C)(C)C=1N=C2C(F)=CC=CC2=CC1NN

> <IUPAC Name>
2-tert-butyl-8-fluoro-3-hydrazinylquinoline

> <CAS>
2138187-36-5

> <URL>
https://www.enaminestore.com/catalog/EN300-801773

> <ROCS_ShapeQuery>
_x1140_x0812_0A_x1140_0A_x1097_0A_x0365_0A_x1097_0A_x0310_0A

> <ROCS_TanimotoCombo>
0.621 

> <ROCS_ShapeTanimoto>
0.285 

> <ROCS_ColorTanimoto>
0.336 

> <ROCS_RefTversky>
0.249 

> <ROCS_RefColorTversky>
0.455 

> <ROCS_RefTverskyCombo>
0.704 

> <ROCS_FitTversky>
2.016 

> <ROCS_FitColorTversky>
0.564 

> <ROCS_FitTverskyCombo>
2.580 

> <ROCS_ColorScore>
-3.601

> <ROCS_Overlap>
2554.149

> <ROCS_Rank>
203                 

$$$$
untitled-dbase-120479_0
  -OEChem-02092423213D

 33 34  0     0  0  0  0  0  0999 V2000
    6.6365    9.9314   25.9419 C   0  0  0  0  0  0  0  0  0  0  0  0
    5.7099   10.7248   26.6230 C   0  0  0  0  0  0  0  0  0  0  0  0
    8.5680   12.4514   24.0920 C   0  0  0  0  0  0  0  0  0  0  0  0
    6.6737   12.6885   25.6272 C   0  0  0  0  0  0  0  0  0  0  0  0
    7.6055   11.8903   24.9422 C   0  0  0  0  0  0  0  0  0  0  0  0
    7.5927   10.4883   25.0970 C   0  0  0  0  0  0  0  0  0  0  0  0
    9.4743   11.6360   23.4297 C   0  0  0  0  0  0  0  0  0  0  0  0
    5.7282   12.1051   26.4657 C   0  0  0  0  0  0  0  0  0  0  0  0
    9.3840   10.2757   23.6440 C   0  0  0  0  0  0  0  0  0  0  0  0
   11.8058    9.6472   23.3511 C   0  0  0  0  0  0  0  0  0  0  0  0
   10.2120    9.4494   21.4128 C   0  0  0  0  0  0  0  0  0  0  0  0
   10.1171    7.8233   23.2912 C   0  0  0  0  0  0  0  0  0  0  0  0
   10.3276    9.3376   22.9637 C   0  0  0  0  0  0  0  0  0  0  0  0
    8.4710    9.6945   24.4556 N   0  0  0  0  0  0  0  0  0  0  0  0
   10.7172   13.5448   22.5729 N   0  0  0  0  0  0  0  0  0  0  0  0
   10.4407   12.1951   22.5757 N   0  0  0  0  0  0  0  0  0  0  0  0
    4.5896   13.0862   27.3019 Cl  0  0  0  0  0  0  0  0  0  0  0  0
    6.6031    8.8527   26.0840 H   0  0  0  0  0  0  0  0  0  0  0  0
    4.9812   10.2471   27.2729 H   0  0  0  0  0  0  0  0  0  0  0  0
    8.6074   13.5299   23.9484 H   0  0  0  0  0  0  0  0  0  0  0  0
    6.6903   13.7698   25.5011 H   0  0  0  0  0  0  0  0  0  0  0  0
   12.5196    8.9722   22.8647 H   0  0  0  0  0  0  0  0  0  0  0  0
   12.0894   10.6679   23.0719 H   0  0  0  0  0  0  0  0  0  0  0  0
   11.9425    9.5527   24.4349 H   0  0  0  0  0  0  0  0  0  0  0  0
   10.9015    8.7641   20.9078 H   0  0  0  0  0  0  0  0  0  0  0  0
    9.2049    9.2175   21.0470 H   0  0  0  0  0  0  0  0  0  0  0  0
   10.4600   10.4660   21.0854 H   0  0  0  0  0  0  0  0  0  0  0  0
   10.8323    7.1764   22.7690 H   0  0  0  0  0  0  0  0  0  0  0  0
   10.2374    7.6351   24.3645 H   0  0  0  0  0  0  0  0  0  0  0  0
    9.1130    7.4959   22.9973 H   0  0  0  0  0  0  0  0  0  0  0  0
   10.7946   13.8557   21.6057 H   0  0  0  0  0  0  0  0  0  0  0  0
   11.6368   13.6881   22.9886 H   0  0  0  0  0  0  0  0  0  0  0  0
   11.0864   11.5710   22.1084 H   0  0  0  0  0  0  0  0  0  0  0  0
  1  2  2  0  0  0  0
  1  6  1  0  0  0  0
  2  8  1  0  0  0  0
  3  5  2  0  0  0  0
  3  7  1  0  0  0  0
  4  5  1  0  0  0  0
  4  8  2  0  0  0  0
  5  6  1  0  0  0  0
  6 14  2  0  0  0  0
  7  9  2  0  0  0  0
  7 16  1  0  0  0  0
  8 17  1  0  0  0  0
  9 13  1  0  0  0  0
  9 14  1  0  0  0  0
 10 13  1  0  0  0  0
 11 13  1  0  0  0  0
 12 13  1  0  0  0  0
 15 16  1  0  0  0  0
  1 18  1  0  0  0  0
  2 19  1  0  0  0  0
  3 20  1  0  0  0  0
  4 21  1  0  0  0  0
 10 22  1  0  0  0  0
 10 23  1  0  0  0  0
 10 24  1  0  0  0  0
 11 25  1  0  0  0  0
 11 26  1  0  0  0  0
 11 27  1  0  0  0  0
 12 28  1  0  0  0  0
 12 29  1  0  0  0  0
 12 30  1  0  0  0  0
 15 31  1  0  0  0  0
 15 32  1  0  0  0  0
 16 33  1  0  0  0  0
M  END
> <id>
EN300-801623

> <smiles>
CC(C)(C)C=1N=C2C=CC(Cl)=CC2=CC1NN

> <IUPAC Name>
2-tert-butyl-6-chloro-3-hydrazinylquinoline

> <CAS>
2138379-82-3

> <URL>
https://www.enaminestore.com/catalog/EN300-801623

> <ROCS_ShapeQuery>
_x1140_x0812_0A_x1140_0A_x1097_0A_x0365_0A_x1097_0A_x0310_0A

> <ROCS_TanimotoCombo>
0.621 

> <ROCS_ShapeTanimoto>
0.285 

> <ROCS_ColorTanimoto>
0.336 

> <ROCS_RefTversky>
0.249 

> <ROCS_RefColorTversky>
0.455 

> <ROCS_RefTverskyCombo>
0.704 

> <ROCS_FitTversky>
2.034 

> <ROCS_FitColorTversky>
0.564 

> <ROCS_FitTverskyCombo>
2.598 

> <ROCS_ColorScore>
-3.602

> <ROCS_Overlap>
2550.718

> <ROCS_Rank>
204                 

$$$$
untitled-dbase-153741_1
  -OEChem-02092423213D

 23 23  0     0  0  0  0  0  0999 V2000
    7.2015   11.9524   24.8675 C   0  0  0  0  0  0  0  0  0  0  0  0
    9.0086   11.4659   23.3568 C   0  0  0  0  0  0  0  0  0  0  0  0
    8.0837   12.3654   23.8753 C   0  0  0  0  0  0  0  0  0  0  0  0
    7.2842   10.6398   25.3035 C   0  0  0  0  0  0  0  0  0  0  0  0
    9.0104   10.1751   23.8605 C   0  0  0  0  0  0  0  0  0  0  0  0
    9.9412   11.8833   22.3152 C   0  0  0  0  0  0  0  0  0  0  0  0
    8.0148   13.7761   23.3891 C   0  0  0  0  0  0  0  0  0  0  0  0
    6.3534   10.1617   26.3675 C   0  0  0  0  0  0  0  0  0  0  0  0
    8.1690    9.7373   24.8238 N   0  0  0  0  0  0  0  0  0  0  0  0
    9.9490    9.2498   23.3380 N   0  0  0  0  0  0  0  0  0  0  0  0
   11.1643   12.4049   22.7190 N   0  0  0  0  0  0  0  0  0  0  0  0
    9.6465   11.7917   21.1131 O   0  0  0  0  0  0  0  0  0  0  0  0
    7.0506   14.5192   24.0069 F   0  0  0  0  0  0  0  0  0  0  0  0
    9.1748   14.4720   23.5714 F   0  0  0  0  0  0  0  0  0  0  0  0
    7.7430   13.8566   22.0549 F   0  0  0  0  0  0  0  0  0  0  0  0
    5.4874   11.1215   26.8077 F   0  0  0  0  0  0  0  0  0  0  0  0
    5.5622    9.1210   25.9733 F   0  0  0  0  0  0  0  0  0  0  0  0
    7.0103    9.7224   27.4799 F   0  0  0  0  0  0  0  0  0  0  0  0
    6.4716   12.6374   25.2873 H   0  0  0  0  0  0  0  0  0  0  0  0
   10.5457    9.5388   22.5942 H   0  0  0  0  0  0  0  0  0  0  0  0
    9.9254    8.3076   23.6612 H   0  0  0  0  0  0  0  0  0  0  0  0
   11.3706   12.4795   23.7092 H   0  0  0  0  0  0  0  0  0  0  0  0
   11.8552   12.7127   22.0422 H   0  0  0  0  0  0  0  0  0  0  0  0
  1  3  1  0  0  0  0
  1  4  2  0  0  0  0
  2  3  2  0  0  0  0
  2  5  1  0  0  0  0
  2  6  1  0  0  0  0
  3  7  1  0  0  0  0
  4  8  1  0  0  0  0
  4  9  1  0  0  0  0
  5  9  2  0  0  0  0
  5 10  1  0  0  0  0
  6 11  1  0  0  0  0
  6 12  2  0  0  0  0
  7 13  1  0  0  0  0
  7 14  1  0  0  0  0
  7 15  1  0  0  0  0
  8 16  1  0  0  0  0
  8 17  1  0  0  0  0
  8 18  1  0  0  0  0
  1 19  1  0  0  0  0
 10 20  1  0  0  0  0
 10 21  1  0  0  0  0
 11 22  1  0  0  0  0
 11 23  1  0  0  0  0
M  END
> <id>
EN300-66704

> <smiles>
NC(=O)C=1C(N)=NC(=CC1C(F)(F)F)C(F)(F)F

> <MDLNUMBER>
MFCD13193070

> <IUPAC Name>
2-amino-4,6-bis(trifluoromethyl)pyridine-3-carboxamide

> <CAS>
89990-38-5

> <Purity>
95

> <URL>
https://www.enaminestore.com/catalog/EN300-66704

> <ROCS_ShapeQuery>
_x1140_x0812_0A_x1140_0A_x1097_0A_x0365_0A_x1097_0A_x0310_0A

> <ROCS_TanimotoCombo>
0.621 

> <ROCS_ShapeTanimoto>
0.259 

> <ROCS_ColorTanimoto>
0.362 

> <ROCS_RefTversky>
0.232 

> <ROCS_RefColorTversky>
0.471 

> <ROCS_RefTverskyCombo>
0.703 

> <ROCS_FitTversky>
1.799 

> <ROCS_FitColorTversky>
0.610 

> <ROCS_FitTverskyCombo>
2.409 

> <ROCS_ColorScore>
-3.723

> <ROCS_Overlap>
2383.111

> <ROCS_Rank>
205                 

$$$$
untitled-dbase-358757_0
  -OEChem-02092423213D

 33 34  0     0  0  0  0  0  0999 V2000
    6.6723   12.6911   25.6233 C   0  0  0  0  0  0  0  0  0  0  0  0
    5.7264   12.1085   26.4619 C   0  0  0  0  0  0  0  0  0  0  0  0
    8.5678   12.4524   24.0898 C   0  0  0  0  0  0  0  0  0  0  0  0
    6.6356    9.9344   25.9416 C   0  0  0  0  0  0  0  0  0  0  0  0
    7.6049   11.8922   24.9400 C   0  0  0  0  0  0  0  0  0  0  0  0
    7.5923   10.4903   25.0966 C   0  0  0  0  0  0  0  0  0  0  0  0
    9.4748   11.6364   23.4291 C   0  0  0  0  0  0  0  0  0  0  0  0
    5.7083   10.7284   26.6210 C   0  0  0  0  0  0  0  0  0  0  0  0
    9.3846   10.2763   23.6452 C   0  0  0  0  0  0  0  0  0  0  0  0
   11.8070    9.6486   23.3552 C   0  0  0  0  0  0  0  0  0  0  0  0
   10.2151    9.4477   21.4157 C   0  0  0  0  0  0  0  0  0  0  0  0
   10.1191    7.8239   23.2959 C   0  0  0  0  0  0  0  0  0  0  0  0
   10.3292    9.3379   22.9668 C   0  0  0  0  0  0  0  0  0  0  0  0
    8.4712    9.6960   24.4569 N   0  0  0  0  0  0  0  0  0  0  0  0
   10.7185   13.5446   22.5722 N   0  0  0  0  0  0  0  0  0  0  0  0
   10.4419   12.1947   22.5759 N   0  0  0  0  0  0  0  0  0  0  0  0
    4.8029   10.1579   27.4266 F   0  0  0  0  0  0  0  0  0  0  0  0
    6.6778   13.7725   25.5062 H   0  0  0  0  0  0  0  0  0  0  0  0
    5.0085   12.7283   26.9898 H   0  0  0  0  0  0  0  0  0  0  0  0
    8.6076   13.5307   23.9464 H   0  0  0  0  0  0  0  0  0  0  0  0
    6.6002    8.8557   26.0831 H   0  0  0  0  0  0  0  0  0  0  0  0
   12.5215    8.9733   22.8702 H   0  0  0  0  0  0  0  0  0  0  0  0
   12.0904   10.6690   23.0750 H   0  0  0  0  0  0  0  0  0  0  0  0
   11.9427    9.5554   24.4392 H   0  0  0  0  0  0  0  0  0  0  0  0
   10.9053    8.7621   20.9121 H   0  0  0  0  0  0  0  0  0  0  0  0
    9.2084    9.2150   21.0492 H   0  0  0  0  0  0  0  0  0  0  0  0
   10.4629   10.4640   21.0873 H   0  0  0  0  0  0  0  0  0  0  0  0
   10.8351    7.1767   22.7751 H   0  0  0  0  0  0  0  0  0  0  0  0
   10.2386    7.6370   24.3696 H   0  0  0  0  0  0  0  0  0  0  0  0
    9.1154    7.4957   23.0015 H   0  0  0  0  0  0  0  0  0  0  0  0
   10.7970   13.8547   21.6048 H   0  0  0  0  0  0  0  0  0  0  0  0
   11.6376   13.6882   22.9888 H   0  0  0  0  0  0  0  0  0  0  0  0
   11.0883   11.5704   22.1096 H   0  0  0  0  0  0  0  0  0  0  0  0
  1  2  2  0  0  0  0
  1  5  1  0  0  0  0
  2  8  1  0  0  0  0
  3  5  2  0  0  0  0
  3  7  1  0  0  0  0
  4  6  1  0  0  0  0
  4  8  2  0  0  0  0
  5  6  1  0  0  0  0
  6 14  2  0  0  0  0
  7  9  2  0  0  0  0
  7 16  1  0  0  0  0
  8 17  1  0  0  0  0
  9 13  1  0  0  0  0
  9 14  1  0  0  0  0
 10 13  1  0  0  0  0
 11 13  1  0  0  0  0
 12 13  1  0  0  0  0
 15 16  1  0  0  0  0
  1 18  1  0  0  0  0
  2 19  1  0  0  0  0
  3 20  1  0  0  0  0
  4 21  1  0  0  0  0
 10 22  1  0  0  0  0
 10 23  1  0  0  0  0
 10 24  1  0  0  0  0
 11 25  1  0  0  0  0
 11 26  1  0  0  0  0
 11 27  1  0  0  0  0
 12 28  1  0  0  0  0
 12 29  1  0  0  0  0
 12 30  1  0  0  0  0
 15 31  1  0  0  0  0
 15 32  1  0  0  0  0
 16 33  1  0  0  0  0
M  END
> <id>
EN300-801725

> <smiles>
CC(C)(C)C=1N=C2C=C(F)C=CC2=CC1NN

> <IUPAC Name>
2-tert-butyl-7-fluoro-3-hydrazinylquinoline

> <CAS>
2138380-95-5

> <URL>
https://www.enaminestore.com/catalog/EN300-801725

> <ROCS_ShapeQuery>
_x1140_x0812_0A_x1140_0A_x1097_0A_x0365_0A_x1097_0A_x0310_0A

> <ROCS_TanimotoCombo>
0.621 

> <ROCS_ShapeTanimoto>
0.284 

> <ROCS_ColorTanimoto>
0.336 

> <ROCS_RefTversky>
0.249 

> <ROCS_RefColorTversky>
0.455 

> <ROCS_RefTverskyCombo>
0.704 

> <ROCS_FitTversky>
2.018 

> <ROCS_FitColorTversky>
0.564 

> <ROCS_FitTverskyCombo>
2.582 

> <ROCS_ColorScore>
-3.602

> <ROCS_Overlap>
2552.245

> <ROCS_Rank>
206                 

$$$$
untitled-dbase-395339_2
  -OEChem-02092423213D

 32 33  0     0  0  0  0  0  0999 V2000
    8.5245   10.9106   23.5084 C   0  0  0  0  0  0  0  0  0  0  0  0
    7.2155   10.5606   25.1115 C   0  0  0  0  0  0  0  0  0  0  0  0
    9.4363   10.6576   22.4339 C   0  0  0  0  0  0  0  0  0  0  0  0
    6.2056   12.4393   26.9544 C   0  0  0  0  0  0  0  0  0  0  0  0
    6.6500   12.9506   25.5853 C   0  0  0  0  0  0  0  0  0  0  0  0
    5.5580   11.0562   26.8376 C   0  0  0  0  0  0  0  0  0  0  0  0
   11.7580    9.7820   23.3908 C   0  0  0  0  0  0  0  0  0  0  0  0
   11.0013    7.4334   22.9208 C   0  0  0  0  0  0  0  0  0  0  0  0
   11.7108    8.9215   21.0260 C   0  0  0  0  0  0  0  0  0  0  0  0
   11.0409    8.8678   22.3983 C   0  0  0  0  0  0  0  0  0  0  0  0
    7.9794    9.9065   24.2625 N   0  0  0  0  0  0  0  0  0  0  0  0
    8.1542   12.1517   23.8347 N   0  0  0  0  0  0  0  0  0  0  0  0
    7.3305   11.9005   24.8608 N   0  0  0  0  0  0  0  0  0  0  0  0
    6.4211   10.1310   26.1165 N   0  0  0  0  0  0  0  0  0  0  0  0
    9.9643   11.5331   21.7127 O   0  0  0  0  0  0  0  0  0  0  0  0
    9.6877    9.3150   22.2628 O   0  0  0  0  0  0  0  0  0  0  0  0
    7.0753   12.3713   27.6211 H   0  0  0  0  0  0  0  0  0  0  0  0
    5.5075   13.1491   27.4114 H   0  0  0  0  0  0  0  0  0  0  0  0
    5.7894   13.2490   24.9771 H   0  0  0  0  0  0  0  0  0  0  0  0
    7.3313   13.8010   25.6879 H   0  0  0  0  0  0  0  0  0  0  0  0
    5.3503   10.6569   27.8360 H   0  0  0  0  0  0  0  0  0  0  0  0
    4.6000   11.1357   26.3103 H   0  0  0  0  0  0  0  0  0  0  0  0
   11.7885   10.8125   23.0194 H   0  0  0  0  0  0  0  0  0  0  0  0
   11.2666    9.7794   24.3692 H   0  0  0  0  0  0  0  0  0  0  0  0
   12.8002    9.4711   23.5261 H   0  0  0  0  0  0  0  0  0  0  0  0
   10.4877    6.7740   22.2119 H   0  0  0  0  0  0  0  0  0  0  0  0
   10.4387    7.3753   23.8596 H   0  0  0  0  0  0  0  0  0  0  0  0
   12.0076    7.0388   23.0948 H   0  0  0  0  0  0  0  0  0  0  0  0
   11.1967    8.2659   20.3140 H   0  0  0  0  0  0  0  0  0  0  0  0
   11.7153    9.9378   20.6189 H   0  0  0  0  0  0  0  0  0  0  0  0
   12.7456    8.5647   21.0833 H   0  0  0  0  0  0  0  0  0  0  0  0
    6.3193    9.1412   26.3199 H   0  0  0  0  0  0  0  0  0  0  0  0
  1  3  1  0  0  0  0
  1 11  1  0  0  0  0
  1 12  2  0  0  0  0
  2 11  2  0  0  0  0
  2 13  1  0  0  0  0
  2 14  1  0  0  0  0
  3 15  2  0  0  0  0
  3 16  1  0  0  0  0
  4  5  1  0  0  0  0
  4  6  1  0  0  0  0
  5 13  1  0  0  0  0
  6 14  1  0  0  0  0
  7 10  1  0  0  0  0
  8 10  1  0  0  0  0
  9 10  1  0  0  0  0
 10 16  1  0  0  0  0
 12 13  1  0  0  0  0
  4 17  1  0  0  0  0
  4 18  1  0  0  0  0
  5 19  1  0  0  0  0
  5 20  1  0  0  0  0
  6 21  1  0  0  0  0
  6 22  1  0  0  0  0
  7 23  1  0  0  0  0
  7 24  1  0  0  0  0
  7 25  1  0  0  0  0
  8 26  1  0  0  0  0
  8 27  1  0  0  0  0
  8 28  1  0  0  0  0
  9 29  1  0  0  0  0
  9 30  1  0  0  0  0
  9 31  1  0  0  0  0
 14 32  1  0  0  0  0
M  END
> <id>
EN300-259484

> <smiles>
CC(C)(C)OC(=O)C=1N=C2NCCCN2N1

> <IUPAC Name>
tert-butyl 4H,5H,6H,7H-[1,2,4]triazolo[1,5-a]pyrimidine-2-carboxylate

> <CAS>
2092826-58-7

> <URL>
https://www.enaminestore.com/catalog/EN300-259484

> <ROCS_ShapeQuery>
_x1140_x0812_0A_x1140_0A_x1097_0A_x0365_0A_x1097_0A_x0310_0A

> <ROCS_TanimotoCombo>
0.621 

> <ROCS_ShapeTanimoto>
0.240 

> <ROCS_ColorTanimoto>
0.380 

> <ROCS_RefTversky>
0.217 

> <ROCS_RefColorTversky>
0.521 

> <ROCS_RefTverskyCombo>
0.738 

> <ROCS_FitTversky>
1.808 

> <ROCS_FitColorTversky>
0.585 

> <ROCS_FitTverskyCombo>
2.393 

> <ROCS_ColorScore>
-4.144

> <ROCS_Overlap>
2227.225

> <ROCS_Rank>
207                 

$$$$
untitled-dbase-82717_0
  -OEChem-02092423213D

 23 25  0     0  0  0  0  0  0999 V2000
    7.6162   12.1621   25.1306 C   0  0  0  0  0  0  0  0  0  0  0  0
    8.6024   12.6182   24.2658 C   0  0  0  0  0  0  0  0  0  0  0  0
    7.4560   10.7967   25.2599 C   0  0  0  0  0  0  0  0  0  0  0  0
    9.3920   11.7117   23.5517 C   0  0  0  0  0  0  0  0  0  0  0  0
    9.1727   10.3405   23.7705 C   0  0  0  0  0  0  0  0  0  0  0  0
   12.5512    9.5074   22.8433 C   0  0  0  0  0  0  0  0  0  0  0  0
   12.0089    8.8819   21.5942 C   0  0  0  0  0  0  0  0  0  0  0  0
   10.9787   11.2454   21.7350 C   0  0  0  0  0  0  0  0  0  0  0  0
   11.1665    9.8802   22.3568 C   0  0  0  0  0  0  0  0  0  0  0  0
    8.2059    9.8828   24.6060 N   0  0  0  0  0  0  0  0  0  0  0  0
   10.3804   12.1652   22.6869 N   0  0  0  0  0  0  0  0  0  0  0  0
    9.9963    9.4100   23.1098 N   0  0  0  0  0  0  0  0  0  0  0  0
    6.9925   12.8554   25.6829 H   0  0  0  0  0  0  0  0  0  0  0  0
    8.7469   13.6890   24.1437 H   0  0  0  0  0  0  0  0  0  0  0  0
    6.6979   10.3853   25.9182 H   0  0  0  0  0  0  0  0  0  0  0  0
   12.6345    8.8809   23.7237 H   0  0  0  0  0  0  0  0  0  0  0  0
   13.3521   10.2295   22.7395 H   0  0  0  0  0  0  0  0  0  0  0  0
   12.4437    9.1857   20.6494 H   0  0  0  0  0  0  0  0  0  0  0  0
   11.7303    7.8356   21.6359 H   0  0  0  0  0  0  0  0  0  0  0  0
   11.9276   11.6642   21.3812 H   0  0  0  0  0  0  0  0  0  0  0  0
   10.3208   11.1560   20.8618 H   0  0  0  0  0  0  0  0  0  0  0  0
   10.4699   13.1617   22.5267 H   0  0  0  0  0  0  0  0  0  0  0  0
    9.8287    8.4298   23.3033 H   0  0  0  0  0  0  0  0  0  0  0  0
  1  2  2  0  0  0  0
  1  3  1  0  0  0  0
  2  4  1  0  0  0  0
  3 10  2  0  0  0  0
  4  5  2  0  0  0  0
  4 11  1  0  0  0  0
  5 10  1  0  0  0  0
  5 12  1  0  0  0  0
  6  7  1  0  0  0  0
  6  9  1  0  0  0  0
  7  9  1  0  0  0  0
  8  9  1  0  0  0  0
  8 11  1  0  0  0  0
  9 12  1  0  0  0  0
  1 13  1  0  0  0  0
  2 14  1  0  0  0  0
  3 15  1  0  0  0  0
  6 16  1  0  0  0  0
  6 17  1  0  0  0  0
  7 18  1  0  0  0  0
  7 19  1  0  0  0  0
  8 20  1  0  0  0  0
  8 21  1  0  0  0  0
 11 22  1  0  0  0  0
 12 23  1  0  0  0  0
M  END
> <id>
EN300-643528

> <smiles>
C1CC12CNC=3C=CC=NC3N2

> <MDLNUMBER>
MFCD23851639

> <IUPAC Name>
2',4'-dihydro-1'H-spiro[cyclopropane-1,3'-pyrido[2,3-b]pyrazine]

> <CAS>
1537502-07-0

> <URL>
https://www.enaminestore.com/catalog/EN300-643528

> <ROCS_ShapeQuery>
_x1140_x0812_0A_x1140_0A_x1097_0A_x0365_0A_x1097_0A_x0310_0A

> <ROCS_TanimotoCombo>
0.621 

> <ROCS_ShapeTanimoto>
0.211 

> <ROCS_ColorTanimoto>
0.410 

> <ROCS_RefTversky>
0.192 

> <ROCS_RefColorTversky>
0.482 

> <ROCS_RefTverskyCombo>
0.674 

> <ROCS_FitTversky>
1.858 

> <ROCS_FitColorTversky>
0.734 

> <ROCS_FitTverskyCombo>
2.591 

> <ROCS_ColorScore>
-3.782

> <ROCS_Overlap>
1969.028

> <ROCS_Rank>
208                 

$$$$
untitled-dbase-305144_1
  -OEChem-02092423213D

 27 27  0     0  0  0  0  0  0999 V2000
    8.3936   12.3374   24.1862 C   0  0  0  0  0  0  0  0  0  0  0  0
    9.1916   11.4630   23.4770 C   0  0  0  0  0  0  0  0  0  0  0  0
    8.9551   10.1223   23.7022 C   0  0  0  0  0  0  0  0  0  0  0  0
    7.3018   10.6110   25.1836 C   0  0  0  0  0  0  0  0  0  0  0  0
   10.2068   11.9525   22.5604 C   0  0  0  0  0  0  0  0  0  0  0  0
   13.1023   14.0970   23.2843 C   0  0  0  0  0  0  0  0  0  0  0  0
    5.4758   11.0559   26.8249 C   0  0  0  0  0  0  0  0  0  0  0  0
    9.7573    9.0822   22.9913 C   0  0  0  0  0  0  0  0  0  0  0  0
   12.1882   13.2743   22.4015 C   0  0  0  0  0  0  0  0  0  0  0  0
    7.4355   11.9445   25.0511 N   0  0  0  0  0  0  0  0  0  0  0  0
    8.0149    9.6592   24.5518 N   0  0  0  0  0  0  0  0  0  0  0  0
    6.3084   10.1630   26.0816 N   0  0  0  0  0  0  0  0  0  0  0  0
   10.2364   11.7025   21.3472 O   0  0  0  0  0  0  0  0  0  0  0  0
   11.1332   12.7299   23.2016 O   0  0  0  0  0  0  0  0  0  0  0  0
   11.3870    8.9622   23.6900 Cl  0  0  0  0  0  0  0  0  0  0  0  0
    8.4989   13.4130   24.0820 H   0  0  0  0  0  0  0  0  0  0  0  0
   12.5562   14.9221   23.7499 H   0  0  0  0  0  0  0  0  0  0  0  0
   13.5415   13.4751   24.0712 H   0  0  0  0  0  0  0  0  0  0  0  0
   13.9338   14.5078   22.7020 H   0  0  0  0  0  0  0  0  0  0  0  0
    5.7393   12.0949   26.5779 H   0  0  0  0  0  0  0  0  0  0  0  0
    4.4219   10.8739   26.5677 H   0  0  0  0  0  0  0  0  0  0  0  0
    5.6253   10.8858   27.9013 H   0  0  0  0  0  0  0  0  0  0  0  0
    9.8612    9.3169   21.9244 H   0  0  0  0  0  0  0  0  0  0  0  0
    9.2839    8.0947   23.0608 H   0  0  0  0  0  0  0  0  0  0  0  0
   12.7406   12.4509   21.9389 H   0  0  0  0  0  0  0  0  0  0  0  0
   11.7497   13.8974   21.6164 H   0  0  0  0  0  0  0  0  0  0  0  0
    6.2046    9.1719   26.1841 H   0  0  0  0  0  0  0  0  0  0  0  0
  1  2  1  0  0  0  0
  1 10  2  0  0  0  0
  2  3  2  0  0  0  0
  2  5  1  0  0  0  0
  3  8  1  0  0  0  0
  3 11  1  0  0  0  0
  4 10  1  0  0  0  0
  4 11  2  0  0  0  0
  4 12  1  0  0  0  0
  5 13  2  0  0  0  0
  5 14  1  0  0  0  0
  6  9  1  0  0  0  0
  7 12  1  0  0  0  0
  8 15  1  0  0  0  0
  9 14  1  0  0  0  0
  1 16  1  0  0  0  0
  6 17  1  0  0  0  0
  6 18  1  0  0  0  0
  6 19  1  0  0  0  0
  7 20  1  0  0  0  0
  7 21  1  0  0  0  0
  7 22  1  0  0  0  0
  8 23  1  0  0  0  0
  8 24  1  0  0  0  0
  9 25  1  0  0  0  0
  9 26  1  0  0  0  0
 12 27  1  0  0  0  0
M  END
> <id>
EN300-4478273

> <smiles>
CCOC(=O)C=1C=NC(NC)=NC1CCl

> <MDLNUMBER>
MFCD31794961

> <IUPAC Name>
ethyl 4-(chloromethyl)-2-(methylamino)pyrimidine-5-carboxylate

> <CAS>
1598311-69-3

> <Purity>
95

> <URL>
https://www.enaminestore.com/catalog/EN300-4478273

> <ROCS_ShapeQuery>
_x1140_x0812_0A_x1140_0A_x1097_0A_x0365_0A_x1097_0A_x0310_0A

> <ROCS_TanimotoCombo>
0.621 

> <ROCS_ShapeTanimoto>
0.261 

> <ROCS_ColorTanimoto>
0.360 

> <ROCS_RefTversky>
0.230 

> <ROCS_RefColorTversky>
0.438 

> <ROCS_RefTverskyCombo>
0.669 

> <ROCS_FitTversky>
2.050 

> <ROCS_FitColorTversky>
0.667 

> <ROCS_FitTverskyCombo>
2.718 

> <ROCS_ColorScore>
-3.440

> <ROCS_Overlap>
2362.194

> <ROCS_Rank>
209                 

$$$$
untitled-dbase-347378_7
  -OEChem-02092423213D

 24 24  0     0  0  0  0  0  0999 V2000
    8.8992   12.5202   24.5951 C   0  0  0  0  0  0  0  0  0  0  0  0
    7.8636   10.5001   25.3045 C   0  0  0  0  0  0  0  0  0  0  0  0
    9.4515   11.8255   23.5247 C   0  0  0  0  0  0  0  0  0  0  0  0
    8.0890   11.8522   25.5065 C   0  0  0  0  0  0  0  0  0  0  0  0
    9.1652   10.4745   23.4115 C   0  0  0  0  0  0  0  0  0  0  0  0
   11.0768   13.5850   22.8727 C   0  0  0  0  0  0  0  0  0  0  0  0
   10.9055    8.8068   22.7214 C   0  0  0  0  0  0  0  0  0  0  0  0
    9.7295    9.6738   22.2831 C   0  0  0  0  0  0  0  0  0  0  0  0
   11.8208   14.0457   21.6407 C   0  0  0  0  0  0  0  0  0  0  0  0
    8.3826    9.7915   24.2768 N   0  0  0  0  0  0  0  0  0  0  0  0
   10.2654   12.4879   22.6058 N   0  0  0  0  0  0  0  0  0  0  0  0
   11.2166   14.1810   23.9373 O   0  0  0  0  0  0  0  0  0  0  0  0
    7.5446   12.4951   26.5453 F   0  0  0  0  0  0  0  0  0  0  0  0
   10.8139   15.2494   20.8204 Cl  0  0  0  0  0  0  0  0  0  0  0  0
    9.0931   13.5812   24.7289 H   0  0  0  0  0  0  0  0  0  0  0  0
    7.2384    9.9338   25.9869 H   0  0  0  0  0  0  0  0  0  0  0  0
   11.7008    9.4163   23.1637 H   0  0  0  0  0  0  0  0  0  0  0  0
   11.3269    8.2678   21.8670 H   0  0  0  0  0  0  0  0  0  0  0  0
   10.5936    8.0684   23.4678 H   0  0  0  0  0  0  0  0  0  0  0  0
    8.9503    9.0318   21.8442 H   0  0  0  0  0  0  0  0  0  0  0  0
   10.0543   10.3394   21.4685 H   0  0  0  0  0  0  0  0  0  0  0  0
   12.0334   13.2302   20.9448 H   0  0  0  0  0  0  0  0  0  0  0  0
   12.7644   14.5117   21.9382 H   0  0  0  0  0  0  0  0  0  0  0  0
   10.2653   12.1351   21.6504 H   0  0  0  0  0  0  0  0  0  0  0  0
  1  3  1  0  0  0  0
  1  4  2  0  0  0  0
  2  4  1  0  0  0  0
  2 10  2  0  0  0  0
  3  5  2  0  0  0  0
  3 11  1  0  0  0  0
  4 13  1  0  0  0  0
  5  8  1  0  0  0  0
  5 10  1  0  0  0  0
  6  9  1  0  0  0  0
  6 11  1  0  0  0  0
  6 12  2  0  0  0  0
  7  8  1  0  0  0  0
  9 14  1  0  0  0  0
  1 15  1  0  0  0  0
  2 16  1  0  0  0  0
  7 17  1  0  0  0  0
  7 18  1  0  0  0  0
  7 19  1  0  0  0  0
  8 20  1  0  0  0  0
  8 21  1  0  0  0  0
  9 22  1  0  0  0  0
  9 23  1  0  0  0  0
 11 24  1  0  0  0  0
M  END
> <id>
EN300-26583095

> <smiles>
CCC=1N=CC(F)=CC1NC(=O)CCl

> <IUPAC Name>
2-chloro-N-(2-ethyl-5-fluoropyridin-3-yl)acetamide

> <CAS>
2411315-50-7

> <URL>
https://www.enaminestore.com/catalog/EN300-26583095

> <ROCS_ShapeQuery>
_x1140_x0812_0A_x1140_0A_x1097_0A_x0365_0A_x1097_0A_x0310_0A

> <ROCS_TanimotoCombo>
0.621 

> <ROCS_ShapeTanimoto>
0.230 

> <ROCS_ColorTanimoto>
0.391 

> <ROCS_RefTversky>
0.207 

> <ROCS_RefColorTversky>
0.465 

> <ROCS_RefTverskyCombo>
0.673 

> <ROCS_FitTversky>
1.920 

> <ROCS_FitColorTversky>
0.709 

> <ROCS_FitTverskyCombo>
2.629 

> <ROCS_ColorScore>
-3.652

> <ROCS_Overlap>
2125.299

> <ROCS_Rank>
210                 

$$$$
untitled-dbase-87616_7
  -OEChem-02092423213D

 31 32  0     0  0  0  0  0  0999 V2000
    8.3378   12.4133   24.2730 C   0  0  0  0  0  0  0  0  0  0  0  0
    9.0674   11.5915   23.4384 C   0  0  0  0  0  0  0  0  0  0  0  0
    8.8319   10.2389   23.5773 C   0  0  0  0  0  0  0  0  0  0  0  0
    7.3045   10.6219   25.2166 C   0  0  0  0  0  0  0  0  0  0  0  0
   10.0138   12.1480   22.4864 C   0  0  0  0  0  0  0  0  0  0  0  0
    9.7652    7.8563   23.2223 C   0  0  0  0  0  0  0  0  0  0  0  0
   10.9316    8.7920   23.1573 C   0  0  0  0  0  0  0  0  0  0  0  0
    9.5702    9.2615   22.7210 C   0  0  0  0  0  0  0  0  0  0  0  0
   11.9775   15.2426   22.7539 C   0  0  0  0  0  0  0  0  0  0  0  0
    5.6156   10.9498   27.0238 C   0  0  0  0  0  0  0  0  0  0  0  0
   11.5012   13.9709   22.0849 C   0  0  0  0  0  0  0  0  0  0  0  0
    7.4445   11.9606   25.1772 N   0  0  0  0  0  0  0  0  0  0  0  0
    7.9544    9.7174   24.4595 N   0  0  0  0  0  0  0  0  0  0  0  0
    6.3774   10.1120   26.1515 N   0  0  0  0  0  0  0  0  0  0  0  0
   10.3017   11.6294   21.3988 O   0  0  0  0  0  0  0  0  0  0  0  0
   10.5519   13.3225   22.9382 O   0  0  0  0  0  0  0  0  0  0  0  0
    8.4480   13.4930   24.2441 H   0  0  0  0  0  0  0  0  0  0  0  0
    9.7183    7.0574   22.4915 H   0  0  0  0  0  0  0  0  0  0  0  0
    9.3916    7.5853   24.2023 H   0  0  0  0  0  0  0  0  0  0  0  0
   11.3407    9.1516   24.0941 H   0  0  0  0  0  0  0  0  0  0  0  0
   11.6718    8.6237   22.3841 H   0  0  0  0  0  0  0  0  0  0  0  0
    9.4171    9.3797   21.6574 H   0  0  0  0  0  0  0  0  0  0  0  0
   11.1429   15.9267   22.9306 H   0  0  0  0  0  0  0  0  0  0  0  0
   12.4594   15.0182   23.7111 H   0  0  0  0  0  0  0  0  0  0  0  0
   12.7239   15.7490   22.1329 H   0  0  0  0  0  0  0  0  0  0  0  0
    5.8724   12.0031   26.8380 H   0  0  0  0  0  0  0  0  0  0  0  0
    4.5429   10.7954   26.8358 H   0  0  0  0  0  0  0  0  0  0  0  0
    5.8451   10.6954   28.0691 H   0  0  0  0  0  0  0  0  0  0  0  0
   12.3407   13.2912   21.9111 H   0  0  0  0  0  0  0  0  0  0  0  0
   11.0193   14.1971   21.1291 H   0  0  0  0  0  0  0  0  0  0  0  0
    6.2691    9.1166   26.1852 H   0  0  0  0  0  0  0  0  0  0  0  0
  1  2  1  0  0  0  0
  1 12  2  0  0  0  0
  2  3  2  0  0  0  0
  2  5  1  0  0  0  0
  3  8  1  0  0  0  0
  3 13  1  0  0  0  0
  4 12  1  0  0  0  0
  4 13  2  0  0  0  0
  4 14  1  0  0  0  0
  5 15  2  0  0  0  0
  5 16  1  0  0  0  0
  6  7  1  0  0  0  0
  6  8  1  0  0  0  0
  7  8  1  0  0  0  0
  9 11  1  0  0  0  0
 10 14  1  0  0  0  0
 11 16  1  0  0  0  0
  1 17  1  0  0  0  0
  6 18  1  0  0  0  0
  6 19  1  0  0  0  0
  7 20  1  0  0  0  0
  7 21  1  0  0  0  0
  8 22  1  0  0  0  0
  9 23  1  0  0  0  0
  9 24  1  0  0  0  0
  9 25  1  0  0  0  0
 10 26  1  0  0  0  0
 10 27  1  0  0  0  0
 10 28  1  0  0  0  0
 11 29  1  0  0  0  0
 11 30  1  0  0  0  0
 14 31  1  0  0  0  0
M  END
> <id>
EN300-685406

> <smiles>
CCOC(=O)C=1C=NC(NC)=NC1C2CC2

> <MDLNUMBER>
MFCD31428040

> <IUPAC Name>
ethyl 4-cyclopropyl-2-(methylamino)pyrimidine-5-carboxylate

> <CAS>
1602046-22-9

> <URL>
https://www.enaminestore.com/catalog/EN300-685406

> <ROCS_ShapeQuery>
_x1140_x0812_0A_x1140_0A_x1097_0A_x0365_0A_x1097_0A_x0310_0A

> <ROCS_TanimotoCombo>
0.621 

> <ROCS_ShapeTanimoto>
0.269 

> <ROCS_ColorTanimoto>
0.352 

> <ROCS_RefTversky>
0.237 

> <ROCS_RefColorTversky>
0.431 

> <ROCS_RefTverskyCombo>
0.668 

> <ROCS_FitTversky>
2.006 

> <ROCS_FitColorTversky>
0.656 

> <ROCS_FitTverskyCombo>
2.662 

> <ROCS_ColorScore>
-3.384

> <ROCS_Overlap>
2430.979

> <ROCS_Rank>
211                 

$$$$
untitled-dbase-426810_6
  -OEChem-02092423213D

 26 26  0     0  0  0  0  0  0999 V2000
    8.8257   12.5909   24.4204 C   0  0  0  0  0  0  0  0  0  0  0  0
    7.9890   12.0725   25.4025 C   0  0  0  0  0  0  0  0  0  0  0  0
    9.3588   11.7468   23.4526 C   0  0  0  0  0  0  0  0  0  0  0  0
    7.7185   10.7139   25.3730 C   0  0  0  0  0  0  0  0  0  0  0  0
    9.0271   10.4028   23.5105 C   0  0  0  0  0  0  0  0  0  0  0  0
    6.8244   10.1234   26.4117 C   0  0  0  0  0  0  0  0  0  0  0  0
   10.8151    7.5342   22.2506 C   0  0  0  0  0  0  0  0  0  0  0  0
   11.9112    9.7991   22.3928 C   0  0  0  0  0  0  0  0  0  0  0  0
   10.7747    8.9160   22.8850 C   0  0  0  0  0  0  0  0  0  0  0  0
    8.2178    9.8627   24.4490 N   0  0  0  0  0  0  0  0  0  0  0  0
   10.2063   12.2577   22.4536 N   0  0  0  0  0  0  0  0  0  0  0  0
    9.5307    9.5373   22.5766 O   0  0  0  0  0  0  0  0  0  0  0  0
    9.0554   13.6532   24.4187 H   0  0  0  0  0  0  0  0  0  0  0  0
    7.5666   12.7202   26.1631 H   0  0  0  0  0  0  0  0  0  0  0  0
    5.7811   10.1480   26.0750 H   0  0  0  0  0  0  0  0  0  0  0  0
    7.0972    9.0823   26.6258 H   0  0  0  0  0  0  0  0  0  0  0  0
    6.8982   10.6730   27.3588 H   0  0  0  0  0  0  0  0  0  0  0  0
   10.7594    7.5964   21.1595 H   0  0  0  0  0  0  0  0  0  0  0  0
   11.7402    7.0159   22.5248 H   0  0  0  0  0  0  0  0  0  0  0  0
    9.9880    6.9113   22.6088 H   0  0  0  0  0  0  0  0  0  0  0  0
   11.8817    9.9153   21.3052 H   0  0  0  0  0  0  0  0  0  0  0  0
   12.8781    9.3672   22.6726 H   0  0  0  0  0  0  0  0  0  0  0  0
   11.8658   10.7926   22.8526 H   0  0  0  0  0  0  0  0  0  0  0  0
   10.8321    8.8198   23.9742 H   0  0  0  0  0  0  0  0  0  0  0  0
   10.3854   13.2430   22.4166 H   0  0  0  0  0  0  0  0  0  0  0  0
   10.5448   11.6461   21.7356 H   0  0  0  0  0  0  0  0  0  0  0  0
  1  2  2  0  0  0  0
  1  3  1  0  0  0  0
  2  4  1  0  0  0  0
  3  5  2  0  0  0  0
  3 11  1  0  0  0  0
  4  6  1  0  0  0  0
  4 10  2  0  0  0  0
  5 10  1  0  0  0  0
  5 12  1  0  0  0  0
  7  9  1  0  0  0  0
  8  9  1  0  0  0  0
  9 12  1  0  0  0  0
  1 13  1  0  0  0  0
  2 14  1  0  0  0  0
  6 15  1  0  0  0  0
  6 16  1  0  0  0  0
  6 17  1  0  0  0  0
  7 18  1  0  0  0  0
  7 19  1  0  0  0  0
  7 20  1  0  0  0  0
  8 21  1  0  0  0  0
  8 22  1  0  0  0  0
  8 23  1  0  0  0  0
  9 24  1  0  0  0  0
 11 25  1  0  0  0  0
 11 26  1  0  0  0  0
M  END
> <id>
EN300-1295111

> <smiles>
CC(C)OC=1N=C(C)C=CC1N

> <MDLNUMBER>
MFCD24054466

> <IUPAC Name>
6-methyl-2-(propan-2-yloxy)pyridin-3-amine

> <CAS>
1509685-73-7

> <URL>
https://www.enaminestore.com/catalog/EN300-1295111

> <ROCS_ShapeQuery>
_x1140_x0812_0A_x1140_0A_x1097_0A_x0365_0A_x1097_0A_x0310_0A

> <ROCS_TanimotoCombo>
0.621 

> <ROCS_ShapeTanimoto>
0.215 

> <ROCS_ColorTanimoto>
0.406 

> <ROCS_RefTversky>
0.195 

> <ROCS_RefColorTversky>
0.512 

> <ROCS_RefTverskyCombo>
0.707 

> <ROCS_FitTversky>
1.938 

> <ROCS_FitColorTversky>
0.662 

> <ROCS_FitTverskyCombo>
2.600 

> <ROCS_ColorScore>
-4.042

> <ROCS_Overlap>
1996.967

> <ROCS_Rank>
212                 

$$$$
untitled-dbase-502232_3
  -OEChem-02092423213D

 32 33  0     0  0  0  0  0  0999 V2000
    8.4929   13.5548   23.4644 C   0  0  0  0  0  0  0  0  0  0  0  0
    7.9048   14.6285   24.1419 C   0  0  0  0  0  0  0  0  0  0  0  0
    6.7484   13.1214   25.6497 C   0  0  0  0  0  0  0  0  0  0  0  0
    7.3317   12.0320   24.9793 C   0  0  0  0  0  0  0  0  0  0  0  0
    8.1894   12.2572   23.9037 C   0  0  0  0  0  0  0  0  0  0  0  0
    7.0457   14.4174   25.2177 C   0  0  0  0  0  0  0  0  0  0  0  0
    7.2837   10.6331   25.1081 C   0  0  0  0  0  0  0  0  0  0  0  0
    9.4482   10.6760   22.4180 C   0  0  0  0  0  0  0  0  0  0  0  0
   11.4216    9.2393   23.8620 C   0  0  0  0  0  0  0  0  0  0  0  0
   10.8636    7.3156   22.3464 C   0  0  0  0  0  0  0  0  0  0  0  0
   11.7886    9.4414   21.3803 C   0  0  0  0  0  0  0  0  0  0  0  0
   10.9148    8.8362   22.4780 C   0  0  0  0  0  0  0  0  0  0  0  0
    8.0346   10.0034   24.2076 N   0  0  0  0  0  0  0  0  0  0  0  0
    8.5882   10.9995   23.4706 N   0  0  0  0  0  0  0  0  0  0  0  0
    6.5350   10.0275   26.0673 N   0  0  0  0  0  0  0  0  0  0  0  0
    9.9645   11.5438   21.7334 O   0  0  0  0  0  0  0  0  0  0  0  0
    9.5805    9.3275   22.3208 O   0  0  0  0  0  0  0  0  0  0  0  0
    6.4980   15.4667   25.8461 F   0  0  0  0  0  0  0  0  0  0  0  0
    9.1590   13.7394   22.6293 H   0  0  0  0  0  0  0  0  0  0  0  0
    8.1228   15.6443   23.8220 H   0  0  0  0  0  0  0  0  0  0  0  0
    6.0771   12.9708   26.4900 H   0  0  0  0  0  0  0  0  0  0  0  0
   11.4598   10.3301   23.9605 H   0  0  0  0  0  0  0  0  0  0  0  0
   10.7833    8.8406   24.6572 H   0  0  0  0  0  0  0  0  0  0  0  0
   12.4435    8.8783   24.0247 H   0  0  0  0  0  0  0  0  0  0  0  0
   10.5006    7.0218   21.3549 H   0  0  0  0  0  0  0  0  0  0  0  0
   10.1639    6.8844   23.0716 H   0  0  0  0  0  0  0  0  0  0  0  0
   11.8481    6.8631   22.5033 H   0  0  0  0  0  0  0  0  0  0  0  0
   11.4253    9.1523   20.3874 H   0  0  0  0  0  0  0  0  0  0  0  0
   11.8074   10.5346   21.4366 H   0  0  0  0  0  0  0  0  0  0  0  0
   12.8176    9.0711   21.4528 H   0  0  0  0  0  0  0  0  0  0  0  0
    6.0125   10.5686   26.7650 H   0  0  0  0  0  0  0  0  0  0  0  0
    6.5379    9.0089   26.1901 H   0  0  0  0  0  0  0  0  0  0  0  0
  1  2  2  0  0  0  0
  1  5  1  0  0  0  0
  2  6  1  0  0  0  0
  3  4  1  0  0  0  0
  3  6  2  0  0  0  0
  4  5  2  0  0  0  0
  4  7  1  0  0  0  0
  5 14  1  0  0  0  0
  6 18  1  0  0  0  0
  7 13  2  0  0  0  0
  7 15  1  0  0  0  0
  8 14  1  0  0  0  0
  8 16  2  0  0  0  0
  8 17  1  0  0  0  0
  9 12  1  0  0  0  0
 10 12  1  0  0  0  0
 11 12  1  0  0  0  0
 12 17  1  0  0  0  0
 13 14  1  0  0  0  0
  1 19  1  0  0  0  0
  2 20  1  0  0  0  0
  3 21  1  0  0  0  0
  9 22  1  0  0  0  0
  9 23  1  0  0  0  0
  9 24  1  0  0  0  0
 10 25  1  0  0  0  0
 10 26  1  0  0  0  0
 10 27  1  0  0  0  0
 11 28  1  0  0  0  0
 11 29  1  0  0  0  0
 11 30  1  0  0  0  0
 15 31  1  0  0  0  0
 15 32  1  0  0  0  0
M  END
> <id>
EN300-22173605

> <smiles>
CC(C)(C)OC(=O)N1N=C(N)C=2C=C(F)C=CC12

> <MDLNUMBER>
MFCD30534466

> <IUPAC Name>
tert-butyl 3-amino-5-fluoro-1H-indazole-1-carboxylate

> <CAS>
1426854-74-1

> <URL>
https://www.enaminestore.com/catalog/EN300-22173605

> <ROCS_ShapeQuery>
_x1140_x0812_0A_x1140_0A_x1097_0A_x0365_0A_x1097_0A_x0310_0A

> <ROCS_TanimotoCombo>
0.621 

> <ROCS_ShapeTanimoto>
0.240 

> <ROCS_ColorTanimoto>
0.381 

> <ROCS_RefTversky>
0.218 

> <ROCS_RefColorTversky>
0.521 

> <ROCS_RefTverskyCombo>
0.740 

> <ROCS_FitTversky>
1.690 

> <ROCS_FitColorTversky>
0.586 

> <ROCS_FitTverskyCombo>
2.276 

> <ROCS_ColorScore>
-4.143

> <ROCS_Overlap>
2241.934

> <ROCS_Rank>
213                 

$$$$
untitled-dbase-489932_0
  -OEChem-02092423213D

 27 27  0     0  0  0  0  0  0999 V2000
    8.5574   12.6022   24.0582 C   0  0  0  0  0  0  0  0  0  0  0  0
    7.6141   12.1955   24.9952 C   0  0  0  0  0  0  0  0  0  0  0  0
    9.3460   11.6534   23.4170 C   0  0  0  0  0  0  0  0  0  0  0  0
    7.4994   10.8391   25.2534 C   0  0  0  0  0  0  0  0  0  0  0  0
    9.1540   10.3213   23.7460 C   0  0  0  0  0  0  0  0  0  0  0  0
    6.5304   10.3580   26.2229 C   0  0  0  0  0  0  0  0  0  0  0  0
    5.8436    6.8964   27.2490 C   0  0  0  0  0  0  0  0  0  0  0  0
    9.8355    7.9513   23.3660 C   0  0  0  0  0  0  0  0  0  0  0  0
    5.6527    8.3981   27.2655 C   0  0  0  0  0  0  0  0  0  0  0  0
    8.2477    9.8880   24.6508 N   0  0  0  0  0  0  0  0  0  0  0  0
   10.3015   12.0631   22.4682 N   0  0  0  0  0  0  0  0  0  0  0  0
    9.9539    9.3469   23.0972 N   0  0  0  0  0  0  0  0  0  0  0  0
    5.7628   11.0855   26.8685 O   0  0  0  0  0  0  0  0  0  0  0  0
    6.5659    8.9944   26.3381 O   0  0  0  0  0  0  0  0  0  0  0  0
    8.6690   13.6602   23.8358 H   0  0  0  0  0  0  0  0  0  0  0  0
    6.9930   12.9265   25.5020 H   0  0  0  0  0  0  0  0  0  0  0  0
    5.6459    6.4889   26.2537 H   0  0  0  0  0  0  0  0  0  0  0  0
    6.8655    6.6339   27.5420 H   0  0  0  0  0  0  0  0  0  0  0  0
    5.1727    6.4143   27.9678 H   0  0  0  0  0  0  0  0  0  0  0  0
    9.0540    7.7881   24.1227 H   0  0  0  0  0  0  0  0  0  0  0  0
    9.5660    7.4214   22.4405 H   0  0  0  0  0  0  0  0  0  0  0  0
   10.7955    7.5677   23.7419 H   0  0  0  0  0  0  0  0  0  0  0  0
    5.8520    8.7993   28.2637 H   0  0  0  0  0  0  0  0  0  0  0  0
    4.6316    8.6586   26.9718 H   0  0  0  0  0  0  0  0  0  0  0  0
   10.3713   13.0331   22.2292 H   0  0  0  0  0  0  0  0  0  0  0  0
   10.8326   11.3710   21.9765 H   0  0  0  0  0  0  0  0  0  0  0  0
   10.6182    9.6849   22.4317 H   0  0  0  0  0  0  0  0  0  0  0  0
  1  2  2  0  0  0  0
  1  3  1  0  0  0  0
  2  4  1  0  0  0  0
  3  5  2  0  0  0  0
  3 11  1  0  0  0  0
  4  6  1  0  0  0  0
  4 10  2  0  0  0  0
  5 10  1  0  0  0  0
  5 12  1  0  0  0  0
  6 13  2  0  0  0  0
  6 14  1  0  0  0  0
  7  9  1  0  0  0  0
  8 12  1  0  0  0  0
  9 14  1  0  0  0  0
  1 15  1  0  0  0  0
  2 16  1  0  0  0  0
  7 17  1  0  0  0  0
  7 18  1  0  0  0  0
  7 19  1  0  0  0  0
  8 20  1  0  0  0  0
  8 21  1  0  0  0  0
  8 22  1  0  0  0  0
  9 23  1  0  0  0  0
  9 24  1  0  0  0  0
 11 25  1  0  0  0  0
 11 26  1  0  0  0  0
 12 27  1  0  0  0  0
M  END
> <id>
EN300-27782356

> <smiles>
CCOC(=O)C=1C=CC(N)=C(NC)N1

> <IUPAC Name>
ethyl 5-amino-6-(methylamino)pyridine-2-carboxylate

> <CAS>
2639416-23-0

> <URL>
https://www.enaminestore.com/catalog/EN300-27782356

> <ROCS_ShapeQuery>
_x1140_x0812_0A_x1140_0A_x1097_0A_x0365_0A_x1097_0A_x0310_0A

> <ROCS_TanimotoCombo>
0.621 

> <ROCS_ShapeTanimoto>
0.227 

> <ROCS_ColorTanimoto>
0.394 

> <ROCS_RefTversky>
0.205 

> <ROCS_RefColorTversky>
0.501 

> <ROCS_RefTverskyCombo>
0.706 

> <ROCS_FitTversky>
1.877 

> <ROCS_FitColorTversky>
0.649 

> <ROCS_FitTverskyCombo>
2.526 

> <ROCS_ColorScore>
-3.957

> <ROCS_Overlap>
2101.343

> <ROCS_Rank>
214                 

$$$$
untitled-dbase-41009_5
  -OEChem-02092423213D

 22 22  0     0  0  0  0  0  0999 V2000
    8.2117   12.3804   24.0755 C   0  0  0  0  0  0  0  0  0  0  0  0
    9.1315   11.5492   23.4694 C   0  0  0  0  0  0  0  0  0  0  0  0
    9.0279   10.2107   23.7884 C   0  0  0  0  0  0  0  0  0  0  0  0
    7.2618   10.6223   25.1590 C   0  0  0  0  0  0  0  0  0  0  0  0
   10.1344   12.0732   22.5586 C   0  0  0  0  0  0  0  0  0  0  0  0
   13.2271   12.7395   22.4833 C   0  0  0  0  0  0  0  0  0  0  0  0
   11.9746   13.5828   22.3745 C   0  0  0  0  0  0  0  0  0  0  0  0
    7.2596   11.9491   24.9287 N   0  0  0  0  0  0  0  0  0  0  0  0
    8.1018    9.7107   24.6326 N   0  0  0  0  0  0  0  0  0  0  0  0
    6.2787   10.1349   26.0476 N   0  0  0  0  0  0  0  0  0  0  0  0
   10.2490   11.7366   21.3715 O   0  0  0  0  0  0  0  0  0  0  0  0
    9.8979    9.3076   23.2358 O   0  0  0  0  0  0  0  0  0  0  0  0
   10.9434   12.9912   23.1722 O   0  0  0  0  0  0  0  0  0  0  0  0
    8.2073   13.4504   23.8920 H   0  0  0  0  0  0  0  0  0  0  0  0
   13.5737   12.6875   23.5192 H   0  0  0  0  0  0  0  0  0  0  0  0
   13.0407   11.7230   22.1214 H   0  0  0  0  0  0  0  0  0  0  0  0
   14.0278   13.1562   21.8633 H   0  0  0  0  0  0  0  0  0  0  0  0
   11.6332   13.6307   21.3361 H   0  0  0  0  0  0  0  0  0  0  0  0
   12.1624   14.5977   22.7372 H   0  0  0  0  0  0  0  0  0  0  0  0
    5.6656   10.7829   26.4975 H   0  0  0  0  0  0  0  0  0  0  0  0
    6.2748    9.1637   26.2828 H   0  0  0  0  0  0  0  0  0  0  0  0
    9.6945    8.4184   23.5576 H   0  0  0  0  0  0  0  0  0  0  0  0
  1  2  1  0  0  0  0
  1  8  2  0  0  0  0
  2  3  2  0  0  0  0
  2  5  1  0  0  0  0
  3  9  1  0  0  0  0
  3 12  1  0  0  0  0
  4  8  1  0  0  0  0
  4  9  2  0  0  0  0
  4 10  1  0  0  0  0
  5 11  2  0  0  0  0
  5 13  1  0  0  0  0
  6  7  1  0  0  0  0
  7 13  1  0  0  0  0
  1 14  1  0  0  0  0
  6 15  1  0  0  0  0
  6 16  1  0  0  0  0
  6 17  1  0  0  0  0
  7 18  1  0  0  0  0
  7 19  1  0  0  0  0
 10 20  1  0  0  0  0
 10 21  1  0  0  0  0
 12 22  1  0  0  0  0
M  END
> <id>
EN300-192459

> <smiles>
CCOC(=O)C=1C=NC(N)=NC1O

> <MDLNUMBER>
MFCD00039708

> <IUPAC Name>
ethyl 2-amino-4-hydroxypyrimidine-5-carboxylate

> <CAS>
15400-53-0

> <Purity>
95

> <URL>
https://www.enaminestore.com/catalog/EN300-192459

> <MP>
285-290

> <ROCS_ShapeQuery>
_x1140_x0812_0A_x1140_0A_x1097_0A_x0365_0A_x1097_0A_x0310_0A

> <ROCS_TanimotoCombo>
0.621 

> <ROCS_ShapeTanimoto>
0.241 

> <ROCS_ColorTanimoto>
0.380 

> <ROCS_RefTversky>
0.215 

> <ROCS_RefColorTversky>
0.551 

> <ROCS_RefTverskyCombo>
0.766 

> <ROCS_FitTversky>
2.026 

> <ROCS_FitColorTversky>
0.549 

> <ROCS_FitTverskyCombo>
2.576 

> <ROCS_ColorScore>
-4.412

> <ROCS_Overlap>
2200.536

> <ROCS_Rank>
215                 

$$$$
untitled-dbase-422618_1
  -OEChem-02092423213D

 17 17  0     0  0  0  0  0  0999 V2000
    9.0042   12.3447   24.5906 C   0  0  0  0  0  0  0  0  0  0  0  0
    7.8838   11.9344   25.3046 C   0  0  0  0  0  0  0  0  0  0  0  0
    9.6649   11.4416   23.7653 C   0  0  0  0  0  0  0  0  0  0  0  0
    9.1692   10.1499   23.6893 C   0  0  0  0  0  0  0  0  0  0  0  0
    7.4678   10.6207   25.1595 C   0  0  0  0  0  0  0  0  0  0  0  0
   11.0934    9.0891   22.5996 C   0  0  0  0  0  0  0  0  0  0  0  0
    9.7941    9.1337   22.8520 C   0  0  0  0  0  0  0  0  0  0  0  0
    8.0838    9.7147   24.3676 N   0  0  0  0  0  0  0  0  0  0  0  0
    6.3248   10.2176   25.8936 N   0  0  0  0  0  0  0  0  0  0  0  0
   11.0509   11.9688   22.8879 Cl  0  0  0  0  0  0  0  0  0  0  0  0
    9.3493   13.3707   24.6892 H   0  0  0  0  0  0  0  0  0  0  0  0
    7.3621   12.6319   25.9520 H   0  0  0  0  0  0  0  0  0  0  0  0
   11.4753    8.2880   21.9740 H   0  0  0  0  0  0  0  0  0  0  0  0
   11.8206    9.7937   22.9852 H   0  0  0  0  0  0  0  0  0  0  0  0
    9.1494    8.3719   22.4491 H   0  0  0  0  0  0  0  0  0  0  0  0
    5.8969   10.8695   26.5145 H   0  0  0  0  0  0  0  0  0  0  0  0
    6.0323    9.2660   25.8441 H   0  0  0  0  0  0  0  0  0  0  0  0
  1  2  2  0  0  0  0
  1  3  1  0  0  0  0
  2  5  1  0  0  0  0
  3  4  2  0  0  0  0
  3 10  1  0  0  0  0
  4  7  1  0  0  0  0
  4  8  1  0  0  0  0
  5  8  2  0  0  0  0
  5  9  1  0  0  0  0
  6  7  2  0  0  0  0
  1 11  1  0  0  0  0
  2 12  1  0  0  0  0
  6 13  1  0  0  0  0
  6 14  1  0  0  0  0
  7 15  1  0  0  0  0
  9 16  1  0  0  0  0
  9 17  1  0  0  0  0
M  END
> <id>
EN300-24793694

> <smiles>
NC=1C=CC(Cl)=C(C=C)N1

> <MDLNUMBER>
MFCD22191734

> <IUPAC Name>
5-chloro-6-ethenylpyridin-2-amine

> <CAS>
1824187-64-5

> <Purity>
95

> <URL>
https://www.enaminestore.com/catalog/EN300-24793694

> <ROCS_ShapeQuery>
_x1140_x0812_0A_x1140_0A_x1097_0A_x0365_0A_x1097_0A_x0310_0A

> <ROCS_TanimotoCombo>
0.620 

> <ROCS_ShapeTanimoto>
0.205 

> <ROCS_ColorTanimoto>
0.416 

> <ROCS_RefTversky>
0.185 

> <ROCS_RefColorTversky>
0.487 

> <ROCS_RefTverskyCombo>
0.672 

> <ROCS_FitTversky>
2.014 

> <ROCS_FitColorTversky>
0.741 

> <ROCS_FitTverskyCombo>
2.755 

> <ROCS_ColorScore>
-3.821

> <ROCS_Overlap>
1899.257

> <ROCS_Rank>
216                 

$$$$
untitled-dbase-111526_0
  -OEChem-02092423213D

 36 37  0     0  0  0  0  0  0999 V2000
    5.7236   12.1106   26.4591 C   0  0  0  0  0  0  0  0  0  0  0  0
    6.6704   12.6928   25.6212 C   0  0  0  0  0  0  0  0  0  0  0  0
    5.7052   10.7306   26.6186 C   0  0  0  0  0  0  0  0  0  0  0  0
    8.5674   12.4533   24.0896 C   0  0  0  0  0  0  0  0  0  0  0  0
    7.6035   11.8936   24.9391 C   0  0  0  0  0  0  0  0  0  0  0  0
    6.6330    9.9362   25.9404 C   0  0  0  0  0  0  0  0  0  0  0  0
    7.5906   10.4918   25.0962 C   0  0  0  0  0  0  0  0  0  0  0  0
    9.4749   11.6370   23.4302 C   0  0  0  0  0  0  0  0  0  0  0  0
    9.3843   10.2770   23.6466 C   0  0  0  0  0  0  0  0  0  0  0  0
    6.5733    8.4542   26.1453 C   0  0  0  0  0  0  0  0  0  0  0  0
   11.8062    9.6482   23.3550 C   0  0  0  0  0  0  0  0  0  0  0  0
   10.2128    9.4476   21.4167 C   0  0  0  0  0  0  0  0  0  0  0  0
   10.1175    7.8242   23.2973 C   0  0  0  0  0  0  0  0  0  0  0  0
   10.3280    9.3381   22.9678 C   0  0  0  0  0  0  0  0  0  0  0  0
    8.4700    9.6970   24.4576 N   0  0  0  0  0  0  0  0  0  0  0  0
   10.7197   13.5448   22.5741 N   0  0  0  0  0  0  0  0  0  0  0  0
   10.4429   12.1950   22.5778 N   0  0  0  0  0  0  0  0  0  0  0  0
    5.0049   12.7314   26.9854 H   0  0  0  0  0  0  0  0  0  0  0  0
    6.6769   13.7739   25.5044 H   0  0  0  0  0  0  0  0  0  0  0  0
    4.9649   10.2776   27.2731 H   0  0  0  0  0  0  0  0  0  0  0  0
    8.6062   13.5315   23.9439 H   0  0  0  0  0  0  0  0  0  0  0  0
    5.9080    7.9987   25.4047 H   0  0  0  0  0  0  0  0  0  0  0  0
    7.5678    8.0044   26.0500 H   0  0  0  0  0  0  0  0  0  0  0  0
    6.2043    8.2111   27.1479 H   0  0  0  0  0  0  0  0  0  0  0  0
   12.5201    8.9725   22.8696 H   0  0  0  0  0  0  0  0  0  0  0  0
   12.0898   10.6685   23.0743 H   0  0  0  0  0  0  0  0  0  0  0  0
   11.9427    9.5552   24.4389 H   0  0  0  0  0  0  0  0  0  0  0  0
   10.9023    8.7616   20.9128 H   0  0  0  0  0  0  0  0  0  0  0  0
    9.2057    9.2152   21.0509 H   0  0  0  0  0  0  0  0  0  0  0  0
   10.4608   10.4638   21.0879 H   0  0  0  0  0  0  0  0  0  0  0  0
   10.8329    7.1766   22.7761 H   0  0  0  0  0  0  0  0  0  0  0  0
   10.2377    7.6375   24.3709 H   0  0  0  0  0  0  0  0  0  0  0  0
    9.1135    7.4963   23.0037 H   0  0  0  0  0  0  0  0  0  0  0  0
   10.7992   13.8547   21.6067 H   0  0  0  0  0  0  0  0  0  0  0  0
   11.6384   13.6884   22.9916 H   0  0  0  0  0  0  0  0  0  0  0  0
   11.0897   11.5705   22.1123 H   0  0  0  0  0  0  0  0  0  0  0  0
  1  2  1  0  0  0  0
  1  3  2  0  0  0  0
  2  5  2  0  0  0  0
  3  6  1  0  0  0  0
  4  5  1  0  0  0  0
  4  8  2  0  0  0  0
  5  7  1  0  0  0  0
  6  7  2  0  0  0  0
  6 10  1  0  0  0  0
  7 15  1  0  0  0  0
  8  9  1  0  0  0  0
  8 17  1  0  0  0  0
  9 14  1  0  0  0  0
  9 15  2  0  0  0  0
 11 14  1  0  0  0  0
 12 14  1  0  0  0  0
 13 14  1  0  0  0  0
 16 17  1  0  0  0  0
  1 18  1  0  0  0  0
  2 19  1  0  0  0  0
  3 20  1  0  0  0  0
  4 21  1  0  0  0  0
 10 22  1  0  0  0  0
 10 23  1  0  0  0  0
 10 24  1  0  0  0  0
 11 25  1  0  0  0  0
 11 26  1  0  0  0  0
 11 27  1  0  0  0  0
 12 28  1  0  0  0  0
 12 29  1  0  0  0  0
 12 30  1  0  0  0  0
 13 31  1  0  0  0  0
 13 32  1  0  0  0  0
 13 33  1  0  0  0  0
 16 34  1  0  0  0  0
 16 35  1  0  0  0  0
 17 36  1  0  0  0  0
M  END
> <id>
EN300-801671

> <smiles>
CC=1C=CC=C2C=C(NN)C(=NC12)C(C)(C)C

> <IUPAC Name>
2-tert-butyl-3-hydrazinyl-8-methylquinoline

> <CAS>
2137712-83-3

> <URL>
https://www.enaminestore.com/catalog/EN300-801671

> <ROCS_ShapeQuery>
_x1140_x0812_0A_x1140_0A_x1097_0A_x0365_0A_x1097_0A_x0310_0A

> <ROCS_TanimotoCombo>
0.620 

> <ROCS_ShapeTanimoto>
0.284 

> <ROCS_ColorTanimoto>
0.336 

> <ROCS_RefTversky>
0.248 

> <ROCS_RefColorTversky>
0.455 

> <ROCS_RefTverskyCombo>
0.703 

> <ROCS_FitTversky>
2.020 

> <ROCS_FitColorTversky>
0.563 

> <ROCS_FitTverskyCombo>
2.583 

> <ROCS_ColorScore>
-3.601

> <ROCS_Overlap>
2547.683

> <ROCS_Rank>
217                 

$$$$
untitled-dbase-313287_6
  -OEChem-02092423213D

 25 25  0     0  0  0  0  0  0999 V2000
    8.4102   11.9843   24.9408 C   0  0  0  0  0  0  0  0  0  0  0  0
    9.1384   11.5955   23.7912 C   0  0  0  0  0  0  0  0  0  0  0  0
    7.8099   10.8420   25.4171 C   0  0  0  0  0  0  0  0  0  0  0  0
    8.9314   10.2433   23.6470 C   0  0  0  0  0  0  0  0  0  0  0  0
    8.3103   13.3391   25.5160 C   0  0  0  0  0  0  0  0  0  0  0  0
    6.9303   10.5659   26.5628 C   0  0  0  0  0  0  0  0  0  0  0  0
   10.9289    9.1544   22.5931 C   0  0  0  0  0  0  0  0  0  0  0  0
    9.9564   12.4607   22.9201 C   0  0  0  0  0  0  0  0  0  0  0  0
    9.3992    9.2481   22.6709 C   0  0  0  0  0  0  0  0  0  0  0  0
    8.1227    9.7763   24.6341 O   0  0  0  0  0  0  0  0  0  0  0  0
   10.2435   11.7878   21.6940 O   0  0  0  0  0  0  0  0  0  0  0  0
    7.4593   13.8926   25.0857 H   0  0  0  0  0  0  0  0  0  0  0  0
    8.1746   13.3156   26.6111 H   0  0  0  0  0  0  0  0  0  0  0  0
    9.2222   13.9343   25.3354 H   0  0  0  0  0  0  0  0  0  0  0  0
    5.8662   10.6783   26.2899 H   0  0  0  0  0  0  0  0  0  0  0  0
    7.0640    9.5417   26.9568 H   0  0  0  0  0  0  0  0  0  0  0  0
    7.1264   11.2429   27.4146 H   0  0  0  0  0  0  0  0  0  0  0  0
   11.3650   10.1333   22.3666 H   0  0  0  0  0  0  0  0  0  0  0  0
   11.2482    8.4530   21.8159 H   0  0  0  0  0  0  0  0  0  0  0  0
   11.3441    8.8146   23.5480 H   0  0  0  0  0  0  0  0  0  0  0  0
    9.4451   13.4088   22.6754 H   0  0  0  0  0  0  0  0  0  0  0  0
   10.9166   12.7333   23.3931 H   0  0  0  0  0  0  0  0  0  0  0  0
    9.0035    8.2376   22.9013 H   0  0  0  0  0  0  0  0  0  0  0  0
    9.0153    9.4673   21.6533 H   0  0  0  0  0  0  0  0  0  0  0  0
   10.7790   12.3986   21.1656 H   0  0  0  0  0  0  0  0  0  0  0  0
  1  2  1  0  0  0  0
  1  3  2  0  0  0  0
  1  5  1  0  0  0  0
  2  4  2  0  0  0  0
  2  8  1  0  0  0  0
  3  6  1  0  0  0  0
  3 10  1  0  0  0  0
  4  9  1  0  0  0  0
  4 10  1  0  0  0  0
  7  9  1  0  0  0  0
  8 11  1  0  0  0  0
  5 12  1  0  0  0  0
  5 13  1  0  0  0  0
  5 14  1  0  0  0  0
  6 15  1  0  0  0  0
  6 16  1  0  0  0  0
  6 17  1  0  0  0  0
  7 18  1  0  0  0  0
  7 19  1  0  0  0  0
  7 20  1  0  0  0  0
  8 21  1  0  0  0  0
  8 22  1  0  0  0  0
  9 23  1  0  0  0  0
  9 24  1  0  0  0  0
 11 25  1  0  0  0  0
M  END
> <id>
EN300-1615676

> <smiles>
CCC=1OC(C)=C(C)C1CO

> <IUPAC Name>
(2-ethyl-4,5-dimethylfuran-3-yl)methanol

> <CAS>
1499937-30-2

> <URL>
https://www.enaminestore.com/catalog/EN300-1615676

> <ROCS_ShapeQuery>
_x1140_x0812_0A_x1140_0A_x1097_0A_x0365_0A_x1097_0A_x0310_0A

> <ROCS_TanimotoCombo>
0.620 

> <ROCS_ShapeTanimoto>
0.213 

> <ROCS_ColorTanimoto>
0.407 

> <ROCS_RefTversky>
0.192 

> <ROCS_RefColorTversky>
0.479 

> <ROCS_RefTverskyCombo>
0.672 

> <ROCS_FitTversky>
2.008 

> <ROCS_FitColorTversky>
0.730 

> <ROCS_FitTverskyCombo>
2.739 

> <ROCS_ColorScore>
-3.761

> <ROCS_Overlap>
1970.915

> <ROCS_Rank>
218                 

$$$$
untitled-dbase-139614_5
  -OEChem-02092423213D

 37 37  0     0  0  0  0  0  0999 V2000
    9.0655   11.2154   23.9125 C   0  0  0  0  0  0  0  0  0  0  0  0
    9.1086   12.3272   24.7275 C   0  0  0  0  0  0  0  0  0  0  0  0
    7.4025   10.7088   25.2497 C   0  0  0  0  0  0  0  0  0  0  0  0
    9.9875   10.9808   22.7726 C   0  0  0  0  0  0  0  0  0  0  0  0
    9.9064   14.2740   23.3421 C   0  0  0  0  0  0  0  0  0  0  0  0
   11.5067   13.0842   24.8782 C   0  0  0  0  0  0  0  0  0  0  0  0
    9.7545   14.5854   25.8042 C   0  0  0  0  0  0  0  0  0  0  0  0
   11.4745    9.2660   21.0549 C   0  0  0  0  0  0  0  0  0  0  0  0
   12.5989    8.4575   23.1505 C   0  0  0  0  0  0  0  0  0  0  0  0
   10.1262    8.1327   22.8528 C   0  0  0  0  0  0  0  0  0  0  0  0
   10.0080   13.4989   24.6983 C   0  0  0  0  0  0  0  0  0  0  0  0
   11.3183    9.0421   22.5584 C   0  0  0  0  0  0  0  0  0  0  0  0
    8.0881   10.2861   24.2107 N   0  0  0  0  0  0  0  0  0  0  0  0
    6.3635   10.0327   25.8082 N   0  0  0  0  0  0  0  0  0  0  0  0
    9.7548   11.3574   21.6345 O   0  0  0  0  0  0  0  0  0  0  0  0
   11.0922   10.3053   23.1849 O   0  0  0  0  0  0  0  0  0  0  0  0
    7.8788   12.2161   25.9177 S   0  0  0  0  0  0  0  0  0  0  0  0
   10.5648   15.1493   23.2943 H   0  0  0  0  0  0  0  0  0  0  0  0
   10.1688   13.6298   22.4958 H   0  0  0  0  0  0  0  0  0  0  0  0
    8.8782   14.6209   23.1850 H   0  0  0  0  0  0  0  0  0  0  0  0
   12.1663   13.9585   24.8553 H   0  0  0  0  0  0  0  0  0  0  0  0
   11.7002   12.5619   25.8225 H   0  0  0  0  0  0  0  0  0  0  0  0
   11.8123   12.4201   24.0610 H   0  0  0  0  0  0  0  0  0  0  0  0
   10.4463   15.4340   25.7409 H   0  0  0  0  0  0  0  0  0  0  0  0
    8.7394   14.9912   25.7210 H   0  0  0  0  0  0  0  0  0  0  0  0
    9.8681   14.1515   26.8045 H   0  0  0  0  0  0  0  0  0  0  0  0
   10.5574    9.6855   20.6261 H   0  0  0  0  0  0  0  0  0  0  0  0
   12.3045    9.9444   20.8322 H   0  0  0  0  0  0  0  0  0  0  0  0
   11.6534    8.3179   20.5349 H   0  0  0  0  0  0  0  0  0  0  0  0
   12.4913    8.2952   24.2291 H   0  0  0  0  0  0  0  0  0  0  0  0
   13.4387    9.1504   23.0249 H   0  0  0  0  0  0  0  0  0  0  0  0
   12.8626    7.5043   22.6811 H   0  0  0  0  0  0  0  0  0  0  0  0
   10.0140    7.9719   23.9312 H   0  0  0  0  0  0  0  0  0  0  0  0
    9.1923    8.5543   22.4672 H   0  0  0  0  0  0  0  0  0  0  0  0
   10.2718    7.1425   22.4061 H   0  0  0  0  0  0  0  0  0  0  0  0
    6.0176    9.1527   25.4107 H   0  0  0  0  0  0  0  0  0  0  0  0
    5.8257   10.4222   26.5899 H   0  0  0  0  0  0  0  0  0  0  0  0
  1  2  2  0  0  0  0
  1  4  1  0  0  0  0
  1 13  1  0  0  0  0
  2 11  1  0  0  0  0
  2 17  1  0  0  0  0
  3 13  2  0  0  0  0
  3 14  1  0  0  0  0
  3 17  1  0  0  0  0
  4 15  2  0  0  0  0
  4 16  1  0  0  0  0
  5 11  1  0  0  0  0
  6 11  1  0  0  0  0
  7 11  1  0  0  0  0
  8 12  1  0  0  0  0
  9 12  1  0  0  0  0
 10 12  1  0  0  0  0
 12 16  1  0  0  0  0
  5 18  1  0  0  0  0
  5 19  1  0  0  0  0
  5 20  1  0  0  0  0
  6 21  1  0  0  0  0
  6 22  1  0  0  0  0
  6 23  1  0  0  0  0
  7 24  1  0  0  0  0
  7 25  1  0  0  0  0
  7 26  1  0  0  0  0
  8 27  1  0  0  0  0
  8 28  1  0  0  0  0
  8 29  1  0  0  0  0
  9 30  1  0  0  0  0
  9 31  1  0  0  0  0
  9 32  1  0  0  0  0
 10 33  1  0  0  0  0
 10 34  1  0  0  0  0
 10 35  1  0  0  0  0
 14 36  1  0  0  0  0
 14 37  1  0  0  0  0
M  END
> <id>
EN300-1458446

> <smiles>
CC(C)(C)OC(=O)C=1N=C(N)SC1C(C)(C)C

> <IUPAC Name>
tert-butyl 2-amino-5-tert-butyl-1,3-thiazole-4-carboxylate

> <CAS>
2172295-29-1

> <URL>
https://www.enaminestore.com/catalog/EN300-1458446

> <ROCS_ShapeQuery>
_x1140_x0812_0A_x1140_0A_x1097_0A_x0365_0A_x1097_0A_x0310_0A

> <ROCS_TanimotoCombo>
0.620 

> <ROCS_ShapeTanimoto>
0.219 

> <ROCS_ColorTanimoto>
0.401 

> <ROCS_RefTversky>
0.201 

> <ROCS_RefColorTversky>
0.540 

> <ROCS_RefTverskyCombo>
0.741 

> <ROCS_FitTversky>
1.690 

> <ROCS_FitColorTversky>
0.608 

> <ROCS_FitTverskyCombo>
2.299 

> <ROCS_ColorScore>
-4.293

> <ROCS_Overlap>
2064.738

> <ROCS_Rank>
219                 

$$$$
untitled-dbase-332126_1
  -OEChem-02092423213D

 22 22  0     0  0  0  0  0  0999 V2000
    8.4455   12.5168   24.2065 C   0  0  0  0  0  0  0  0  0  0  0  0
    9.2223   11.5784   23.5361 C   0  0  0  0  0  0  0  0  0  0  0  0
    7.5463   12.0982   25.1809 C   0  0  0  0  0  0  0  0  0  0  0  0
    7.4623   10.7408   25.4457 C   0  0  0  0  0  0  0  0  0  0  0  0
    9.0634   10.2443   23.8747 C   0  0  0  0  0  0  0  0  0  0  0  0
   10.1616   12.0266   22.5177 C   0  0  0  0  0  0  0  0  0  0  0  0
    6.5184   10.2176   26.4793 C   0  0  0  0  0  0  0  0  0  0  0  0
   12.0730   13.3979   22.1291 C   0  0  0  0  0  0  0  0  0  0  0  0
    8.2003    9.7997   24.8155 N   0  0  0  0  0  0  0  0  0  0  0  0
    9.8521    9.2816   23.1959 N   0  0  0  0  0  0  0  0  0  0  0  0
   10.1249   11.6771   21.3315 O   0  0  0  0  0  0  0  0  0  0  0  0
   11.0913   12.8851   23.0362 O   0  0  0  0  0  0  0  0  0  0  0  0
    6.5858   13.2605   26.0086 Cl  0  0  0  0  0  0  0  0  0  0  0  0
    8.5433   13.5735   23.9671 H   0  0  0  0  0  0  0  0  0  0  0  0
    5.5471    9.9905   26.0254 H   0  0  0  0  0  0  0  0  0  0  0  0
    6.9089    9.3053   26.9460 H   0  0  0  0  0  0  0  0  0  0  0  0
    6.3672   10.9485   27.2830 H   0  0  0  0  0  0  0  0  0  0  0  0
   12.7511   14.0667   22.6648 H   0  0  0  0  0  0  0  0  0  0  0  0
   11.5756   13.9380   21.3195 H   0  0  0  0  0  0  0  0  0  0  0  0
   12.6419   12.5635   21.7121 H   0  0  0  0  0  0  0  0  0  0  0  0
   10.4594    9.5854   22.4667 H   0  0  0  0  0  0  0  0  0  0  0  0
    9.7116    8.3161   23.3986 H   0  0  0  0  0  0  0  0  0  0  0  0
  1  2  1  0  0  0  0
  1  3  2  0  0  0  0
  2  5  2  0  0  0  0
  2  6  1  0  0  0  0
  3  4  1  0  0  0  0
  3 13  1  0  0  0  0
  4  7  1  0  0  0  0
  4  9  2  0  0  0  0
  5  9  1  0  0  0  0
  5 10  1  0  0  0  0
  6 11  2  0  0  0  0
  6 12  1  0  0  0  0
  8 12  1  0  0  0  0
  1 14  1  0  0  0  0
  7 15  1  0  0  0  0
  7 16  1  0  0  0  0
  7 17  1  0  0  0  0
  8 18  1  0  0  0  0
  8 19  1  0  0  0  0
  8 20  1  0  0  0  0
 10 21  1  0  0  0  0
 10 22  1  0  0  0  0
M  END
> <id>
EN300-7463896

> <smiles>
COC(=O)C=1C=C(Cl)C(C)=NC1N

> <MDLNUMBER>
MFCD32220069

> <IUPAC Name>
methyl 2-amino-5-chloro-6-methylpyridine-3-carboxylate

> <CAS>
2091494-09-4

> <Purity>
95

> <URL>
https://www.enaminestore.com/catalog/EN300-7463896

> <ROCS_ShapeQuery>
_x1140_x0812_0A_x1140_0A_x1097_0A_x0365_0A_x1097_0A_x0310_0A

> <ROCS_TanimotoCombo>
0.620 

> <ROCS_ShapeTanimoto>
0.247 

> <ROCS_ColorTanimoto>
0.373 

> <ROCS_RefTversky>
0.219 

> <ROCS_RefColorTversky>
0.450 

> <ROCS_RefTverskyCombo>
0.669 

> <ROCS_FitTversky>
2.087 

> <ROCS_FitColorTversky>
0.685 

> <ROCS_FitTverskyCombo>
2.772 

> <ROCS_ColorScore>
-3.533

> <ROCS_Overlap>
2243.890

> <ROCS_Rank>
220                 

$$$$
untitled-dbase-368412_0
  -OEChem-02092423213D

 30 31  0     0  0  0  0  0  0999 V2000
    6.7206    9.9891   25.9770 C   0  0  0  0  0  0  0  0  0  0  0  0
    5.7925   10.7884   26.6489 C   0  0  0  0  0  0  0  0  0  0  0  0
    8.5432   12.4738   23.9752 C   0  0  0  0  0  0  0  0  0  0  0  0
    6.6829   12.7308   25.5483 C   0  0  0  0  0  0  0  0  0  0  0  0
    7.6163   11.9266   24.8726 C   0  0  0  0  0  0  0  0  0  0  0  0
    7.6415   10.5322   25.0853 C   0  0  0  0  0  0  0  0  0  0  0  0
    9.4522   11.6528   23.3235 C   0  0  0  0  0  0  0  0  0  0  0  0
    5.7733   12.1610   26.4345 C   0  0  0  0  0  0  0  0  0  0  0  0
    9.4003   10.3008   23.5959 C   0  0  0  0  0  0  0  0  0  0  0  0
   11.8311    9.7307   23.2617 C   0  0  0  0  0  0  0  0  0  0  0  0
   10.1947    9.4152   21.3753 C   0  0  0  0  0  0  0  0  0  0  0  0
   10.1957    7.8588   23.3141 C   0  0  0  0  0  0  0  0  0  0  0  0
   10.3527    9.3656   22.9259 C   0  0  0  0  0  0  0  0  0  0  0  0
    8.5224    9.7330   24.4543 N   0  0  0  0  0  0  0  0  0  0  0  0
   10.3505   12.1788   22.4535 O   0  0  0  0  0  0  0  0  0  0  0  0
    4.8855   12.9312   27.0763 F   0  0  0  0  0  0  0  0  0  0  0  0
    6.7146    8.9166   26.1625 H   0  0  0  0  0  0  0  0  0  0  0  0
    5.0861   10.3359   27.3386 H   0  0  0  0  0  0  0  0  0  0  0  0
    8.5572   13.5450   23.7841 H   0  0  0  0  0  0  0  0  0  0  0  0
    6.6595   13.8064   25.3884 H   0  0  0  0  0  0  0  0  0  0  0  0
   12.5518    9.0584   22.7815 H   0  0  0  0  0  0  0  0  0  0  0  0
   12.0775   10.7478   22.9376 H   0  0  0  0  0  0  0  0  0  0  0  0
   11.9983    9.6809   24.3442 H   0  0  0  0  0  0  0  0  0  0  0  0
   10.8910    8.7309   20.8783 H   0  0  0  0  0  0  0  0  0  0  0  0
    9.1859    9.1414   21.0445 H   0  0  0  0  0  0  0  0  0  0  0  0
   10.4047   10.4252   21.0041 H   0  0  0  0  0  0  0  0  0  0  0  0
   10.9159    7.2132   22.7971 H   0  0  0  0  0  0  0  0  0  0  0  0
   10.3490    7.7145   24.3900 H   0  0  0  0  0  0  0  0  0  0  0  0
    9.1944    7.4922   23.0594 H   0  0  0  0  0  0  0  0  0  0  0  0
   10.2382   13.1421   22.3885 H   0  0  0  0  0  0  0  0  0  0  0  0
  1  2  2  0  0  0  0
  1  6  1  0  0  0  0
  2  8  1  0  0  0  0
  3  5  2  0  0  0  0
  3  7  1  0  0  0  0
  4  5  1  0  0  0  0
  4  8  2  0  0  0  0
  5  6  1  0  0  0  0
  6 14  2  0  0  0  0
  7  9  2  0  0  0  0
  7 15  1  0  0  0  0
  8 16  1  0  0  0  0
  9 13  1  0  0  0  0
  9 14  1  0  0  0  0
 10 13  1  0  0  0  0
 11 13  1  0  0  0  0
 12 13  1  0  0  0  0
  1 17  1  0  0  0  0
  2 18  1  0  0  0  0
  3 19  1  0  0  0  0
  4 20  1  0  0  0  0
 10 21  1  0  0  0  0
 10 22  1  0  0  0  0
 10 23  1  0  0  0  0
 11 24  1  0  0  0  0
 11 25  1  0  0  0  0
 11 26  1  0  0  0  0
 12 27  1  0  0  0  0
 12 28  1  0  0  0  0
 12 29  1  0  0  0  0
 15 30  1  0  0  0  0
M  END
> <id>
EN300-801067

> <smiles>
CC(C)(C)C=1N=C2C=CC(F)=CC2=CC1O

> <MDLNUMBER>
MFCD31471765

> <IUPAC Name>
2-tert-butyl-6-fluoroquinolin-3-ol

> <CAS>
2137979-37-2

> <URL>
https://www.enaminestore.com/catalog/EN300-801067

> <ROCS_ShapeQuery>
_x1140_x0812_0A_x1140_0A_x1097_0A_x0365_0A_x1097_0A_x0310_0A

> <ROCS_TanimotoCombo>
0.620 

> <ROCS_ShapeTanimoto>
0.272 

> <ROCS_ColorTanimoto>
0.348 

> <ROCS_RefTversky>
0.240 

> <ROCS_RefColorTversky>
0.457 

> <ROCS_RefTverskyCombo>
0.697 

> <ROCS_FitTversky>
2.005 

> <ROCS_FitColorTversky>
0.592 

> <ROCS_FitTverskyCombo>
2.597 

> <ROCS_ColorScore>
-3.612

> <ROCS_Overlap>
2457.786

> <ROCS_Rank>
221                 

$$$$
untitled-dbase-569645_4
  -OEChem-02092423213D

 22 22  0     0  0  0  0  0  0999 V2000
    8.1928   12.3724   24.0761 C   0  0  0  0  0  0  0  0  0  0  0  0
    9.1150   11.5387   23.4769 C   0  0  0  0  0  0  0  0  0  0  0  0
    9.0125   10.2020   23.8040 C   0  0  0  0  0  0  0  0  0  0  0  0
    7.2432   10.6198   25.1686 C   0  0  0  0  0  0  0  0  0  0  0  0
   10.1117   12.0749   22.5639 C   0  0  0  0  0  0  0  0  0  0  0  0
   13.1951   12.7769   22.4860 C   0  0  0  0  0  0  0  0  0  0  0  0
   11.9326   13.6054   22.3785 C   0  0  0  0  0  0  0  0  0  0  0  0
    7.2397   11.9451   24.9301 N   0  0  0  0  0  0  0  0  0  0  0  0
    8.0854    9.7061   24.6496 N   0  0  0  0  0  0  0  0  0  0  0  0
    9.9303    9.2943   23.2196 N   0  0  0  0  0  0  0  0  0  0  0  0
   10.2277   11.7389   21.3777 O   0  0  0  0  0  0  0  0  0  0  0  0
    6.2843   10.1490   26.0355 O   0  0  0  0  0  0  0  0  0  0  0  0
   10.9094   13.0019   23.1775 O   0  0  0  0  0  0  0  0  0  0  0  0
    8.1853   13.4411   23.8847 H   0  0  0  0  0  0  0  0  0  0  0  0
   13.5435   12.7292   23.5214 H   0  0  0  0  0  0  0  0  0  0  0  0
   13.0202   11.7583   22.1244 H   0  0  0  0  0  0  0  0  0  0  0  0
   13.9901   13.2029   21.8650 H   0  0  0  0  0  0  0  0  0  0  0  0
   11.5895   13.6492   21.3406 H   0  0  0  0  0  0  0  0  0  0  0  0
   12.1089   14.6226   22.7409 H   0  0  0  0  0  0  0  0  0  0  0  0
   10.5902    9.6375   22.5560 H   0  0  0  0  0  0  0  0  0  0  0  0
    9.8340    8.3213   23.4133 H   0  0  0  0  0  0  0  0  0  0  0  0
    6.3794    9.1931   26.1322 H   0  0  0  0  0  0  0  0  0  0  0  0
  1  2  1  0  0  0  0
  1  8  2  0  0  0  0
  2  3  2  0  0  0  0
  2  5  1  0  0  0  0
  3  9  1  0  0  0  0
  3 10  1  0  0  0  0
  4  8  1  0  0  0  0
  4  9  2  0  0  0  0
  4 12  1  0  0  0  0
  5 11  2  0  0  0  0
  5 13  1  0  0  0  0
  6  7  1  0  0  0  0
  7 13  1  0  0  0  0
  1 14  1  0  0  0  0
  6 15  1  0  0  0  0
  6 16  1  0  0  0  0
  6 17  1  0  0  0  0
  7 18  1  0  0  0  0
  7 19  1  0  0  0  0
 10 20  1  0  0  0  0
 10 21  1  0  0  0  0
 12 22  1  0  0  0  0
M  END
> <id>
EN300-25988537

> <smiles>
CCOC(=O)C=1C=NC(O)=NC1N

> <MDLNUMBER>
MFCD00014603

> <IUPAC Name>
ethyl 4-amino-2-hydroxypyrimidine-5-carboxylate

> <CAS>
20187-46-6

> <URL>
https://www.enaminestore.com/catalog/EN300-25988537

> <ROCS_ShapeQuery>
_x1140_x0812_0A_x1140_0A_x1097_0A_x0365_0A_x1097_0A_x0310_0A

> <ROCS_TanimotoCombo>
0.620 

> <ROCS_ShapeTanimoto>
0.241 

> <ROCS_ColorTanimoto>
0.379 

> <ROCS_RefTversky>
0.215 

> <ROCS_RefColorTversky>
0.550 

> <ROCS_RefTverskyCombo>
0.765 

> <ROCS_FitTversky>
2.028 

> <ROCS_FitColorTversky>
0.548 

> <ROCS_FitTverskyCombo>
2.576 

> <ROCS_ColorScore>
-4.405

> <ROCS_Overlap>
2201.402

> <ROCS_Rank>
222                 

$$$$
untitled-dbase-289871_3
  -OEChem-02092423213D

 22 22  0     0  0  0  0  0  0999 V2000
    7.5377   12.0877   25.2001 C   0  0  0  0  0  0  0  0  0  0  0  0
    9.2138   11.5942   23.5474 C   0  0  0  0  0  0  0  0  0  0  0  0
    8.4332   12.5213   24.2288 C   0  0  0  0  0  0  0  0  0  0  0  0
    9.0624   10.2557   23.8717 C   0  0  0  0  0  0  0  0  0  0  0  0
    7.4612   10.7271   25.4503 C   0  0  0  0  0  0  0  0  0  0  0  0
   10.1642   12.0144   22.5209 C   0  0  0  0  0  0  0  0  0  0  0  0
   13.0434   14.2649   22.8616 C   0  0  0  0  0  0  0  0  0  0  0  0
   12.0959   13.3468   22.1193 C   0  0  0  0  0  0  0  0  0  0  0  0
    8.2032    9.7966   24.8090 N   0  0  0  0  0  0  0  0  0  0  0  0
    9.8527    9.3008   23.1838 N   0  0  0  0  0  0  0  0  0  0  0  0
   10.1195   11.6490   21.3424 O   0  0  0  0  0  0  0  0  0  0  0  0
   11.1050   12.8625   23.0321 O   0  0  0  0  0  0  0  0  0  0  0  0
    8.5411   14.2138   23.9032 Cl  0  0  0  0  0  0  0  0  0  0  0  0
    6.3848   10.1010   26.6311 Cl  0  0  0  0  0  0  0  0  0  0  0  0
    6.9166   12.7912   25.7462 H   0  0  0  0  0  0  0  0  0  0  0  0
   12.5081   15.1208   23.2819 H   0  0  0  0  0  0  0  0  0  0  0  0
   13.5445   13.7278   23.6736 H   0  0  0  0  0  0  0  0  0  0  0  0
   13.8278   14.6330   22.1919 H   0  0  0  0  0  0  0  0  0  0  0  0
   12.6375   12.4929   21.7015 H   0  0  0  0  0  0  0  0  0  0  0  0
   11.5955   13.8852   21.3089 H   0  0  0  0  0  0  0  0  0  0  0  0
   10.4581    9.6124   22.4563 H   0  0  0  0  0  0  0  0  0  0  0  0
    9.7151    8.3333   23.3787 H   0  0  0  0  0  0  0  0  0  0  0  0
  1  3  1  0  0  0  0
  1  5  2  0  0  0  0
  2  3  2  0  0  0  0
  2  4  1  0  0  0  0
  2  6  1  0  0  0  0
  3 13  1  0  0  0  0
  4  9  2  0  0  0  0
  4 10  1  0  0  0  0
  5  9  1  0  0  0  0
  5 14  1  0  0  0  0
  6 11  2  0  0  0  0
  6 12  1  0  0  0  0
  7  8  1  0  0  0  0
  8 12  1  0  0  0  0
  1 15  1  0  0  0  0
  7 16  1  0  0  0  0
  7 17  1  0  0  0  0
  7 18  1  0  0  0  0
  8 19  1  0  0  0  0
  8 20  1  0  0  0  0
 10 21  1  0  0  0  0
 10 22  1  0  0  0  0
M  END
> <id>
EN300-6507917

> <smiles>
CCOC(=O)C=1C(N)=NC(Cl)=CC1Cl

> <MDLNUMBER>
MFCD29765602

> <IUPAC Name>
ethyl 2-amino-4,6-dichloropyridine-3-carboxylate

> <CAS>
1438255-18-5

> <URL>
https://www.enaminestore.com/catalog/EN300-6507917

> <ROCS_ShapeQuery>
_x1140_x0812_0A_x1140_0A_x1097_0A_x0365_0A_x1097_0A_x0310_0A

> <ROCS_TanimotoCombo>
0.620 

> <ROCS_ShapeTanimoto>
0.244 

> <ROCS_ColorTanimoto>
0.376 

> <ROCS_RefTversky>
0.217 

> <ROCS_RefColorTversky>
0.453 

> <ROCS_RefTverskyCombo>
0.670 

> <ROCS_FitTversky>
2.014 

> <ROCS_FitColorTversky>
0.689 

> <ROCS_FitTverskyCombo>
2.703 

> <ROCS_ColorScore>
-3.554

> <ROCS_Overlap>
2226.867

> <ROCS_Rank>
223                 

$$$$
untitled-dbase-139583_2
  -OEChem-02092423213D

 22 22  0     0  0  0  0  0  0999 V2000
    8.8774   10.9466   23.6331 C   0  0  0  0  0  0  0  0  0  0  0  0
    8.9560   12.1820   24.2413 C   0  0  0  0  0  0  0  0  0  0  0  0
    7.4085   10.6225   25.2292 C   0  0  0  0  0  0  0  0  0  0  0  0
    9.6471   10.5635   22.4820 C   0  0  0  0  0  0  0  0  0  0  0  0
   10.6751    8.7091   21.3575 C   0  0  0  0  0  0  0  0  0  0  0  0
    9.7835   13.3597   23.9086 C   0  0  0  0  0  0  0  0  0  0  0  0
   11.2816   13.0689   23.9624 C   0  0  0  0  0  0  0  0  0  0  0  0
    7.9909   10.0509   24.1985 N   0  0  0  0  0  0  0  0  0  0  0  0
    6.4776   10.0186   26.0149 N   0  0  0  0  0  0  0  0  0  0  0  0
   10.0438   11.3432   21.5918 O   0  0  0  0  0  0  0  0  0  0  0  0
    9.9119    9.2146   22.4581 O   0  0  0  0  0  0  0  0  0  0  0  0
    9.5322   13.8664   22.6525 F   0  0  0  0  0  0  0  0  0  0  0  0
    9.5672   14.4330   24.7447 F   0  0  0  0  0  0  0  0  0  0  0  0
   11.6278   12.0944   23.0913 F   0  0  0  0  0  0  0  0  0  0  0  0
   11.6545   12.6631   25.1950 F   0  0  0  0  0  0  0  0  0  0  0  0
   12.0018   14.1675   23.6502 F   0  0  0  0  0  0  0  0  0  0  0  0
    7.8792   12.2361   25.5750 S   0  0  0  0  0  0  0  0  0  0  0  0
   10.8071    7.6302   21.4697 H   0  0  0  0  0  0  0  0  0  0  0  0
   11.6486    9.2051   21.3296 H   0  0  0  0  0  0  0  0  0  0  0  0
   10.1376    8.9135   20.4285 H   0  0  0  0  0  0  0  0  0  0  0  0
    6.1347    9.0731   25.8140 H   0  0  0  0  0  0  0  0  0  0  0  0
    6.0140   10.5184   26.7813 H   0  0  0  0  0  0  0  0  0  0  0  0
  1  2  2  0  0  0  0
  1  4  1  0  0  0  0
  1  8  1  0  0  0  0
  2  6  1  0  0  0  0
  2 17  1  0  0  0  0
  3  8  2  0  0  0  0
  3  9  1  0  0  0  0
  3 17  1  0  0  0  0
  4 10  2  0  0  0  0
  4 11  1  0  0  0  0
  5 11  1  0  0  0  0
  6  7  1  0  0  0  0
  6 12  1  0  0  0  0
  6 13  1  0  0  0  0
  7 14  1  0  0  0  0
  7 15  1  0  0  0  0
  7 16  1  0  0  0  0
  5 18  1  0  0  0  0
  5 19  1  0  0  0  0
  5 20  1  0  0  0  0
  9 21  1  0  0  0  0
  9 22  1  0  0  0  0
M  END
> <id>
EN300-1458376

> <smiles>
COC(=O)C=1N=C(N)SC1C(F)(F)C(F)(F)F

> <IUPAC Name>
methyl 2-amino-5-(pentafluoroethyl)-1,3-thiazole-4-carboxylate

> <CAS>
2172130-54-8

> <URL>
https://www.enaminestore.com/catalog/EN300-1458376

> <ROCS_ShapeQuery>
_x1140_x0812_0A_x1140_0A_x1097_0A_x0365_0A_x1097_0A_x0310_0A

> <ROCS_TanimotoCombo>
0.620 

> <ROCS_ShapeTanimoto>
0.253 

> <ROCS_ColorTanimoto>
0.367 

> <ROCS_RefTversky>
0.227 

> <ROCS_RefColorTversky>
0.445 

> <ROCS_RefTverskyCombo>
0.671 

> <ROCS_FitTversky>
1.835 

> <ROCS_FitColorTversky>
0.677 

> <ROCS_FitTverskyCombo>
2.512 

> <ROCS_ColorScore>
-3.491

> <ROCS_Overlap>
2327.140

> <ROCS_Rank>
224                 

$$$$
untitled-dbase-101492_0
  -OEChem-02092423213D

 30 31  0     0  0  0  0  0  0999 V2000
    5.7904   10.7842   26.6474 C   0  0  0  0  0  0  0  0  0  0  0  0
    6.7198    9.9858   25.9761 C   0  0  0  0  0  0  0  0  0  0  0  0
    5.7696   12.1567   26.4326 C   0  0  0  0  0  0  0  0  0  0  0  0
    8.5401   12.4722   23.9743 C   0  0  0  0  0  0  0  0  0  0  0  0
    7.6136   11.9241   24.8715 C   0  0  0  0  0  0  0  0  0  0  0  0
    7.6404   10.5298   25.0845 C   0  0  0  0  0  0  0  0  0  0  0  0
    9.4503   11.6522   23.3231 C   0  0  0  0  0  0  0  0  0  0  0  0
    6.6788   12.7273   25.5466 C   0  0  0  0  0  0  0  0  0  0  0  0
    9.4001   10.3002   23.5959 C   0  0  0  0  0  0  0  0  0  0  0  0
   11.8304    9.7306   23.2571 C   0  0  0  0  0  0  0  0  0  0  0  0
   10.1902    9.4135   21.3742 C   0  0  0  0  0  0  0  0  0  0  0  0
   10.1956    7.8582   23.3139 C   0  0  0  0  0  0  0  0  0  0  0  0
   10.3514    9.3649   22.9246 C   0  0  0  0  0  0  0  0  0  0  0  0
    8.5226    9.7315   24.4541 N   0  0  0  0  0  0  0  0  0  0  0  0
   10.3504   12.1778   22.4548 O   0  0  0  0  0  0  0  0  0  0  0  0
    6.5811   14.4467   25.3414 Cl  0  0  0  0  0  0  0  0  0  0  0  0
    5.0859   10.3300   27.3379 H   0  0  0  0  0  0  0  0  0  0  0  0
    6.7164    8.9135   26.1633 H   0  0  0  0  0  0  0  0  0  0  0  0
    5.0406   12.7644   26.9621 H   0  0  0  0  0  0  0  0  0  0  0  0
    8.5754   13.5378   23.7636 H   0  0  0  0  0  0  0  0  0  0  0  0
   12.5502    9.0583   22.7759 H   0  0  0  0  0  0  0  0  0  0  0  0
   12.0758   10.7476   22.9319 H   0  0  0  0  0  0  0  0  0  0  0  0
   11.9998    9.6815   24.3393 H   0  0  0  0  0  0  0  0  0  0  0  0
   10.8857    8.7291   20.8762 H   0  0  0  0  0  0  0  0  0  0  0  0
    9.1809    9.1392   21.0456 H   0  0  0  0  0  0  0  0  0  0  0  0
   10.3992   10.4234   21.0020 H   0  0  0  0  0  0  0  0  0  0  0  0
   10.9150    7.2126   22.7959 H   0  0  0  0  0  0  0  0  0  0  0  0
   10.3511    7.7146   24.3896 H   0  0  0  0  0  0  0  0  0  0  0  0
    9.1939    7.4912   23.0615 H   0  0  0  0  0  0  0  0  0  0  0  0
   10.2387   13.1412   22.3898 H   0  0  0  0  0  0  0  0  0  0  0  0
  1  2  2  0  0  0  0
  1  3  1  0  0  0  0
  2  6  1  0  0  0  0
  3  8  2  0  0  0  0
  4  5  2  0  0  0  0
  4  7  1  0  0  0  0
  5  6  1  0  0  0  0
  5  8  1  0  0  0  0
  6 14  2  0  0  0  0
  7  9  2  0  0  0  0
  7 15  1  0  0  0  0
  8 16  1  0  0  0  0
  9 13  1  0  0  0  0
  9 14  1  0  0  0  0
 10 13  1  0  0  0  0
 11 13  1  0  0  0  0
 12 13  1  0  0  0  0
  1 17  1  0  0  0  0
  2 18  1  0  0  0  0
  3 19  1  0  0  0  0
  4 20  1  0  0  0  0
 10 21  1  0  0  0  0
 10 22  1  0  0  0  0
 10 23  1  0  0  0  0
 11 24  1  0  0  0  0
 11 25  1  0  0  0  0
 11 26  1  0  0  0  0
 12 27  1  0  0  0  0
 12 28  1  0  0  0  0
 12 29  1  0  0  0  0
 15 30  1  0  0  0  0
M  END
> <id>
EN300-801322

> <smiles>
CC(C)(C)C=1N=C2C=CC=C(Cl)C2=CC1O

> <MDLNUMBER>
MFCD31471891

> <IUPAC Name>
2-tert-butyl-5-chloroquinolin-3-ol

> <CAS>
2137729-53-2

> <URL>
https://www.enaminestore.com/catalog/EN300-801322

> <ROCS_ShapeQuery>
_x1140_x0812_0A_x1140_0A_x1097_0A_x0365_0A_x1097_0A_x0310_0A

> <ROCS_TanimotoCombo>
0.620 

> <ROCS_ShapeTanimoto>
0.272 

> <ROCS_ColorTanimoto>
0.347 

> <ROCS_RefTversky>
0.239 

> <ROCS_RefColorTversky>
0.457 

> <ROCS_RefTverskyCombo>
0.696 

> <ROCS_FitTversky>
2.021 

> <ROCS_FitColorTversky>
0.591 

> <ROCS_FitTverskyCombo>
2.613 

> <ROCS_ColorScore>
-3.610

> <ROCS_Overlap>
2456.265

> <ROCS_Rank>
225                 

$$$$
untitled-dbase-355517_0
  -OEChem-02092423213D

 18 18  0     0  0  0  0  0  0999 V2000
   10.9999    8.7466   22.5371 C   0  0  0  0  0  0  0  0  0  0  0  0
   10.2317    9.5090   23.0571 C   0  0  0  0  0  0  0  0  0  0  0  0
    7.4881   11.9942   24.9443 C   0  0  0  0  0  0  0  0  0  0  0  0
    7.5408   10.6206   25.1180 C   0  0  0  0  0  0  0  0  0  0  0  0
    9.3179   10.4165   23.6763 C   0  0  0  0  0  0  0  0  0  0  0  0
    8.4126   12.5775   24.0850 C   0  0  0  0  0  0  0  0  0  0  0  0
    9.3483   11.7806   23.4348 C   0  0  0  0  0  0  0  0  0  0  0  0
    8.3770   14.0569   23.8818 C   0  0  0  0  0  0  0  0  0  0  0  0
    8.4351    9.8138   24.5040 N   0  0  0  0  0  0  0  0  0  0  0  0
   10.2942   12.3513   22.5601 N   0  0  0  0  0  0  0  0  0  0  0  0
   11.6815    8.0707   22.0760 H   0  0  0  0  0  0  0  0  0  0  0  0
    6.7442   12.5877   25.4647 H   0  0  0  0  0  0  0  0  0  0  0  0
    6.8416   10.1159   25.7765 H   0  0  0  0  0  0  0  0  0  0  0  0
    9.0200   14.5564   24.6155 H   0  0  0  0  0  0  0  0  0  0  0  0
    8.7194   14.3269   22.8753 H   0  0  0  0  0  0  0  0  0  0  0  0
    7.3570   14.4468   23.9875 H   0  0  0  0  0  0  0  0  0  0  0  0
   10.9880   11.7653   22.1400 H   0  0  0  0  0  0  0  0  0  0  0  0
   10.3172   13.3451   22.4458 H   0  0  0  0  0  0  0  0  0  0  0  0
  1  2  3  0  0  0  0
  2  5  1  0  0  0  0
  3  4  2  0  0  0  0
  3  6  1  0  0  0  0
  4  9  1  0  0  0  0
  5  7  1  0  0  0  0
  5  9  2  0  0  0  0
  6  7  2  0  0  0  0
  6  8  1  0  0  0  0
  7 10  1  0  0  0  0
  1 11  1  0  0  0  0
  3 12  1  0  0  0  0
  4 13  1  0  0  0  0
  8 14  1  0  0  0  0
  8 15  1  0  0  0  0
  8 16  1  0  0  0  0
 10 17  1  0  0  0  0
 10 18  1  0  0  0  0
M  END
> <id>
EN300-2982593

> <smiles>
CC=1C=CN=C(C#C)C1N

> <MDLNUMBER>
MFCD22189667

> <IUPAC Name>
2-ethynyl-4-methylpyridin-3-amine

> <CAS>
1849200-19-6

> <Purity>
95

> <URL>
https://www.enaminestore.com/catalog/EN300-2982593

> <ROCS_ShapeQuery>
_x1140_x0812_0A_x1140_0A_x1097_0A_x0365_0A_x1097_0A_x0310_0A

> <ROCS_TanimotoCombo>
0.620 

> <ROCS_ShapeTanimoto>
0.204 

> <ROCS_ColorTanimoto>
0.416 

> <ROCS_RefTversky>
0.185 

> <ROCS_RefColorTversky>
0.486 

> <ROCS_RefTverskyCombo>
0.671 

> <ROCS_FitTversky>
1.995 

> <ROCS_FitColorTversky>
0.741 

> <ROCS_FitTverskyCombo>
2.736 

> <ROCS_ColorScore>
-3.816

> <ROCS_Overlap>
1897.809

> <ROCS_Rank>
226                 

$$$$
untitled-dbase-491244_9
  -OEChem-02092423213D

 35 35  0     0  0  0  0  0  0999 V2000
    9.0930   12.3859   25.6875 C   0  0  0  0  0  0  0  0  0  0  0  0
    9.6380   11.9838   24.4681 C   0  0  0  0  0  0  0  0  0  0  0  0
    7.9081   11.8099   26.1457 C   0  0  0  0  0  0  0  0  0  0  0  0
    8.9980   11.0058   23.7068 C   0  0  0  0  0  0  0  0  0  0  0  0
    7.8130   10.4299   24.1649 C   0  0  0  0  0  0  0  0  0  0  0  0
    7.2681   10.8319   25.3844 C   0  0  0  0  0  0  0  0  0  0  0  0
    9.6029   10.5996   22.4131 C   0  0  0  0  0  0  0  0  0  0  0  0
    7.1264    9.3808   23.3469 C   0  0  0  0  0  0  0  0  0  0  0  0
   12.0949    9.5921   23.3499 C   0  0  0  0  0  0  0  0  0  0  0  0
   11.4033    7.4262   22.2823 C   0  0  0  0  0  0  0  0  0  0  0  0
   11.7181    9.4752   20.8642 C   0  0  0  0  0  0  0  0  0  0  0  0
    5.1512   10.9737   26.6975 C   0  0  0  0  0  0  0  0  0  0  0  0
   11.2800    8.9475   22.2296 C   0  0  0  0  0  0  0  0  0  0  0  0
    6.0694   10.2610   25.8660 N   0  0  0  0  0  0  0  0  0  0  0  0
    9.7915   11.3754   21.4890 O   0  0  0  0  0  0  0  0  0  0  0  0
    9.9033    9.2744   22.4231 O   0  0  0  0  0  0  0  0  0  0  0  0
    9.5915   13.1472   26.2805 H   0  0  0  0  0  0  0  0  0  0  0  0
   10.5618   12.4404   24.1218 H   0  0  0  0  0  0  0  0  0  0  0  0
    7.4931   12.1312   27.0973 H   0  0  0  0  0  0  0  0  0  0  0  0
    7.4947    8.3874   23.6231 H   0  0  0  0  0  0  0  0  0  0  0  0
    6.0420    9.4100   23.5008 H   0  0  0  0  0  0  0  0  0  0  0  0
    7.3043    9.5381   22.2771 H   0  0  0  0  0  0  0  0  0  0  0  0
   12.0089   10.6841   23.3156 H   0  0  0  0  0  0  0  0  0  0  0  0
   11.7670    9.2484   24.3364 H   0  0  0  0  0  0  0  0  0  0  0  0
   13.1609    9.3623   23.2401 H   0  0  0  0  0  0  0  0  0  0  0  0
   10.8202    6.9595   21.4802 H   0  0  0  0  0  0  0  0  0  0  0  0
   11.0019    7.0344   23.2239 H   0  0  0  0  0  0  0  0  0  0  0  0
   12.4447    7.1018   22.1877 H   0  0  0  0  0  0  0  0  0  0  0  0
   11.1337    9.0129   20.0604 H   0  0  0  0  0  0  0  0  0  0  0  0
   11.6015   10.5616   20.7953 H   0  0  0  0  0  0  0  0  0  0  0  0
   12.7667    9.2243   20.6677 H   0  0  0  0  0  0  0  0  0  0  0  0
    5.5320   11.9898   26.8782 H   0  0  0  0  0  0  0  0  0  0  0  0
    4.1733   11.0324   26.1973 H   0  0  0  0  0  0  0  0  0  0  0  0
    5.0412   10.4474   27.6571 H   0  0  0  0  0  0  0  0  0  0  0  0
    5.8800    9.3143   25.5992 H   0  0  0  0  0  0  0  0  0  0  0  0
  1  2  1  0  0  0  0
  1  3  2  0  0  0  0
  2  4  2  0  0  0  0
  3  6  1  0  0  0  0
  4  5  1  0  0  0  0
  4  7  1  0  0  0  0
  5  6  2  0  0  0  0
  5  8  1  0  0  0  0
  6 14  1  0  0  0  0
  7 15  2  0  0  0  0
  7 16  1  0  0  0  0
  9 13  1  0  0  0  0
 10 13  1  0  0  0  0
 11 13  1  0  0  0  0
 12 14  1  0  0  0  0
 13 16  1  0  0  0  0
  1 17  1  0  0  0  0
  2 18  1  0  0  0  0
  3 19  1  0  0  0  0
  8 20  1  0  0  0  0
  8 21  1  0  0  0  0
  8 22  1  0  0  0  0
  9 23  1  0  0  0  0
  9 24  1  0  0  0  0
  9 25  1  0  0  0  0
 10 26  1  0  0  0  0
 10 27  1  0  0  0  0
 10 28  1  0  0  0  0
 11 29  1  0  0  0  0
 11 30  1  0  0  0  0
 11 31  1  0  0  0  0
 12 32  1  0  0  0  0
 12 33  1  0  0  0  0
 12 34  1  0  0  0  0
 14 35  1  0  0  0  0
M  END
> <id>
EN300-27782614

> <smiles>
CNC=1C=CC=C(C(=O)OC(C)(C)C)C1C

> <IUPAC Name>
tert-butyl 2-methyl-3-(methylamino)benzoate

> <CAS>
2639451-77-5

> <URL>
https://www.enaminestore.com/catalog/EN300-27782614

> <ROCS_ShapeQuery>
_x1140_x0812_0A_x1140_0A_x1097_0A_x0365_0A_x1097_0A_x0310_0A

> <ROCS_TanimotoCombo>
0.620 

> <ROCS_ShapeTanimoto>
0.216 

> <ROCS_ColorTanimoto>
0.404 

> <ROCS_RefTversky>
0.198 

> <ROCS_RefColorTversky>
0.443 

> <ROCS_RefTverskyCombo>
0.641 

> <ROCS_FitTversky>
1.696 

> <ROCS_FitColorTversky>
0.822 

> <ROCS_FitTverskyCombo>
2.518 

> <ROCS_ColorScore>
-3.452

> <ROCS_Overlap>
2033.086

> <ROCS_Rank>
227                 

$$$$
untitled-dbase-534355_0
  -OEChem-02092423213D

 33 34  0     0  0  0  0  0  0999 V2000
    5.7240   12.1097   26.4601 C   0  0  0  0  0  0  0  0  0  0  0  0
    6.6709   12.6921   25.6224 C   0  0  0  0  0  0  0  0  0  0  0  0
    5.7052   10.7296   26.6189 C   0  0  0  0  0  0  0  0  0  0  0  0
    8.5677   12.4529   24.0906 C   0  0  0  0  0  0  0  0  0  0  0  0
    7.6037   11.8930   24.9398 C   0  0  0  0  0  0  0  0  0  0  0  0
    7.5904   10.4911   25.0962 C   0  0  0  0  0  0  0  0  0  0  0  0
    9.4749   11.6367   23.4306 C   0  0  0  0  0  0  0  0  0  0  0  0
    6.6328    9.9354   25.9402 C   0  0  0  0  0  0  0  0  0  0  0  0
    9.3840   10.2765   23.6463 C   0  0  0  0  0  0  0  0  0  0  0  0
   11.8059    9.6472   23.3563 C   0  0  0  0  0  0  0  0  0  0  0  0
   10.2139    9.4477   21.4168 C   0  0  0  0  0  0  0  0  0  0  0  0
   10.1168    7.8237   23.2968 C   0  0  0  0  0  0  0  0  0  0  0  0
   10.3279    9.3376   22.9679 C   0  0  0  0  0  0  0  0  0  0  0  0
    8.4697    9.6964   24.4571 N   0  0  0  0  0  0  0  0  0  0  0  0
   10.7198   13.5445   22.5745 N   0  0  0  0  0  0  0  0  0  0  0  0
   10.4429   12.1948   22.5780 N   0  0  0  0  0  0  0  0  0  0  0  0
    6.5528    8.2217   26.1831 Cl  0  0  0  0  0  0  0  0  0  0  0  0
    5.0048   12.7306   26.9854 H   0  0  0  0  0  0  0  0  0  0  0  0
    6.6771   13.7733   25.5051 H   0  0  0  0  0  0  0  0  0  0  0  0
    4.9625   10.2829   27.2753 H   0  0  0  0  0  0  0  0  0  0  0  0
    8.6071   13.5313   23.9462 H   0  0  0  0  0  0  0  0  0  0  0  0
   12.5200    8.9714   22.8712 H   0  0  0  0  0  0  0  0  0  0  0  0
   12.0901   10.6674   23.0762 H   0  0  0  0  0  0  0  0  0  0  0  0
   11.9416    9.5538   24.4403 H   0  0  0  0  0  0  0  0  0  0  0  0
   10.9036    8.7616   20.9132 H   0  0  0  0  0  0  0  0  0  0  0  0
    9.2070    9.2156   21.0502 H   0  0  0  0  0  0  0  0  0  0  0  0
   10.4624   10.4638   21.0885 H   0  0  0  0  0  0  0  0  0  0  0  0
   10.8323    7.1760   22.7760 H   0  0  0  0  0  0  0  0  0  0  0  0
   10.2361    7.6366   24.3704 H   0  0  0  0  0  0  0  0  0  0  0  0
    9.1128    7.4962   23.0024 H   0  0  0  0  0  0  0  0  0  0  0  0
   10.7990   13.8545   21.6071 H   0  0  0  0  0  0  0  0  0  0  0  0
   11.6386   13.6879   22.9917 H   0  0  0  0  0  0  0  0  0  0  0  0
   11.0893   11.5702   22.1122 H   0  0  0  0  0  0  0  0  0  0  0  0
  1  2  2  0  0  0  0
  1  3  1  0  0  0  0
  2  5  1  0  0  0  0
  3  8  2  0  0  0  0
  4  5  2  0  0  0  0
  4  7  1  0  0  0  0
  5  6  1  0  0  0  0
  6  8  1  0  0  0  0
  6 14  2  0  0  0  0
  7  9  2  0  0  0  0
  7 16  1  0  0  0  0
  8 17  1  0  0  0  0
  9 13  1  0  0  0  0
  9 14  1  0  0  0  0
 10 13  1  0  0  0  0
 11 13  1  0  0  0  0
 12 13  1  0  0  0  0
 15 16  1  0  0  0  0
  1 18  1  0  0  0  0
  2 19  1  0  0  0  0
  3 20  1  0  0  0  0
  4 21  1  0  0  0  0
 10 22  1  0  0  0  0
 10 23  1  0  0  0  0
 10 24  1  0  0  0  0
 11 25  1  0  0  0  0
 11 26  1  0  0  0  0
 11 27  1  0  0  0  0
 12 28  1  0  0  0  0
 12 29  1  0  0  0  0
 12 30  1  0  0  0  0
 15 31  1  0  0  0  0
 15 32  1  0  0  0  0
 16 33  1  0  0  0  0
M  END
> <id>
EN300-801795

> <smiles>
CC(C)(C)C=1N=C2C(Cl)=CC=CC2=CC1NN

> <IUPAC Name>
2-tert-butyl-8-chloro-3-hydrazinylquinoline

> <CAS>
2137862-10-1

> <URL>
https://www.enaminestore.com/catalog/EN300-801795

> <ROCS_ShapeQuery>
_x1140_x0812_0A_x1140_0A_x1097_0A_x0365_0A_x1097_0A_x0310_0A

> <ROCS_TanimotoCombo>
0.619 

> <ROCS_ShapeTanimoto>
0.283 

> <ROCS_ColorTanimoto>
0.336 

> <ROCS_RefTversky>
0.248 

> <ROCS_RefColorTversky>
0.455 

> <ROCS_RefTverskyCombo>
0.703 

> <ROCS_FitTversky>
2.024 

> <ROCS_FitColorTversky>
0.564 

> <ROCS_FitTverskyCombo>
2.588 

> <ROCS_ColorScore>
-3.601

> <ROCS_Overlap>
2539.715

> <ROCS_Rank>
228                 

$$$$
untitled-dbase-111696_0
  -OEChem-02092423213D

 33 34  0     0  0  0  0  0  0999 V2000
    6.6743   12.6911   25.6263 C   0  0  0  0  0  0  0  0  0  0  0  0
    5.7292   12.1085   26.4657 C   0  0  0  0  0  0  0  0  0  0  0  0
    8.5682   12.4526   24.0908 C   0  0  0  0  0  0  0  0  0  0  0  0
    6.6375    9.9344   25.9438 C   0  0  0  0  0  0  0  0  0  0  0  0
    7.6060   11.8923   24.9418 C   0  0  0  0  0  0  0  0  0  0  0  0
    7.5934   10.4904   25.0981 C   0  0  0  0  0  0  0  0  0  0  0  0
    9.4744   11.6367   23.4289 C   0  0  0  0  0  0  0  0  0  0  0  0
    5.7111   10.7283   26.6245 C   0  0  0  0  0  0  0  0  0  0  0  0
    9.3842   10.2765   23.6447 C   0  0  0  0  0  0  0  0  0  0  0  0
   11.8065    9.6488   23.3546 C   0  0  0  0  0  0  0  0  0  0  0  0
   10.2147    9.4483   21.4151 C   0  0  0  0  0  0  0  0  0  0  0  0
   10.1187    7.8241   23.2950 C   0  0  0  0  0  0  0  0  0  0  0  0
   10.3288    9.3382   22.9662 C   0  0  0  0  0  0  0  0  0  0  0  0
    8.4716    9.6961   24.4572 N   0  0  0  0  0  0  0  0  0  0  0  0
   10.7200   13.5450   22.5751 N   0  0  0  0  0  0  0  0  0  0  0  0
   10.4421   12.1954   22.5766 N   0  0  0  0  0  0  0  0  0  0  0  0
    4.5454    9.9961   27.6576 Cl  0  0  0  0  0  0  0  0  0  0  0  0
    6.6783   13.7726   25.5082 H   0  0  0  0  0  0  0  0  0  0  0  0
    5.0160   12.7415   26.9864 H   0  0  0  0  0  0  0  0  0  0  0  0
    8.6062   13.5308   23.9455 H   0  0  0  0  0  0  0  0  0  0  0  0
    6.6148    8.8532   26.0759 H   0  0  0  0  0  0  0  0  0  0  0  0
   12.5211    8.9736   22.8695 H   0  0  0  0  0  0  0  0  0  0  0  0
   12.0900   10.6693   23.0746 H   0  0  0  0  0  0  0  0  0  0  0  0
   11.9423    9.5554   24.4387 H   0  0  0  0  0  0  0  0  0  0  0  0
   10.9048    8.7628   20.9114 H   0  0  0  0  0  0  0  0  0  0  0  0
    9.2079    9.2157   21.0485 H   0  0  0  0  0  0  0  0  0  0  0  0
   10.4625   10.4647   21.0869 H   0  0  0  0  0  0  0  0  0  0  0  0
   10.8346    7.1770   22.7741 H   0  0  0  0  0  0  0  0  0  0  0  0
   10.2381    7.6370   24.3686 H   0  0  0  0  0  0  0  0  0  0  0  0
    9.1150    7.4960   23.0006 H   0  0  0  0  0  0  0  0  0  0  0  0
   10.7988   13.8565   21.6081 H   0  0  0  0  0  0  0  0  0  0  0  0
   11.6391   13.6871   22.9919 H   0  0  0  0  0  0  0  0  0  0  0  0
   11.0878   11.5712   22.1094 H   0  0  0  0  0  0  0  0  0  0  0  0
  1  2  2  0  0  0  0
  1  5  1  0  0  0  0
  2  8  1  0  0  0  0
  3  5  2  0  0  0  0
  3  7  1  0  0  0  0
  4  6  1  0  0  0  0
  4  8  2  0  0  0  0
  5  6  1  0  0  0  0
  6 14  2  0  0  0  0
  7  9  2  0  0  0  0
  7 16  1  0  0  0  0
  8 17  1  0  0  0  0
  9 13  1  0  0  0  0
  9 14  1  0  0  0  0
 10 13  1  0  0  0  0
 11 13  1  0  0  0  0
 12 13  1  0  0  0  0
 15 16  1  0  0  0  0
  1 18  1  0  0  0  0
  2 19  1  0  0  0  0
  3 20  1  0  0  0  0
  4 21  1  0  0  0  0
 10 22  1  0  0  0  0
 10 23  1  0  0  0  0
 10 24  1  0  0  0  0
 11 25  1  0  0  0  0
 11 26  1  0  0  0  0
 11 27  1  0  0  0  0
 12 28  1  0  0  0  0
 12 29  1  0  0  0  0
 12 30  1  0  0  0  0
 15 31  1  0  0  0  0
 15 32  1  0  0  0  0
 16 33  1  0  0  0  0
M  END
> <id>
EN300-801824

> <smiles>
CC(C)(C)C=1N=C2C=C(Cl)C=CC2=CC1NN

> <IUPAC Name>
2-tert-butyl-7-chloro-3-hydrazinylquinoline

> <CAS>
2138007-88-0

> <URL>
https://www.enaminestore.com/catalog/EN300-801824

> <ROCS_ShapeQuery>
_x1140_x0812_0A_x1140_0A_x1097_0A_x0365_0A_x1097_0A_x0310_0A

> <ROCS_TanimotoCombo>
0.619 

> <ROCS_ShapeTanimoto>
0.283 

> <ROCS_ColorTanimoto>
0.336 

> <ROCS_RefTversky>
0.248 

> <ROCS_RefColorTversky>
0.455 

> <ROCS_RefTverskyCombo>
0.703 

> <ROCS_FitTversky>
2.025 

> <ROCS_FitColorTversky>
0.564 

> <ROCS_FitTverskyCombo>
2.589 

> <ROCS_ColorScore>
-3.601

> <ROCS_Overlap>
2539.262

> <ROCS_Rank>
229                 

$$$$
untitled-dbase-587606_7
  -OEChem-02092423213D

 32 32  0     0  0  0  0  0  0999 V2000
    7.8896   10.4236   24.1922 C   0  0  0  0  0  0  0  0  0  0  0  0
    7.5288   12.1229   25.8713 C   0  0  0  0  0  0  0  0  0  0  0  0
    8.8568   11.2263   23.5875 C   0  0  0  0  0  0  0  0  0  0  0  0
    8.4961   12.9257   25.2666 C   0  0  0  0  0  0  0  0  0  0  0  0
    7.2256   10.8718   25.3341 C   0  0  0  0  0  0  0  0  0  0  0  0
    9.1601   12.4774   24.1247 C   0  0  0  0  0  0  0  0  0  0  0  0
    9.5610   10.7458   22.3719 C   0  0  0  0  0  0  0  0  0  0  0  0
   11.7265    9.3605   23.5942 C   0  0  0  0  0  0  0  0  0  0  0  0
   10.8667    7.3364   22.3804 C   0  0  0  0  0  0  0  0  0  0  0  0
   11.6711    9.3277   21.0781 C   0  0  0  0  0  0  0  0  0  0  0  0
    8.8180   14.2627   25.8435 C   0  0  0  0  0  0  0  0  0  0  0  0
   10.9808    8.8591   22.3583 C   0  0  0  0  0  0  0  0  0  0  0  0
    6.2475   10.0602   25.9458 N   0  0  0  0  0  0  0  0  0  0  0  0
    9.9851   11.4931   21.5041 O   0  0  0  0  0  0  0  0  0  0  0  0
    9.6554    9.3903   22.3807 O   0  0  0  0  0  0  0  0  0  0  0  0
   10.0900   13.2506   23.5442 F   0  0  0  0  0  0  0  0  0  0  0  0
    8.0906   14.5673   26.9590 F   0  0  0  0  0  0  0  0  0  0  0  0
   10.1235   14.3945   26.2231 F   0  0  0  0  0  0  0  0  0  0  0  0
    8.5871   15.2826   24.9664 F   0  0  0  0  0  0  0  0  0  0  0  0
    7.6522    9.4484   23.7727 H   0  0  0  0  0  0  0  0  0  0  0  0
    7.0115   12.4733   26.7618 H   0  0  0  0  0  0  0  0  0  0  0  0
   11.8105   10.4531   23.5820 H   0  0  0  0  0  0  0  0  0  0  0  0
   11.2223    9.0608   24.5187 H   0  0  0  0  0  0  0  0  0  0  0  0
   12.7511    8.9720   23.6171 H   0  0  0  0  0  0  0  0  0  0  0  0
   10.3324    6.9723   21.4955 H   0  0  0  0  0  0  0  0  0  0  0  0
   10.2893    7.0009   23.2494 H   0  0  0  0  0  0  0  0  0  0  0  0
   11.8509    6.8580   22.4124 H   0  0  0  0  0  0  0  0  0  0  0  0
   11.1364    8.9682   20.1915 H   0  0  0  0  0  0  0  0  0  0  0  0
   11.7289   10.4198   21.0276 H   0  0  0  0  0  0  0  0  0  0  0  0
   12.6870    8.9218   21.0123 H   0  0  0  0  0  0  0  0  0  0  0  0
    6.0057    9.1863   25.5244 H   0  0  0  0  0  0  0  0  0  0  0  0
    5.7458   10.4128   26.7356 H   0  0  0  0  0  0  0  0  0  0  0  0
  1  3  1  0  0  0  0
  1  5  2  0  0  0  0
  2  4  2  0  0  0  0
  2  5  1  0  0  0  0
  3  6  2  0  0  0  0
  3  7  1  0  0  0  0
  4  6  1  0  0  0  0
  4 11  1  0  0  0  0
  5 13  1  0  0  0  0
  6 16  1  0  0  0  0
  7 14  2  0  0  0  0
  7 15  1  0  0  0  0
  8 12  1  0  0  0  0
  9 12  1  0  0  0  0
 10 12  1  0  0  0  0
 11 17  1  0  0  0  0
 11 18  1  0  0  0  0
 11 19  1  0  0  0  0
 12 15  1  0  0  0  0
  1 20  1  0  0  0  0
  2 21  1  0  0  0  0
  8 22  1  0  0  0  0
  8 23  1  0  0  0  0
  8 24  1  0  0  0  0
  9 25  1  0  0  0  0
  9 26  1  0  0  0  0
  9 27  1  0  0  0  0
 10 28  1  0  0  0  0
 10 29  1  0  0  0  0
 10 30  1  0  0  0  0
 13 31  1  0  0  0  0
 13 32  1  0  0  0  0
M  END
> <id>
EN300-44826956

> <smiles>
CC(C)(C)OC(=O)C=1C=C(N)C=C(C1F)C(F)(F)F

> <IUPAC Name>
tert-butyl 5-amino-2-fluoro-3-(trifluoromethyl)benzoate

> <URL>
https://www.enaminestore.com/catalog/EN300-44826956

> <ROCS_ShapeQuery>
_x1140_x0812_0A_x1140_0A_x1097_0A_x0365_0A_x1097_0A_x0310_0A

> <ROCS_TanimotoCombo>
0.619 

> <ROCS_ShapeTanimoto>
0.235 

> <ROCS_ColorTanimoto>
0.384 

> <ROCS_RefTversky>
0.215 

> <ROCS_RefColorTversky>
0.460 

> <ROCS_RefTverskyCombo>
0.675 

> <ROCS_FitTversky>
1.638 

> <ROCS_FitColorTversky>
0.701 

> <ROCS_FitTverskyCombo>
2.338 

> <ROCS_ColorScore>
-3.609

> <ROCS_Overlap>
2210.627

> <ROCS_Rank>
230                 

$$$$
untitled-dbase-539862_8
  -OEChem-02092423213D

 25 25  0     0  0  0  0  0  0999 V2000
    8.8779   10.9472   23.6332 C   0  0  0  0  0  0  0  0  0  0  0  0
    8.9554   12.1830   24.2406 C   0  0  0  0  0  0  0  0  0  0  0  0
    7.4087   10.6231   25.2288 C   0  0  0  0  0  0  0  0  0  0  0  0
    9.6741   10.5510   22.4442 C   0  0  0  0  0  0  0  0  0  0  0  0
   10.8550    7.2154   21.5277 C   0  0  0  0  0  0  0  0  0  0  0  0
   10.6782    8.7094   21.3597 C   0  0  0  0  0  0  0  0  0  0  0  0
    9.7823   13.3611   23.9074 C   0  0  0  0  0  0  0  0  0  0  0  0
   11.2805   13.0713   23.9620 C   0  0  0  0  0  0  0  0  0  0  0  0
    7.9918   10.0513   24.1987 N   0  0  0  0  0  0  0  0  0  0  0  0
    6.4779   10.0191   26.0146 N   0  0  0  0  0  0  0  0  0  0  0  0
   10.0449   11.3433   21.5920 O   0  0  0  0  0  0  0  0  0  0  0  0
    9.9205    9.2109   22.4505 O   0  0  0  0  0  0  0  0  0  0  0  0
    9.5311   13.8668   22.6509 F   0  0  0  0  0  0  0  0  0  0  0  0
    9.5649   14.4347   24.7428 F   0  0  0  0  0  0  0  0  0  0  0  0
   11.6278   12.0965   23.0917 F   0  0  0  0  0  0  0  0  0  0  0  0
   11.6532   12.6666   25.1951 F   0  0  0  0  0  0  0  0  0  0  0  0
   12.0001   14.1702   23.6494 F   0  0  0  0  0  0  0  0  0  0  0  0
    7.8780   12.2373   25.5738 S   0  0  0  0  0  0  0  0  0  0  0  0
   11.3863    6.9872   22.4558 H   0  0  0  0  0  0  0  0  0  0  0  0
    9.8832    6.7110   21.5434 H   0  0  0  0  0  0  0  0  0  0  0  0
   11.4173    6.7965   20.6865 H   0  0  0  0  0  0  0  0  0  0  0  0
   10.1462    8.9308   20.4297 H   0  0  0  0  0  0  0  0  0  0  0  0
   11.6500    9.2119   21.3450 H   0  0  0  0  0  0  0  0  0  0  0  0
    6.1357    9.0732   25.8142 H   0  0  0  0  0  0  0  0  0  0  0  0
    6.0136   10.5190   26.7804 H   0  0  0  0  0  0  0  0  0  0  0  0
  1  2  2  0  0  0  0
  1  4  1  0  0  0  0
  1  9  1  0  0  0  0
  2  7  1  0  0  0  0
  2 18  1  0  0  0  0
  3  9  2  0  0  0  0
  3 10  1  0  0  0  0
  3 18  1  0  0  0  0
  4 11  2  0  0  0  0
  4 12  1  0  0  0  0
  5  6  1  0  0  0  0
  6 12  1  0  0  0  0
  7  8  1  0  0  0  0
  7 13  1  0  0  0  0
  7 14  1  0  0  0  0
  8 15  1  0  0  0  0
  8 16  1  0  0  0  0
  8 17  1  0  0  0  0
  5 19  1  0  0  0  0
  5 20  1  0  0  0  0
  5 21  1  0  0  0  0
  6 22  1  0  0  0  0
  6 23  1  0  0  0  0
 10 24  1  0  0  0  0
 10 25  1  0  0  0  0
M  END
> <id>
EN300-1458411

> <smiles>
CCOC(=O)C=1N=C(N)SC1C(F)(F)C(F)(F)F

> <IUPAC Name>
ethyl 2-amino-5-(pentafluoroethyl)-1,3-thiazole-4-carboxylate

> <CAS>
2172127-07-8

> <URL>
https://www.enaminestore.com/catalog/EN300-1458411

> <ROCS_ShapeQuery>
_x1140_x0812_0A_x1140_0A_x1097_0A_x0365_0A_x1097_0A_x0310_0A

> <ROCS_TanimotoCombo>
0.619 

> <ROCS_ShapeTanimoto>
0.253 

> <ROCS_ColorTanimoto>
0.367 

> <ROCS_RefTversky>
0.227 

> <ROCS_RefColorTversky>
0.445 

> <ROCS_RefTverskyCombo>
0.672 

> <ROCS_FitTversky>
1.787 

> <ROCS_FitColorTversky>
0.677 

> <ROCS_FitTverskyCombo>
2.464 

> <ROCS_ColorScore>
-3.491

> <ROCS_Overlap>
2332.151

> <ROCS_Rank>
231                 

$$$$
untitled-dbase-539563_5
  -OEChem-02092423213D

 32 32  0     0  0  0  0  0  0999 V2000
    8.2610   11.7619   25.1831 C   0  0  0  0  0  0  0  0  0  0  0  0
    9.3790   11.6276   24.3967 C   0  0  0  0  0  0  0  0  0  0  0  0
    7.6106   10.5172   25.0857 C   0  0  0  0  0  0  0  0  0  0  0  0
   10.4044   10.5295   21.6738 C   0  0  0  0  0  0  0  0  0  0  0  0
   10.4643   12.5758   24.0860 C   0  0  0  0  0  0  0  0  0  0  0  0
   10.5238   10.1858   18.5494 C   0  0  0  0  0  0  0  0  0  0  0  0
   11.7668    9.7009   23.5257 C   0  0  0  0  0  0  0  0  0  0  0  0
    9.8819    8.2602   22.7448 C   0  0  0  0  0  0  0  0  0  0  0  0
   11.5069   10.6898   19.5844 C   0  0  0  0  0  0  0  0  0  0  0  0
   10.3200    9.7216   22.9821 C   0  0  0  0  0  0  0  0  0  0  0  0
    8.2612    9.6556   24.2993 N   0  0  0  0  0  0  0  0  0  0  0  0
    9.3320   10.3601   23.8953 N   0  0  0  0  0  0  0  0  0  0  0  0
    6.4477   10.2743   25.7433 N   0  0  0  0  0  0  0  0  0  0  0  0
    9.7827   11.5676   21.4725 O   0  0  0  0  0  0  0  0  0  0  0  0
   11.3024    9.9761   20.8080 O   0  0  0  0  0  0  0  0  0  0  0  0
    7.9650   12.6375   25.7438 H   0  0  0  0  0  0  0  0  0  0  0  0
   11.2884   12.4916   24.8142 H   0  0  0  0  0  0  0  0  0  0  0  0
   10.8886   12.4069   23.0808 H   0  0  0  0  0  0  0  0  0  0  0  0
   10.1160   13.6236   24.0958 H   0  0  0  0  0  0  0  0  0  0  0  0
   10.6698    9.1188   18.3596 H   0  0  0  0  0  0  0  0  0  0  0  0
    9.4940   10.3477   18.8841 H   0  0  0  0  0  0  0  0  0  0  0  0
   10.6418   10.7315   17.6073 H   0  0  0  0  0  0  0  0  0  0  0  0
   11.8253    9.1437   24.4689 H   0  0  0  0  0  0  0  0  0  0  0  0
   12.4533    9.2096   22.8257 H   0  0  0  0  0  0  0  0  0  0  0  0
   12.1412   10.7111   23.7257 H   0  0  0  0  0  0  0  0  0  0  0  0
    9.8260    7.6971   23.6837 H   0  0  0  0  0  0  0  0  0  0  0  0
    8.8915    8.2161   22.2763 H   0  0  0  0  0  0  0  0  0  0  0  0
   10.5822    7.7254   22.0931 H   0  0  0  0  0  0  0  0  0  0  0  0
   11.3556   11.7574   19.7695 H   0  0  0  0  0  0  0  0  0  0  0  0
   12.5354   10.5265   19.2487 H   0  0  0  0  0  0  0  0  0  0  0  0
    6.0262   10.9693   26.3705 H   0  0  0  0  0  0  0  0  0  0  0  0
    5.9929    9.3544   25.7147 H   0  0  0  0  0  0  0  0  0  0  0  0
  1  2  2  0  0  0  0
  1  3  1  0  0  0  0
  2  5  1  0  0  0  0
  2 12  1  0  0  0  0
  3 11  2  0  0  0  0
  3 13  1  0  0  0  0
  4 10  1  0  0  0  0
  4 14  2  0  0  0  0
  4 15  1  0  0  0  0
  6  9  1  0  0  0  0
  7 10  1  0  0  0  0
  8 10  1  0  0  0  0
  9 15  1  0  0  0  0
 10 12  1  0  0  0  0
 11 12  1  0  0  0  0
  1 16  1  0  0  0  0
  5 17  1  0  0  0  0
  5 18  1  0  0  0  0
  5 19  1  0  0  0  0
  6 20  1  0  0  0  0
  6 21  1  0  0  0  0
  6 22  1  0  0  0  0
  7 23  1  0  0  0  0
  7 24  1  0  0  0  0
  7 25  1  0  0  0  0
  8 26  1  0  0  0  0
  8 27  1  0  0  0  0
  8 28  1  0  0  0  0
  9 29  1  0  0  0  0
  9 30  1  0  0  0  0
 13 31  1  0  0  0  0
 13 32  1  0  0  0  0
M  END
> <id>
EN300-804959

> <smiles>
CCOC(=O)C(C)(C)N1N=C(N)C=C1C

> <MDLNUMBER>
MFCD31473448

> <IUPAC Name>
ethyl 2-(3-amino-5-methyl-1H-pyrazol-1-yl)-2-methylpropanoate

> <CAS>
1698316-14-1

> <URL>
https://www.enaminestore.com/catalog/EN300-804959

> <ROCS_ShapeQuery>
_x1140_x0812_0A_x1140_0A_x1097_0A_x0365_0A_x1097_0A_x0310_0A

> <ROCS_TanimotoCombo>
0.619 

> <ROCS_ShapeTanimoto>
0.209 

> <ROCS_ColorTanimoto>
0.410 

> <ROCS_RefTversky>
0.193 

> <ROCS_RefColorTversky>
0.516 

> <ROCS_RefTverskyCombo>
0.708 

> <ROCS_FitTversky>
1.696 

> <ROCS_FitColorTversky>
0.667 

> <ROCS_FitTverskyCombo>
2.363 

> <ROCS_ColorScore>
-4.075

> <ROCS_Overlap>
1973.915

> <ROCS_Rank>
232                 

$$$$
untitled-dbase-406369_9
  -OEChem-02092423213D

 30 30  0     0  0  0  0  0  0999 V2000
    8.1408   12.2874   25.4405 C   0  0  0  0  0  0  0  0  0  0  0  0
    7.9275   10.9248   25.4413 C   0  0  0  0  0  0  0  0  0  0  0  0
    8.9187   11.1022   23.4930 C   0  0  0  0  0  0  0  0  0  0  0  0
    9.4994   10.7081   22.1964 C   0  0  0  0  0  0  0  0  0  0  0  0
   10.9071    8.4873   23.7128 C   0  0  0  0  0  0  0  0  0  0  0  0
   11.9831    9.0158   21.5171 C   0  0  0  0  0  0  0  0  0  0  0  0
    5.3064    9.0083   27.2764 C   0  0  0  0  0  0  0  0  0  0  0  0
    7.2738   10.1547   26.5177 C   0  0  0  0  0  0  0  0  0  0  0  0
    9.4711    9.2347   21.7893 C   0  0  0  0  0  0  0  0  0  0  0  0
   10.7316    8.4498   22.1931 C   0  0  0  0  0  0  0  0  0  0  0  0
    8.3726   10.2436   24.3252 N   0  0  0  0  0  0  0  0  0  0  0  0
    5.9227    9.7579   26.1854 N   0  0  0  0  0  0  0  0  0  0  0  0
    9.9842   11.5539   21.4441 O   0  0  0  0  0  0  0  0  0  0  0  0
    8.9317   12.7450   23.9891 S   0  0  0  0  0  0  0  0  0  0  0  0
    7.8819   13.0147   26.1968 H   0  0  0  0  0  0  0  0  0  0  0  0
   11.0210    9.5177   24.0659 H   0  0  0  0  0  0  0  0  0  0  0  0
   11.7918    7.9219   24.0253 H   0  0  0  0  0  0  0  0  0  0  0  0
   10.0345    8.0579   24.2162 H   0  0  0  0  0  0  0  0  0  0  0  0
   12.1415   10.0657   21.7816 H   0  0  0  0  0  0  0  0  0  0  0  0
   11.8916    8.9608   20.4270 H   0  0  0  0  0  0  0  0  0  0  0  0
   12.8789    8.4563   21.8078 H   0  0  0  0  0  0  0  0  0  0  0  0
    5.2909    9.6281   28.1849 H   0  0  0  0  0  0  0  0  0  0  0  0
    4.2768    8.7378   26.9995 H   0  0  0  0  0  0  0  0  0  0  0  0
    5.8872    8.0936   27.4666 H   0  0  0  0  0  0  0  0  0  0  0  0
    7.8279    9.2294   26.7563 H   0  0  0  0  0  0  0  0  0  0  0  0
    7.2125   10.7246   27.4617 H   0  0  0  0  0  0  0  0  0  0  0  0
    8.5912    8.7574   22.2364 H   0  0  0  0  0  0  0  0  0  0  0  0
    9.3634    9.2103   20.6978 H   0  0  0  0  0  0  0  0  0  0  0  0
   10.6224    7.4000   21.8940 H   0  0  0  0  0  0  0  0  0  0  0  0
    5.9313    9.1716   25.3472 H   0  0  0  0  0  0  0  0  0  0  0  0
  1  2  2  0  0  0  0
  1 14  1  0  0  0  0
  2  8  1  0  0  0  0
  2 11  1  0  0  0  0
  3  4  1  0  0  0  0
  3 11  2  0  0  0  0
  3 14  1  0  0  0  0
  4  9  1  0  0  0  0
  4 13  2  0  0  0  0
  5 10  1  0  0  0  0
  6 10  1  0  0  0  0
  7 12  1  0  0  0  0
  8 12  1  0  0  0  0
  9 10  1  0  0  0  0
  1 15  1  0  0  0  0
  5 16  1  0  0  0  0
  5 17  1  0  0  0  0
  5 18  1  0  0  0  0
  6 19  1  0  0  0  0
  6 20  1  0  0  0  0
  6 21  1  0  0  0  0
  7 22  1  0  0  0  0
  7 23  1  0  0  0  0
  7 24  1  0  0  0  0
  8 25  1  0  0  0  0
  8 26  1  0  0  0  0
  9 27  1  0  0  0  0
  9 28  1  0  0  0  0
 10 29  1  0  0  0  0
 12 30  1  0  0  0  0
M  END
> <id>
EN300-1269079

> <smiles>
CNCC1=CSC(=N1)C(=O)CC(C)C

> <IUPAC Name>
3-methyl-1-{4-[(methylamino)methyl]-1,3-thiazol-2-yl}butan-1-one

> <CAS>
2167741-41-3

> <URL>
https://www.enaminestore.com/catalog/EN300-1269079

> <ROCS_ShapeQuery>
_x1140_x0812_0A_x1140_0A_x1097_0A_x0365_0A_x1097_0A_x0310_0A

> <ROCS_TanimotoCombo>
0.619 

> <ROCS_ShapeTanimoto>
0.190 

> <ROCS_ColorTanimoto>
0.429 

> <ROCS_RefTversky>
0.177 

> <ROCS_RefColorTversky>
0.532 

> <ROCS_RefTverskyCombo>
0.709 

> <ROCS_FitTversky>
1.679 

> <ROCS_FitColorTversky>
0.689 

> <ROCS_FitTverskyCombo>
2.368 

> <ROCS_ColorScore>
-4.201

> <ROCS_Overlap>
1812.453

> <ROCS_Rank>
233                 

$$$$
untitled-dbase-504728_4
  -OEChem-02092423213D

 32 32  0     0  0  0  0  0  0999 V2000
    9.2809   11.7605   23.6759 C   0  0  0  0  0  0  0  0  0  0  0  0
    8.4214   12.5313   24.4318 C   0  0  0  0  0  0  0  0  0  0  0  0
    9.0847   10.3968   23.7535 C   0  0  0  0  0  0  0  0  0  0  0  0
    7.3523   10.6774   25.1981 C   0  0  0  0  0  0  0  0  0  0  0  0
   10.8291   11.8311   21.6988 C   0  0  0  0  0  0  0  0  0  0  0  0
    8.5351   14.0210   24.4297 C   0  0  0  0  0  0  0  0  0  0  0  0
   10.0723   13.3775   19.7213 C   0  0  0  0  0  0  0  0  0  0  0  0
   12.2275   14.6472   19.9493 C   0  0  0  0  0  0  0  0  0  0  0  0
   12.2272   12.3600   18.9117 C   0  0  0  0  0  0  0  0  0  0  0  0
   11.5777   13.2652   19.9574 C   0  0  0  0  0  0  0  0  0  0  0  0
    7.4422   12.0210   25.2071 N   0  0  0  0  0  0  0  0  0  0  0  0
    8.1266    9.8190   24.5074 N   0  0  0  0  0  0  0  0  0  0  0  0
   10.2974   12.3268   22.8735 N   0  0  0  0  0  0  0  0  0  0  0  0
   10.5253   10.7976   21.1157 O   0  0  0  0  0  0  0  0  0  0  0  0
    9.8880    9.5474   23.0381 O   0  0  0  0  0  0  0  0  0  0  0  0
    6.3648   10.1223   25.9784 O   0  0  0  0  0  0  0  0  0  0  0  0
   11.7939   12.6957   21.2491 O   0  0  0  0  0  0  0  0  0  0  0  0
    7.9107   14.4479   23.6366 H   0  0  0  0  0  0  0  0  0  0  0  0
    8.2179   14.4436   25.3907 H   0  0  0  0  0  0  0  0  0  0  0  0
    9.5725   14.3385   24.2677 H   0  0  0  0  0  0  0  0  0  0  0  0
    9.6021   12.3876   19.7264 H   0  0  0  0  0  0  0  0  0  0  0  0
    9.5892   13.9958   20.4849 H   0  0  0  0  0  0  0  0  0  0  0  0
    9.8621   13.8144   18.7384 H   0  0  0  0  0  0  0  0  0  0  0  0
   13.3077   14.5714   20.1184 H   0  0  0  0  0  0  0  0  0  0  0  0
   11.8312   15.2696   20.7597 H   0  0  0  0  0  0  0  0  0  0  0  0
   12.0607   15.1665   19.0001 H   0  0  0  0  0  0  0  0  0  0  0  0
   13.3071   12.2793   19.0809 H   0  0  0  0  0  0  0  0  0  0  0  0
   11.7986   11.3526   18.9282 H   0  0  0  0  0  0  0  0  0  0  0  0
   12.1021   12.7752   17.9052 H   0  0  0  0  0  0  0  0  0  0  0  0
   10.6853   13.2080   23.2015 H   0  0  0  0  0  0  0  0  0  0  0  0
    9.6222    8.6317   23.2008 H   0  0  0  0  0  0  0  0  0  0  0  0
    5.8753   10.8241   26.4257 H   0  0  0  0  0  0  0  0  0  0  0  0
  1  2  2  0  0  0  0
  1  3  1  0  0  0  0
  1 13  1  0  0  0  0
  2  6  1  0  0  0  0
  2 11  1  0  0  0  0
  3 12  2  0  0  0  0
  3 15  1  0  0  0  0
  4 11  2  0  0  0  0
  4 12  1  0  0  0  0
  4 16  1  0  0  0  0
  5 13  1  0  0  0  0
  5 14  2  0  0  0  0
  5 17  1  0  0  0  0
  7 10  1  0  0  0  0
  8 10  1  0  0  0  0
  9 10  1  0  0  0  0
 10 17  1  0  0  0  0
  6 18  1  0  0  0  0
  6 19  1  0  0  0  0
  6 20  1  0  0  0  0
  7 21  1  0  0  0  0
  7 22  1  0  0  0  0
  7 23  1  0  0  0  0
  8 24  1  0  0  0  0
  8 25  1  0  0  0  0
  8 26  1  0  0  0  0
  9 27  1  0  0  0  0
  9 28  1  0  0  0  0
  9 29  1  0  0  0  0
 13 30  1  0  0  0  0
 15 31  1  0  0  0  0
 16 32  1  0  0  0  0
M  END
> <id>
EN300-28277194

> <smiles>
CC=1N=C(O)N=C(O)C1NC(=O)OC(C)(C)C

> <IUPAC Name>
tert-butyl N-(2,4-dihydroxy-6-methylpyrimidin-5-yl)carbamate

> <CAS>
2680834-02-8

> <URL>
https://www.enaminestore.com/catalog/EN300-28277194

> <ROCS_ShapeQuery>
_x1140_x0812_0A_x1140_0A_x1097_0A_x0365_0A_x1097_0A_x0310_0A

> <ROCS_TanimotoCombo>
0.619 

> <ROCS_ShapeTanimoto>
0.239 

> <ROCS_ColorTanimoto>
0.380 

> <ROCS_RefTversky>
0.217 

> <ROCS_RefColorTversky>
0.613 

> <ROCS_RefTverskyCombo>
0.830 

> <ROCS_FitTversky>
1.761 

> <ROCS_FitColorTversky>
0.500 

> <ROCS_FitTverskyCombo>
2.261 

> <ROCS_ColorScore>
-4.968

> <ROCS_Overlap>
2223.658

> <ROCS_Rank>
234                 

$$$$
untitled-dbase-473146_7
  -OEChem-02092423213D

 28 28  0     0  0  0  0  0  0999 V2000
    8.4574   12.4079   24.1853 C   0  0  0  0  0  0  0  0  0  0  0  0
    9.2149   11.4810   23.4780 C   0  0  0  0  0  0  0  0  0  0  0  0
    7.4769   11.9678   25.0676 C   0  0  0  0  0  0  0  0  0  0  0  0
    8.9550   10.1362   23.6870 C   0  0  0  0  0  0  0  0  0  0  0  0
    7.2947   10.6012   25.2053 C   0  0  0  0  0  0  0  0  0  0  0  0
   10.2437   11.9401   22.5571 C   0  0  0  0  0  0  0  0  0  0  0  0
    6.6661   12.9642   25.8244 C   0  0  0  0  0  0  0  0  0  0  0  0
    9.7366    9.0932   22.9565 C   0  0  0  0  0  0  0  0  0  0  0  0
   11.0637   14.9945   22.5666 C   0  0  0  0  0  0  0  0  0  0  0  0
   11.8439   13.7043   22.4304 C   0  0  0  0  0  0  0  0  0  0  0  0
    8.0110    9.6707   24.5355 N   0  0  0  0  0  0  0  0  0  0  0  0
    6.2966   10.1474   26.1035 N   0  0  0  0  0  0  0  0  0  0  0  0
   10.2586   11.6915   21.3446 O   0  0  0  0  0  0  0  0  0  0  0  0
   11.1959   12.6843   23.1980 O   0  0  0  0  0  0  0  0  0  0  0  0
    8.6285   13.4731   24.0484 H   0  0  0  0  0  0  0  0  0  0  0  0
    5.7666   13.2349   25.2576 H   0  0  0  0  0  0  0  0  0  0  0  0
    6.3559   12.5677   26.8000 H   0  0  0  0  0  0  0  0  0  0  0  0
    7.2408   13.8787   26.0219 H   0  0  0  0  0  0  0  0  0  0  0  0
   10.6261    8.8132   23.5323 H   0  0  0  0  0  0  0  0  0  0  0  0
    9.1329    8.1937   22.7853 H   0  0  0  0  0  0  0  0  0  0  0  0
   10.0566    9.4558   21.9719 H   0  0  0  0  0  0  0  0  0  0  0  0
   10.0423   14.8739   22.1950 H   0  0  0  0  0  0  0  0  0  0  0  0
   11.0237   15.3127   23.6135 H   0  0  0  0  0  0  0  0  0  0  0  0
   11.5502   15.8005   22.0073 H   0  0  0  0  0  0  0  0  0  0  0  0
   12.8643   13.8317   22.8038 H   0  0  0  0  0  0  0  0  0  0  0  0
   11.8821   13.3874   21.3840 H   0  0  0  0  0  0  0  0  0  0  0  0
    5.7919   10.8183   26.6406 H   0  0  0  0  0  0  0  0  0  0  0  0
    6.1883    9.1671   26.2463 H   0  0  0  0  0  0  0  0  0  0  0  0
  1  2  1  0  0  0  0
  1  3  2  0  0  0  0
  2  4  2  0  0  0  0
  2  6  1  0  0  0  0
  3  5  1  0  0  0  0
  3  7  1  0  0  0  0
  4  8  1  0  0  0  0
  4 11  1  0  0  0  0
  5 11  2  0  0  0  0
  5 12  1  0  0  0  0
  6 13  2  0  0  0  0
  6 14  1  0  0  0  0
  9 10  1  0  0  0  0
 10 14  1  0  0  0  0
  1 15  1  0  0  0  0
  7 16  1  0  0  0  0
  7 17  1  0  0  0  0
  7 18  1  0  0  0  0
  8 19  1  0  0  0  0
  8 20  1  0  0  0  0
  8 21  1  0  0  0  0
  9 22  1  0  0  0  0
  9 23  1  0  0  0  0
  9 24  1  0  0  0  0
 10 25  1  0  0  0  0
 10 26  1  0  0  0  0
 12 27  1  0  0  0  0
 12 28  1  0  0  0  0
M  END
> <id>
EN300-27726209

> <smiles>
CCOC(=O)C=1C=C(C)C(N)=NC1C

> <IUPAC Name>
ethyl 6-amino-2,5-dimethylpyridine-3-carboxylate

> <CAS>
2580187-12-6

> <URL>
https://www.enaminestore.com/catalog/EN300-27726209

> <ROCS_ShapeQuery>
_x1140_x0812_0A_x1140_0A_x1097_0A_x0365_0A_x1097_0A_x0310_0A

> <ROCS_TanimotoCombo>
0.619 

> <ROCS_ShapeTanimoto>
0.258 

> <ROCS_ColorTanimoto>
0.361 

> <ROCS_RefTversky>
0.228 

> <ROCS_RefColorTversky>
0.439 

> <ROCS_RefTverskyCombo>
0.667 

> <ROCS_FitTversky>
2.090 

> <ROCS_FitColorTversky>
0.669 

> <ROCS_FitTverskyCombo>
2.759 

> <ROCS_ColorScore>
-3.449

> <ROCS_Overlap>
2334.061

> <ROCS_Rank>
235                 

$$$$
untitled-dbase-567736_5
  -OEChem-02092423213D

 22 22  0     0  0  0  0  0  0999 V2000
    8.4479   12.5182   24.2079 C   0  0  0  0  0  0  0  0  0  0  0  0
    9.2232   11.5796   23.5363 C   0  0  0  0  0  0  0  0  0  0  0  0
    7.5505   12.1000   25.1841 C   0  0  0  0  0  0  0  0  0  0  0  0
    9.0648   10.2455   23.8752 C   0  0  0  0  0  0  0  0  0  0  0  0
    7.4668   10.7426   25.4492 C   0  0  0  0  0  0  0  0  0  0  0  0
   10.1627   12.0272   22.5173 C   0  0  0  0  0  0  0  0  0  0  0  0
   13.2679   12.4637   22.1145 C   0  0  0  0  0  0  0  0  0  0  0  0
   12.0754   13.3961   22.1283 C   0  0  0  0  0  0  0  0  0  0  0  0
    8.2034    9.8012   24.8177 N   0  0  0  0  0  0  0  0  0  0  0  0
    9.8525    9.2827   23.1958 N   0  0  0  0  0  0  0  0  0  0  0  0
   10.1246   11.6783   21.3311 O   0  0  0  0  0  0  0  0  0  0  0  0
   11.0936   12.8841   23.0358 O   0  0  0  0  0  0  0  0  0  0  0  0
    6.5994   13.2767   26.0060 Cl  0  0  0  0  0  0  0  0  0  0  0  0
    6.4015   10.0801   26.6293 Cl  0  0  0  0  0  0  0  0  0  0  0  0
    8.5467   13.5747   23.9681 H   0  0  0  0  0  0  0  0  0  0  0  0
   13.7169   12.3895   23.1089 H   0  0  0  0  0  0  0  0  0  0  0  0
   12.9713   11.4625   21.7849 H   0  0  0  0  0  0  0  0  0  0  0  0
   14.0271   12.8187   21.4097 H   0  0  0  0  0  0  0  0  0  0  0  0
   11.6311   13.4658   21.1310 H   0  0  0  0  0  0  0  0  0  0  0  0
   12.3734   14.3957   22.4586 H   0  0  0  0  0  0  0  0  0  0  0  0
   10.4591    9.5863   22.4658 H   0  0  0  0  0  0  0  0  0  0  0  0
    9.7123    8.3172   23.3988 H   0  0  0  0  0  0  0  0  0  0  0  0
  1  2  1  0  0  0  0
  1  3  2  0  0  0  0
  2  4  2  0  0  0  0
  2  6  1  0  0  0  0
  3  5  1  0  0  0  0
  3 13  1  0  0  0  0
  4  9  1  0  0  0  0
  4 10  1  0  0  0  0
  5  9  2  0  0  0  0
  5 14  1  0  0  0  0
  6 11  2  0  0  0  0
  6 12  1  0  0  0  0
  7  8  1  0  0  0  0
  8 12  1  0  0  0  0
  1 15  1  0  0  0  0
  7 16  1  0  0  0  0
  7 17  1  0  0  0  0
  7 18  1  0  0  0  0
  8 19  1  0  0  0  0
  8 20  1  0  0  0  0
 10 21  1  0  0  0  0
 10 22  1  0  0  0  0
M  END
> <id>
EN300-29222027

> <smiles>
CCOC(=O)C=1C=C(Cl)C(Cl)=NC1N

> <IUPAC Name>
ethyl 2-amino-5,6-dichloropyridine-3-carboxylate

> <CAS>
2090361-21-8

> <URL>
https://www.enaminestore.com/catalog/EN300-29222027

> <ROCS_ShapeQuery>
_x1140_x0812_0A_x1140_0A_x1097_0A_x0365_0A_x1097_0A_x0310_0A

> <ROCS_TanimotoCombo>
0.619 

> <ROCS_ShapeTanimoto>
0.246 

> <ROCS_ColorTanimoto>
0.373 

> <ROCS_RefTversky>
0.219 

> <ROCS_RefColorTversky>
0.450 

> <ROCS_RefTverskyCombo>
0.669 

> <ROCS_FitTversky>
2.030 

> <ROCS_FitColorTversky>
0.685 

> <ROCS_FitTverskyCombo>
2.715 

> <ROCS_ColorScore>
-3.532

> <ROCS_Overlap>
2244.918

> <ROCS_Rank>
236                 

$$$$
untitled-dbase-352822_4
  -OEChem-02092423213D

 45 45  0     0  0  0  0  0  0999 V2000
    8.6688   14.4845   25.9472 B   0  0  0  0  0  0  0  0  0  0  0  0
    8.4222   13.0179   25.3692 C   0  0  0  0  0  0  0  0  0  0  0  0
    9.0101   11.2458   23.8360 C   0  0  0  0  0  0  0  0  0  0  0  0
    9.2271   12.5279   24.3409 C   0  0  0  0  0  0  0  0  0  0  0  0
    7.4003   12.2259   25.8928 C   0  0  0  0  0  0  0  0  0  0  0  0
    7.9881   10.4538   24.3595 C   0  0  0  0  0  0  0  0  0  0  0  0
    7.1832   10.9439   25.3879 C   0  0  0  0  0  0  0  0  0  0  0  0
    9.8634   10.7187   22.7413 C   0  0  0  0  0  0  0  0  0  0  0  0
   10.3387   13.3470   23.7476 C   0  0  0  0  0  0  0  0  0  0  0  0
    6.5094   12.7133   27.0008 C   0  0  0  0  0  0  0  0  0  0  0  0
    7.7542    9.0773   23.8170 C   0  0  0  0  0  0  0  0  0  0  0  0
   12.4441   10.0009   21.7783 C   0  0  0  0  0  0  0  0  0  0  0  0
   11.9981    7.7579   22.8172 C   0  0  0  0  0  0  0  0  0  0  0  0
   10.5263    8.5911   20.9604 C   0  0  0  0  0  0  0  0  0  0  0  0
    4.7742   10.5264   25.8856 C   0  0  0  0  0  0  0  0  0  0  0  0
   11.3679    8.9901   22.1717 C   0  0  0  0  0  0  0  0  0  0  0  0
    6.1473   10.1374   25.9166 N   0  0  0  0  0  0  0  0  0  0  0  0
    9.9492   11.2488   21.6444 O   0  0  0  0  0  0  0  0  0  0  0  0
    9.8700   14.8319   26.5149 O   0  0  0  0  0  0  0  0  0  0  0  0
    7.6550   15.4098   25.8748 O   0  0  0  0  0  0  0  0  0  0  0  0
   10.5109    9.5932   23.1420 O   0  0  0  0  0  0  0  0  0  0  0  0
   11.2664   13.1650   24.2960 H   0  0  0  0  0  0  0  0  0  0  0  0
   10.4895   13.0902   22.6953 H   0  0  0  0  0  0  0  0  0  0  0  0
   10.1002   14.4134   23.7929 H   0  0  0  0  0  0  0  0  0  0  0  0
    5.6362   13.2176   26.5793 H   0  0  0  0  0  0  0  0  0  0  0  0
    6.1742   11.8789   27.6232 H   0  0  0  0  0  0  0  0  0  0  0  0
    7.0460   13.4107   27.6502 H   0  0  0  0  0  0  0  0  0  0  0  0
    8.3494    8.3476   24.3752 H   0  0  0  0  0  0  0  0  0  0  0  0
    6.6968    8.8013   23.8910 H   0  0  0  0  0  0  0  0  0  0  0  0
    8.0292    9.0215   22.7580 H   0  0  0  0  0  0  0  0  0  0  0  0
   11.9957   10.8869   21.3146 H   0  0  0  0  0  0  0  0  0  0  0  0
   13.0321   10.3216   22.6444 H   0  0  0  0  0  0  0  0  0  0  0  0
   13.1273    9.5751   21.0346 H   0  0  0  0  0  0  0  0  0  0  0  0
   11.2295    7.0299   23.1010 H   0  0  0  0  0  0  0  0  0  0  0  0
   12.5244    8.0268   23.7401 H   0  0  0  0  0  0  0  0  0  0  0  0
   12.7082    7.2675   22.1435 H   0  0  0  0  0  0  0  0  0  0  0  0
    9.7542    7.8660   21.2423 H   0  0  0  0  0  0  0  0  0  0  0  0
   10.0364    9.4585   20.5063 H   0  0  0  0  0  0  0  0  0  0  0  0
   11.1457    8.1029   20.1993 H   0  0  0  0  0  0  0  0  0  0  0  0
    4.6819   11.5097   25.4014 H   0  0  0  0  0  0  0  0  0  0  0  0
    4.1952    9.7827   25.3184 H   0  0  0  0  0  0  0  0  0  0  0  0
    4.3869   10.5862   26.9135 H   0  0  0  0  0  0  0  0  0  0  0  0
    6.4199    9.2651   26.3233 H   0  0  0  0  0  0  0  0  0  0  0  0
    9.9023   15.7498   26.8307 H   0  0  0  0  0  0  0  0  0  0  0  0
    7.9271   16.2605   26.2583 H   0  0  0  0  0  0  0  0  0  0  0  0
  1  2  1  0  0  0  0
  1 19  1  0  0  0  0
  1 20  1  0  0  0  0
  2  4  1  0  0  0  0
  2  5  2  0  0  0  0
  3  4  2  0  0  0  0
  3  6  1  0  0  0  0
  3  8  1  0  0  0  0
  4  9  1  0  0  0  0
  5  7  1  0  0  0  0
  5 10  1  0  0  0  0
  6  7  2  0  0  0  0
  6 11  1  0  0  0  0
  7 17  1  0  0  0  0
  8 18  2  0  0  0  0
  8 21  1  0  0  0  0
 12 16  1  0  0  0  0
 13 16  1  0  0  0  0
 14 16  1  0  0  0  0
 15 17  1  0  0  0  0
 16 21  1  0  0  0  0
  9 22  1  0  0  0  0
  9 23  1  0  0  0  0
  9 24  1  0  0  0  0
 10 25  1  0  0  0  0
 10 26  1  0  0  0  0
 10 27  1  0  0  0  0
 11 28  1  0  0  0  0
 11 29  1  0  0  0  0
 11 30  1  0  0  0  0
 12 31  1  0  0  0  0
 12 32  1  0  0  0  0
 12 33  1  0  0  0  0
 13 34  1  0  0  0  0
 13 35  1  0  0  0  0
 13 36  1  0  0  0  0
 14 37  1  0  0  0  0
 14 38  1  0  0  0  0
 14 39  1  0  0  0  0
 15 40  1  0  0  0  0
 15 41  1  0  0  0  0
 15 42  1  0  0  0  0
 17 43  1  0  0  0  0
 19 44  1  0  0  0  0
 20 45  1  0  0  0  0
M  END
> <id>
EN300-26631155

> <smiles>
CNC=1C(C)=C(B(O)O)C(C)=C(C(=O)OC(C)(C)C)C1C

> <IUPAC Name>
{3-[(tert-butoxy)carbonyl]-2,4,6-trimethyl-5-(methylamino)phenyl}boronic acid

> <URL>
https://www.enaminestore.com/catalog/EN300-26631155

> <ROCS_ShapeQuery>
_x1140_x0812_0A_x1140_0A_x1097_0A_x0365_0A_x1097_0A_x0310_0A

> <ROCS_TanimotoCombo>
0.619 

> <ROCS_ShapeTanimoto>
0.259 

> <ROCS_ColorTanimoto>
0.360 

> <ROCS_RefTversky>
0.234 

> <ROCS_RefColorTversky>
0.407 

> <ROCS_RefTverskyCombo>
0.641 

> <ROCS_FitTversky>
1.711 

> <ROCS_FitColorTversky>
0.756 

> <ROCS_FitTverskyCombo>
2.467 

> <ROCS_ColorScore>
-3.175

> <ROCS_Overlap>
2402.782

> <ROCS_Rank>
237                 

$$$$
untitled-dbase-539225_0
  -OEChem-02092423213D

 33 34  0     0  0  0  0  0  0999 V2000
    5.7934   10.7902   26.6499 C   0  0  0  0  0  0  0  0  0  0  0  0
    6.7212    9.9903   25.9781 C   0  0  0  0  0  0  0  0  0  0  0  0
    6.6838   12.7318   25.5481 C   0  0  0  0  0  0  0  0  0  0  0  0
    8.5436   12.4737   23.9746 C   0  0  0  0  0  0  0  0  0  0  0  0
    7.6169   11.9271   24.8725 C   0  0  0  0  0  0  0  0  0  0  0  0
    5.7743   12.1626   26.4349 C   0  0  0  0  0  0  0  0  0  0  0  0
    7.6419   10.5329   25.0858 C   0  0  0  0  0  0  0  0  0  0  0  0
    9.4522   11.6523   23.3230 C   0  0  0  0  0  0  0  0  0  0  0  0
    9.4002   10.3004   23.5961 C   0  0  0  0  0  0  0  0  0  0  0  0
    4.7863   13.0201   27.1493 C   0  0  0  0  0  0  0  0  0  0  0  0
   11.8308    9.7297   23.2609 C   0  0  0  0  0  0  0  0  0  0  0  0
   10.1933    9.4136   21.3754 C   0  0  0  0  0  0  0  0  0  0  0  0
   10.1949    7.8581   23.3150 C   0  0  0  0  0  0  0  0  0  0  0  0
   10.3521    9.3647   22.9260 C   0  0  0  0  0  0  0  0  0  0  0  0
    8.5225    9.7332   24.4550 N   0  0  0  0  0  0  0  0  0  0  0  0
   10.3508   12.1778   22.4530 O   0  0  0  0  0  0  0  0  0  0  0  0
    5.0908   10.3286   27.3388 H   0  0  0  0  0  0  0  0  0  0  0  0
    6.7156    8.9178   26.1640 H   0  0  0  0  0  0  0  0  0  0  0  0
    6.6677   13.8072   25.3807 H   0  0  0  0  0  0  0  0  0  0  0  0
    8.5572   13.5447   23.7822 H   0  0  0  0  0  0  0  0  0  0  0  0
    5.2019   13.3701   28.1025 H   0  0  0  0  0  0  0  0  0  0  0  0
    4.5099   13.8964   26.5483 H   0  0  0  0  0  0  0  0  0  0  0  0
    3.8575   12.4718   27.3558 H   0  0  0  0  0  0  0  0  0  0  0  0
   12.5510    9.0571   22.7807 H   0  0  0  0  0  0  0  0  0  0  0  0
   12.0771   10.7466   22.9362 H   0  0  0  0  0  0  0  0  0  0  0  0
   11.9984    9.6803   24.3434 H   0  0  0  0  0  0  0  0  0  0  0  0
   10.8892    8.7290   20.8784 H   0  0  0  0  0  0  0  0  0  0  0  0
    9.1843    9.1398   21.0453 H   0  0  0  0  0  0  0  0  0  0  0  0
   10.4033   10.4235   21.0037 H   0  0  0  0  0  0  0  0  0  0  0  0
   10.9148    7.2122   22.7979 H   0  0  0  0  0  0  0  0  0  0  0  0
   10.3488    7.7142   24.3909 H   0  0  0  0  0  0  0  0  0  0  0  0
    9.1935    7.4916   23.0610 H   0  0  0  0  0  0  0  0  0  0  0  0
   10.2389   13.1411   22.3879 H   0  0  0  0  0  0  0  0  0  0  0  0
  1  2  2  0  0  0  0
  1  6  1  0  0  0  0
  2  7  1  0  0  0  0
  3  5  1  0  0  0  0
  3  6  2  0  0  0  0
  4  5  1  0  0  0  0
  4  8  2  0  0  0  0
  5  7  2  0  0  0  0
  6 10  1  0  0  0  0
  7 15  1  0  0  0  0
  8  9  1  0  0  0  0
  8 16  1  0  0  0  0
  9 14  1  0  0  0  0
  9 15  2  0  0  0  0
 11 14  1  0  0  0  0
 12 14  1  0  0  0  0
 13 14  1  0  0  0  0
  1 17  1  0  0  0  0
  2 18  1  0  0  0  0
  3 19  1  0  0  0  0
  4 20  1  0  0  0  0
 10 21  1  0  0  0  0
 10 22  1  0  0  0  0
 10 23  1  0  0  0  0
 11 24  1  0  0  0  0
 11 25  1  0  0  0  0
 11 26  1  0  0  0  0
 12 27  1  0  0  0  0
 12 28  1  0  0  0  0
 12 29  1  0  0  0  0
 13 30  1  0  0  0  0
 13 31  1  0  0  0  0
 13 32  1  0  0  0  0
 16 33  1  0  0  0  0
M  END
> <id>
EN300-801140

> <smiles>
CC=1C=CC=2N=C(C(O)=CC2C1)C(C)(C)C

> <MDLNUMBER>
MFCD31471802

> <IUPAC Name>
2-tert-butyl-6-methylquinolin-3-ol

> <CAS>
2137988-80-6

> <URL>
https://www.enaminestore.com/catalog/EN300-801140

> <ROCS_ShapeQuery>
_x1140_x0812_0A_x1140_0A_x1097_0A_x0365_0A_x1097_0A_x0310_0A

> <ROCS_TanimotoCombo>
0.619 

> <ROCS_ShapeTanimoto>
0.271 

> <ROCS_ColorTanimoto>
0.347 

> <ROCS_RefTversky>
0.239 

> <ROCS_RefColorTversky>
0.457 

> <ROCS_RefTverskyCombo>
0.696 

> <ROCS_FitTversky>
2.007 

> <ROCS_FitColorTversky>
0.592 

> <ROCS_FitTverskyCombo>
2.599 

> <ROCS_ColorScore>
-3.612

> <ROCS_Overlap>
2450.555

> <ROCS_Rank>
238                 

$$$$
untitled-dbase-73804_0
  -OEChem-02092423213D

 27 28  0     0  0  0  0  0  0999 V2000
   12.1591   15.5322   22.5311 C   0  0  0  0  0  0  0  0  0  0  0  0
   11.7776   12.1973   20.9224 C   0  0  0  0  0  0  0  0  0  0  0  0
   12.2342   13.4871   21.1934 C   0  0  0  0  0  0  0  0  0  0  0  0
   10.7776   11.6310   21.7130 C   0  0  0  0  0  0  0  0  0  0  0  0
   10.6909   13.6445   23.0455 C   0  0  0  0  0  0  0  0  0  0  0  0
    8.2300   12.5566   24.2059 C   0  0  0  0  0  0  0  0  0  0  0  0
    9.1380   10.3970   23.7955 C   0  0  0  0  0  0  0  0  0  0  0  0
   11.6909   14.2107   22.2549 C   0  0  0  0  0  0  0  0  0  0  0  0
   10.2342   12.3546   22.7745 C   0  0  0  0  0  0  0  0  0  0  0  0
    9.1970   11.7666   23.5942 C   0  0  0  0  0  0  0  0  0  0  0  0
    7.2475   11.9612   24.9892 C   0  0  0  0  0  0  0  0  0  0  0  0
    7.2757   10.5829   25.1279 C   0  0  0  0  0  0  0  0  0  0  0  0
    6.2126   12.8112   25.6445 C   0  0  0  0  0  0  0  0  0  0  0  0
   12.5394   16.6054   22.7553 N   0  0  0  0  0  0  0  0  0  0  0  0
    8.1989    9.7826   24.5493 N   0  0  0  0  0  0  0  0  0  0  0  0
    6.2745    9.9710   25.9230 N   0  0  0  0  0  0  0  0  0  0  0  0
    6.3558   14.1452   25.3871 F   0  0  0  0  0  0  0  0  0  0  0  0
    4.9358   12.5106   25.2631 F   0  0  0  0  0  0  0  0  0  0  0  0
    6.2240   12.6982   27.0049 F   0  0  0  0  0  0  0  0  0  0  0  0
   12.2008   11.6337   20.0960 H   0  0  0  0  0  0  0  0  0  0  0  0
   13.0144   13.9148   20.5682 H   0  0  0  0  0  0  0  0  0  0  0  0
   10.4325   10.6243   21.4889 H   0  0  0  0  0  0  0  0  0  0  0  0
   10.2672   14.2091   23.8747 H   0  0  0  0  0  0  0  0  0  0  0  0
    8.2384   13.6366   24.0756 H   0  0  0  0  0  0  0  0  0  0  0  0
    9.8633    9.7252   23.3453 H   0  0  0  0  0  0  0  0  0  0  0  0
    5.6136   10.5497   26.3935 H   0  0  0  0  0  0  0  0  0  0  0  0
    6.3119    8.9858   26.0687 H   0  0  0  0  0  0  0  0  0  0  0  0
  1  8  1  0  0  0  0
  1 14  3  0  0  0  0
  2  3  1  0  0  0  0
  2  4  2  0  0  0  0
  3  8  2  0  0  0  0
  4  9  1  0  0  0  0
  5  8  1  0  0  0  0
  5  9  2  0  0  0  0
  6 10  2  0  0  0  0
  6 11  1  0  0  0  0
  7 10  1  0  0  0  0
  7 15  2  0  0  0  0
  9 10  1  0  0  0  0
 11 12  2  0  0  0  0
 11 13  1  0  0  0  0
 12 15  1  0  0  0  0
 12 16  1  0  0  0  0
 13 17  1  0  0  0  0
 13 18  1  0  0  0  0
 13 19  1  0  0  0  0
  2 20  1  0  0  0  0
  3 21  1  0  0  0  0
  4 22  1  0  0  0  0
  5 23  1  0  0  0  0
  6 24  1  0  0  0  0
  7 25  1  0  0  0  0
 16 26  1  0  0  0  0
 16 27  1  0  0  0  0
M  END
> <id>
EN300-359523

> <smiles>
NC=1N=CC(=CC1C(F)(F)F)C=2C=CC=C(C#N)C2

> <MDLNUMBER>
MFCD30538118

> <IUPAC Name>
3-[6-amino-5-(trifluoromethyl)pyridin-3-yl]benzonitrile

> <CAS>
2137639-31-5

> <URL>
https://www.enaminestore.com/catalog/EN300-359523

> <ROCS_ShapeQuery>
_x1140_x0812_0A_x1140_0A_x1097_0A_x0365_0A_x1097_0A_x0310_0A

> <ROCS_TanimotoCombo>
0.619 

> <ROCS_ShapeTanimoto>
0.262 

> <ROCS_ColorTanimoto>
0.357 

> <ROCS_RefTversky>
0.236 

> <ROCS_RefColorTversky>
0.466 

> <ROCS_RefTverskyCombo>
0.701 

> <ROCS_FitTversky>
1.771 

> <ROCS_FitColorTversky>
0.603 

> <ROCS_FitTverskyCombo>
2.373 

> <ROCS_ColorScore>
-3.682

> <ROCS_Overlap>
2417.238

> <ROCS_Rank>
239                 

$$$$
untitled-dbase-17223_0
  -OEChem-02092423213D

 23 24  0     0  0  0  0  0  0999 V2000
    6.9197   11.5816   27.4292 C   0  0  0  0  0  0  0  0  0  0  0  0
    7.1895   12.9092   27.1185 C   0  0  0  0  0  0  0  0  0  0  0  0
    7.2842   10.5760   26.5370 C   0  0  0  0  0  0  0  0  0  0  0  0
    7.8231   13.2311   25.9168 C   0  0  0  0  0  0  0  0  0  0  0  0
    7.9209   10.8866   25.3268 C   0  0  0  0  0  0  0  0  0  0  0  0
    8.1940   12.2242   25.0109 C   0  0  0  0  0  0  0  0  0  0  0  0
    8.8491   10.0865   23.3526 C   0  0  0  0  0  0  0  0  0  0  0  0
    9.1935   11.4835   22.9050 C   0  0  0  0  0  0  0  0  0  0  0  0
    9.1377   13.8909   23.4195 C   0  0  0  0  0  0  0  0  0  0  0  0
    9.2188    8.9582   22.4305 C   0  0  0  0  0  0  0  0  0  0  0  0
    8.2614    9.8301   24.4741 N   0  0  0  0  0  0  0  0  0  0  0  0
    8.8410   12.5089   23.7758 N   0  0  0  0  0  0  0  0  0  0  0  0
    9.7503   11.6016   21.8202 O   0  0  0  0  0  0  0  0  0  0  0  0
   11.1387    8.8135   22.5495 Br  0  0  0  0  0  0  0  0  0  0  0  0
    6.4260   11.3292   28.3628 H   0  0  0  0  0  0  0  0  0  0  0  0
    6.9078   13.6974   27.8108 H   0  0  0  0  0  0  0  0  0  0  0  0
    7.0673    9.5403   26.7889 H   0  0  0  0  0  0  0  0  0  0  0  0
    8.0152   14.2809   25.7144 H   0  0  0  0  0  0  0  0  0  0  0  0
   10.1356   14.1609   23.7953 H   0  0  0  0  0  0  0  0  0  0  0  0
    9.1163   13.9999   22.3251 H   0  0  0  0  0  0  0  0  0  0  0  0
    8.3847   14.5550   23.8688 H   0  0  0  0  0  0  0  0  0  0  0  0
    8.9449    9.2073   21.4126 H   0  0  0  0  0  0  0  0  0  0  0  0
    8.7717    8.0349   22.7785 H   0  0  0  0  0  0  0  0  0  0  0  0
  1  2  1  0  0  0  0
  1  3  2  0  0  0  0
  2  4  2  0  0  0  0
  3  5  1  0  0  0  0
  4  6  1  0  0  0  0
  5  6  2  0  0  0  0
  5 11  1  0  0  0  0
  6 12  1  0  0  0  0
  7  8  1  0  0  0  0
  7 10  1  0  0  0  0
  7 11  2  0  0  0  0
  8 12  1  0  0  0  0
  8 13  2  0  0  0  0
  9 12  1  0  0  0  0
 10 14  1  0  0  0  0
  1 15  1  0  0  0  0
  2 16  1  0  0  0  0
  3 17  1  0  0  0  0
  4 18  1  0  0  0  0
  9 19  1  0  0  0  0
  9 20  1  0  0  0  0
  9 21  1  0  0  0  0
 10 22  1  0  0  0  0
 10 23  1  0  0  0  0
M  END
> <id>
EN300-62617

> <smiles>
CN1C(=O)C(CBr)=NC=2C=CC=CC12

> <MDLNUMBER>
MFCD13192552

> <IUPAC Name>
3-(bromomethyl)-1-methyl-1,2-dihydroquinoxalin-2-one

> <CAS>
1501-41-3

> <Purity>
95

> <URL>
https://www.enaminestore.com/catalog/EN300-62617

> <MP>
180-182

> <ROCS_ShapeQuery>
_x1140_x0812_0A_x1140_0A_x1097_0A_x0365_0A_x1097_0A_x0310_0A

> <ROCS_TanimotoCombo>
0.619 

> <ROCS_ShapeTanimoto>
0.227 

> <ROCS_ColorTanimoto>
0.391 

> <ROCS_RefTversky>
0.206 

> <ROCS_RefColorTversky>
0.466 

> <ROCS_RefTverskyCombo>
0.672 

> <ROCS_FitTversky>
1.864 

> <ROCS_FitColorTversky>
0.710 

> <ROCS_FitTverskyCombo>
2.574 

> <ROCS_ColorScore>
-3.659

> <ROCS_Overlap>
2108.657

> <ROCS_Rank>
240                 

$$$$
untitled-dbase-135779_3
  -OEChem-02092423213D

 28 28  0     0  0  0  0  0  0999 V2000
    7.8145   10.5974   25.5224 C   0  0  0  0  0  0  0  0  0  0  0  0
    7.9187   11.9715   25.5770 C   0  0  0  0  0  0  0  0  0  0  0  0
    8.7907   10.9313   23.5870 C   0  0  0  0  0  0  0  0  0  0  0  0
    9.4010   10.6367   22.2777 C   0  0  0  0  0  0  0  0  0  0  0  0
    7.2240    9.7289   26.5612 C   0  0  0  0  0  0  0  0  0  0  0  0
    7.4948   12.9167   26.6292 C   0  0  0  0  0  0  0  0  0  0  0  0
   10.9786    8.4741   23.7087 C   0  0  0  0  0  0  0  0  0  0  0  0
   12.0105    9.1736   21.5398 C   0  0  0  0  0  0  0  0  0  0  0  0
    9.4889    9.1832   21.8116 C   0  0  0  0  0  0  0  0  0  0  0  0
   10.8071    8.4842   22.1881 C   0  0  0  0  0  0  0  0  0  0  0  0
    8.3136    9.9992   24.3818 N   0  0  0  0  0  0  0  0  0  0  0  0
    9.8181   11.5476   21.5617 O   0  0  0  0  0  0  0  0  0  0  0  0
    8.6723   12.5486   24.1486 S   0  0  0  0  0  0  0  0  0  0  0  0
    6.1452    9.5837   26.3899 H   0  0  0  0  0  0  0  0  0  0  0  0
    7.6976    8.7330   26.5846 H   0  0  0  0  0  0  0  0  0  0  0  0
    7.3500   10.1510   27.5725 H   0  0  0  0  0  0  0  0  0  0  0  0
    8.3015   13.0830   27.3616 H   0  0  0  0  0  0  0  0  0  0  0  0
    7.2117   13.8985   26.2133 H   0  0  0  0  0  0  0  0  0  0  0  0
    6.6110   12.5525   27.1803 H   0  0  0  0  0  0  0  0  0  0  0  0
   11.0109    9.4951   24.1033 H   0  0  0  0  0  0  0  0  0  0  0  0
   11.9048    7.9678   24.0014 H   0  0  0  0  0  0  0  0  0  0  0  0
   10.1422    7.9574   24.1914 H   0  0  0  0  0  0  0  0  0  0  0  0
   12.0856   10.2212   21.8469 H   0  0  0  0  0  0  0  0  0  0  0  0
   11.9240    9.1555   20.4481 H   0  0  0  0  0  0  0  0  0  0  0  0
   12.9474    8.6750   21.8110 H   0  0  0  0  0  0  0  0  0  0  0  0
    8.6492    8.6206   22.2361 H   0  0  0  0  0  0  0  0  0  0  0  0
    9.3839    9.1944   20.7197 H   0  0  0  0  0  0  0  0  0  0  0  0
   10.7810    7.4419   21.8468 H   0  0  0  0  0  0  0  0  0  0  0  0
  1  2  2  0  0  0  0
  1  5  1  0  0  0  0
  1 11  1  0  0  0  0
  2  6  1  0  0  0  0
  2 13  1  0  0  0  0
  3  4  1  0  0  0  0
  3 11  2  0  0  0  0
  3 13  1  0  0  0  0
  4  9  1  0  0  0  0
  4 12  2  0  0  0  0
  7 10  1  0  0  0  0
  8 10  1  0  0  0  0
  9 10  1  0  0  0  0
  5 14  1  0  0  0  0
  5 15  1  0  0  0  0
  5 16  1  0  0  0  0
  6 17  1  0  0  0  0
  6 18  1  0  0  0  0
  6 19  1  0  0  0  0
  7 20  1  0  0  0  0
  7 21  1  0  0  0  0
  7 22  1  0  0  0  0
  8 23  1  0  0  0  0
  8 24  1  0  0  0  0
  8 25  1  0  0  0  0
  9 26  1  0  0  0  0
  9 27  1  0  0  0  0
 10 28  1  0  0  0  0
M  END
> <id>
EN300-1269019

> <smiles>
CC(C)CC(=O)C1=NC(C)=C(C)S1

> <IUPAC Name>
1-(dimethyl-1,3-thiazol-2-yl)-3-methylbutan-1-one

> <CAS>
2172128-20-8

> <URL>
https://www.enaminestore.com/catalog/EN300-1269019

> <ROCS_ShapeQuery>
_x1140_x0812_0A_x1140_0A_x1097_0A_x0365_0A_x1097_0A_x0310_0A

> <ROCS_TanimotoCombo>
0.619 

> <ROCS_ShapeTanimoto>
0.188 

> <ROCS_ColorTanimoto>
0.431 

> <ROCS_RefTversky>
0.174 

> <ROCS_RefColorTversky>
0.463 

> <ROCS_RefTverskyCombo>
0.638 

> <ROCS_FitTversky>
1.716 

> <ROCS_FitColorTversky>
0.860 

> <ROCS_FitTverskyCombo>
2.576 

> <ROCS_ColorScore>
-3.613

> <ROCS_Overlap>
1786.546

> <ROCS_Rank>
241                 

$$$$
untitled-dbase-540770_6
  -OEChem-02092423213D

 23 23  0     0  0  0  0  0  0999 V2000
    8.8259   12.5911   24.4207 C   0  0  0  0  0  0  0  0  0  0  0  0
    7.9891   12.0723   25.4024 C   0  0  0  0  0  0  0  0  0  0  0  0
    9.3591   11.7475   23.4525 C   0  0  0  0  0  0  0  0  0  0  0  0
    9.0272   10.4035   23.5095 C   0  0  0  0  0  0  0  0  0  0  0  0
    7.7184   10.7137   25.3720 C   0  0  0  0  0  0  0  0  0  0  0  0
   10.8149    7.5352   22.2483 C   0  0  0  0  0  0  0  0  0  0  0  0
   11.9114    9.7999   22.3920 C   0  0  0  0  0  0  0  0  0  0  0  0
   10.7747    8.9167   22.8836 C   0  0  0  0  0  0  0  0  0  0  0  0
    8.2178    9.8629   24.4477 N   0  0  0  0  0  0  0  0  0  0  0  0
   10.2067   12.2589   22.4540 N   0  0  0  0  0  0  0  0  0  0  0  0
    9.5308    9.5384   22.5753 O   0  0  0  0  0  0  0  0  0  0  0  0
    6.6966    9.9866   26.5430 Cl  0  0  0  0  0  0  0  0  0  0  0  0
    9.0558   13.6533   24.4196 H   0  0  0  0  0  0  0  0  0  0  0  0
    7.5681   12.7223   26.1621 H   0  0  0  0  0  0  0  0  0  0  0  0
   10.7594    7.5980   21.1573 H   0  0  0  0  0  0  0  0  0  0  0  0
   11.7399    7.0166   22.5225 H   0  0  0  0  0  0  0  0  0  0  0  0
    9.9877    6.9123   22.6061 H   0  0  0  0  0  0  0  0  0  0  0  0
   11.8821    9.9167   21.3044 H   0  0  0  0  0  0  0  0  0  0  0  0
   12.8782    9.3677   22.6717 H   0  0  0  0  0  0  0  0  0  0  0  0
   11.8661   10.7931   22.8523 H   0  0  0  0  0  0  0  0  0  0  0  0
   10.8319    8.8199   23.9727 H   0  0  0  0  0  0  0  0  0  0  0  0
   10.3859   13.2441   22.4176 H   0  0  0  0  0  0  0  0  0  0  0  0
   10.5454   11.6477   21.7357 H   0  0  0  0  0  0  0  0  0  0  0  0
  1  2  2  0  0  0  0
  1  3  1  0  0  0  0
  2  5  1  0  0  0  0
  3  4  2  0  0  0  0
  3 10  1  0  0  0  0
  4  9  1  0  0  0  0
  4 11  1  0  0  0  0
  5  9  2  0  0  0  0
  5 12  1  0  0  0  0
  6  8  1  0  0  0  0
  7  8  1  0  0  0  0
  8 11  1  0  0  0  0
  1 13  1  0  0  0  0
  2 14  1  0  0  0  0
  6 15  1  0  0  0  0
  6 16  1  0  0  0  0
  6 17  1  0  0  0  0
  7 18  1  0  0  0  0
  7 19  1  0  0  0  0
  7 20  1  0  0  0  0
  8 21  1  0  0  0  0
 10 22  1  0  0  0  0
 10 23  1  0  0  0  0
M  END
> <id>
EN300-1240812

> <smiles>
CC(C)OC=1N=C(Cl)C=CC1N

> <MDLNUMBER>
MFCD23113715

> <IUPAC Name>
6-chloro-2-(propan-2-yloxy)pyridin-3-amine

> <CAS>
1394932-19-4

> <URL>
https://www.enaminestore.com/catalog/EN300-1240812

> <ROCS_ShapeQuery>
_x1140_x0812_0A_x1140_0A_x1097_0A_x0365_0A_x1097_0A_x0310_0A

> <ROCS_TanimotoCombo>
0.619 

> <ROCS_ShapeTanimoto>
0.213 

> <ROCS_ColorTanimoto>
0.406 

> <ROCS_RefTversky>
0.193 

> <ROCS_RefColorTversky>
0.512 

> <ROCS_RefTverskyCombo>
0.705 

> <ROCS_FitTversky>
1.934 

> <ROCS_FitColorTversky>
0.662 

> <ROCS_FitTverskyCombo>
2.595 

> <ROCS_ColorScore>
-4.042

> <ROCS_Overlap>
1980.652

> <ROCS_Rank>
242                 

$$$$
untitled-dbase-257172_7
  -OEChem-02092423213D

 25 25  0     0  0  0  0  0  0999 V2000
    7.9939   12.5410   25.0694 C   0  0  0  0  0  0  0  0  0  0  0  0
    7.4379   11.4856   25.7837 C   0  0  0  0  0  0  0  0  0  0  0  0
    8.8156   12.2786   23.9788 C   0  0  0  0  0  0  0  0  0  0  0  0
    7.7321   10.1963   25.3702 C   0  0  0  0  0  0  0  0  0  0  0  0
    9.0483   10.9538   23.6462 C   0  0  0  0  0  0  0  0  0  0  0  0
    9.9047   10.6188   22.5092 C   0  0  0  0  0  0  0  0  0  0  0  0
   10.5263    8.4548   23.7888 C   0  0  0  0  0  0  0  0  0  0  0  0
   10.3588    8.4773   21.2766 C   0  0  0  0  0  0  0  0  0  0  0  0
   12.2163    9.6772   22.4428 C   0  0  0  0  0  0  0  0  0  0  0  0
   10.7212    9.3001   22.5203 C   0  0  0  0  0  0  0  0  0  0  0  0
    8.5258    9.9022   24.3161 N   0  0  0  0  0  0  0  0  0  0  0  0
    9.9851   11.3790   21.5412 O   0  0  0  0  0  0  0  0  0  0  0  0
    7.7873   13.5661   25.3620 H   0  0  0  0  0  0  0  0  0  0  0  0
    6.7949   11.6661   26.6374 H   0  0  0  0  0  0  0  0  0  0  0  0
    9.2541   13.0938   23.4130 H   0  0  0  0  0  0  0  0  0  0  0  0
    7.3220    9.3385   25.8928 H   0  0  0  0  0  0  0  0  0  0  0  0
   11.1148    7.5326   23.7657 H   0  0  0  0  0  0  0  0  0  0  0  0
   10.8427    9.0058   24.6823 H   0  0  0  0  0  0  0  0  0  0  0  0
    9.4746    8.1781   23.9250 H   0  0  0  0  0  0  0  0  0  0  0  0
   10.9116    7.5339   21.2395 H   0  0  0  0  0  0  0  0  0  0  0  0
   10.5858    9.0286   20.3571 H   0  0  0  0  0  0  0  0  0  0  0  0
    9.2917    8.2271   21.2628 H   0  0  0  0  0  0  0  0  0  0  0  0
   12.8475    8.7807   22.4471 H   0  0  0  0  0  0  0  0  0  0  0  0
   12.4392   10.2429   21.5309 H   0  0  0  0  0  0  0  0  0  0  0  0
   12.5219   10.2963   23.2942 H   0  0  0  0  0  0  0  0  0  0  0  0
  1  2  1  0  0  0  0
  1  3  2  0  0  0  0
  2  4  2  0  0  0  0
  3  5  1  0  0  0  0
  4 11  1  0  0  0  0
  5  6  1  0  0  0  0
  5 11  2  0  0  0  0
  6 10  1  0  0  0  0
  6 12  2  0  0  0  0
  7 10  1  0  0  0  0
  8 10  1  0  0  0  0
  9 10  1  0  0  0  0
  1 13  1  0  0  0  0
  2 14  1  0  0  0  0
  3 15  1  0  0  0  0
  4 16  1  0  0  0  0
  7 17  1  0  0  0  0
  7 18  1  0  0  0  0
  7 19  1  0  0  0  0
  8 20  1  0  0  0  0
  8 21  1  0  0  0  0
  8 22  1  0  0  0  0
  9 23  1  0  0  0  0
  9 24  1  0  0  0  0
  9 25  1  0  0  0  0
M  END
> <id>
EN300-1072118

> <smiles>
CC(C)(C)C(=O)C=1C=CC=CN1

> <MDLNUMBER>
MFCD06738273

> <IUPAC Name>
2,2-dimethyl-1-(pyridin-2-yl)propan-1-one

> <CAS>
31595-32-1

> <Purity>
95

> <URL>
https://www.enaminestore.com/catalog/EN300-1072118

> <ROCS_ShapeQuery>
_x1140_x0812_0A_x1140_0A_x1097_0A_x0365_0A_x1097_0A_x0310_0A

> <ROCS_TanimotoCombo>
0.619 

> <ROCS_ShapeTanimoto>
0.198 

> <ROCS_ColorTanimoto>
0.420 

> <ROCS_RefTversky>
0.182 

> <ROCS_RefColorTversky>
0.455 

> <ROCS_RefTverskyCombo>
0.637 

> <ROCS_FitTversky>
1.816 

> <ROCS_FitColorTversky>
0.845 

> <ROCS_FitTverskyCombo>
2.661 

> <ROCS_ColorScore>
-3.551

> <ROCS_Overlap>
1866.641

> <ROCS_Rank>
243                 

$$$$
untitled-dbase-470274_3
  -OEChem-02092423213D

 30 31  0     0  0  0  0  0  0999 V2000
   15.2316   12.6411   24.3062 C   0  0  0  0  0  0  0  0  0  0  0  0
   14.1369   12.0961   24.9771 C   0  0  0  0  0  0  0  0  0  0  0  0
   15.0508   13.7125   23.4315 C   0  0  0  0  0  0  0  0  0  0  0  0
   12.8613   12.6224   24.7733 C   0  0  0  0  0  0  0  0  0  0  0  0
   13.7752   14.2388   23.2276 C   0  0  0  0  0  0  0  0  0  0  0  0
    8.4318   12.4891   24.1937 C   0  0  0  0  0  0  0  0  0  0  0  0
   12.6804   13.6938   23.8985 C   0  0  0  0  0  0  0  0  0  0  0  0
    9.3333   11.6662   23.5499 C   0  0  0  0  0  0  0  0  0  0  0  0
    9.1557   10.3127   23.7517 C   0  0  0  0  0  0  0  0  0  0  0  0
    7.3620   10.6970   25.0941 C   0  0  0  0  0  0  0  0  0  0  0  0
   11.3167   14.2568   23.6799 C   0  0  0  0  0  0  0  0  0  0  0  0
   10.5545   13.5879   22.5294 C   0  0  0  0  0  0  0  0  0  0  0  0
    7.4302   12.0367   24.9762 N   0  0  0  0  0  0  0  0  0  0  0  0
    8.1771    9.7914   24.5204 N   0  0  0  0  0  0  0  0  0  0  0  0
   10.3481   12.1824   22.7547 N   0  0  0  0  0  0  0  0  0  0  0  0
   10.0029    9.4159   23.1549 O   0  0  0  0  0  0  0  0  0  0  0  0
    6.3511   10.2007   25.8841 O   0  0  0  0  0  0  0  0  0  0  0  0
   16.2249   12.2321   24.4661 H   0  0  0  0  0  0  0  0  0  0  0  0
   14.2776   11.2626   25.6591 H   0  0  0  0  0  0  0  0  0  0  0  0
   15.9030   14.1378   22.9098 H   0  0  0  0  0  0  0  0  0  0  0  0
   12.0141   12.1913   25.3002 H   0  0  0  0  0  0  0  0  0  0  0  0
   13.6438   15.0735   22.5441 H   0  0  0  0  0  0  0  0  0  0  0  0
    8.4837   13.5695   24.0998 H   0  0  0  0  0  0  0  0  0  0  0  0
   11.3968   15.3359   23.4659 H   0  0  0  0  0  0  0  0  0  0  0  0
   10.7160   14.1896   24.6032 H   0  0  0  0  0  0  0  0  0  0  0  0
    9.5634   14.0378   22.4130 H   0  0  0  0  0  0  0  0  0  0  0  0
   11.0915   13.6951   21.5812 H   0  0  0  0  0  0  0  0  0  0  0  0
   10.9793   11.5237   22.3064 H   0  0  0  0  0  0  0  0  0  0  0  0
    9.7461    8.5145   23.3941 H   0  0  0  0  0  0  0  0  0  0  0  0
    6.3968    9.2363   25.8971 H   0  0  0  0  0  0  0  0  0  0  0  0
  1  2  1  0  0  0  0
  1  3  2  0  0  0  0
  2  4  2  0  0  0  0
  3  5  1  0  0  0  0
  4  7  1  0  0  0  0
  5  7  2  0  0  0  0
  6  8  1  0  0  0  0
  6 13  2  0  0  0  0
  7 11  1  0  0  0  0
  8  9  2  0  0  0  0
  8 15  1  0  0  0  0
  9 14  1  0  0  0  0
  9 16  1  0  0  0  0
 10 13  1  0  0  0  0
 10 14  2  0  0  0  0
 10 17  1  0  0  0  0
 11 12  1  0  0  0  0
 12 15  1  0  0  0  0
  1 18  1  0  0  0  0
  2 19  1  0  0  0  0
  3 20  1  0  0  0  0
  4 21  1  0  0  0  0
  5 22  1  0  0  0  0
  6 23  1  0  0  0  0
 11 24  1  0  0  0  0
 11 25  1  0  0  0  0
 12 26  1  0  0  0  0
 12 27  1  0  0  0  0
 15 28  1  0  0  0  0
 16 29  1  0  0  0  0
 17 30  1  0  0  0  0
M  END
> <id>
EN300-6722885

> <smiles>
OC=1N=CC(NCCC=2C=CC=CC2)=C(O)N1

> <MDLNUMBER>
MFCD32878988

> <IUPAC Name>
5-[(2-phenylethyl)amino]pyrimidine-2,4-diol

> <CAS>
25912-34-9

> <Purity>
95

> <URL>
https://www.enaminestore.com/catalog/EN300-6722885

> <ROCS_ShapeQuery>
_x1140_x0812_0A_x1140_0A_x1097_0A_x0365_0A_x1097_0A_x0310_0A

> <ROCS_TanimotoCombo>
0.619 

> <ROCS_ShapeTanimoto>
0.234 

> <ROCS_ColorTanimoto>
0.385 

> <ROCS_RefTversky>
0.213 

> <ROCS_RefColorTversky>
0.588 

> <ROCS_RefTverskyCombo>
0.801 

> <ROCS_FitTversky>
1.734 

> <ROCS_FitColorTversky>
0.527 

> <ROCS_FitTverskyCombo>
2.261 

> <ROCS_ColorScore>
-4.732

> <ROCS_Overlap>
2184.131

> <ROCS_Rank>
244                 

$$$$
untitled-dbase-66642_5
  -OEChem-02092423213D

 24 24  0     0  0  0  0  0  0999 V2000
    8.3129   12.1527   23.8414 C   0  0  0  0  0  0  0  0  0  0  0  0
    7.6537   11.0906   24.4888 C   0  0  0  0  0  0  0  0  0  0  0  0
    9.3906   11.5640   23.2263 C   0  0  0  0  0  0  0  0  0  0  0  0
   11.6475    9.3913   23.6745 C   0  0  0  0  0  0  0  0  0  0  0  0
   10.2591    8.9947   21.5957 C   0  0  0  0  0  0  0  0  0  0  0  0
    6.4290   11.1585   25.3036 C   0  0  0  0  0  0  0  0  0  0  0  0
   10.2401    9.1750   23.1147 C   0  0  0  0  0  0  0  0  0  0  0  0
    8.2617    9.9161   24.3023 N   0  0  0  0  0  0  0  0  0  0  0  0
    9.3143   10.2367   23.5306 N   0  0  0  0  0  0  0  0  0  0  0  0
   10.3835   12.0644   22.4626 N   0  0  0  0  0  0  0  0  0  0  0  0
    6.2738    9.9554   26.0584 O   0  0  0  0  0  0  0  0  0  0  0  0
    8.0440   13.1993   23.8250 H   0  0  0  0  0  0  0  0  0  0  0  0
   12.1035   10.3099   23.2901 H   0  0  0  0  0  0  0  0  0  0  0  0
   12.3018    8.5560   23.4030 H   0  0  0  0  0  0  0  0  0  0  0  0
   11.6262    9.4615   24.7677 H   0  0  0  0  0  0  0  0  0  0  0  0
   10.6317    9.8979   21.1000 H   0  0  0  0  0  0  0  0  0  0  0  0
    9.2500    8.7956   21.2195 H   0  0  0  0  0  0  0  0  0  0  0  0
   10.8987    8.1594   21.2912 H   0  0  0  0  0  0  0  0  0  0  0  0
    6.4449   12.0041   26.0157 H   0  0  0  0  0  0  0  0  0  0  0  0
    5.5235   11.2892   24.6829 H   0  0  0  0  0  0  0  0  0  0  0  0
    9.8594    8.2408   23.5473 H   0  0  0  0  0  0  0  0  0  0  0  0
   10.4203   13.0589   22.1917 H   0  0  0  0  0  0  0  0  0  0  0  0
   11.1028   11.4625   22.0334 H   0  0  0  0  0  0  0  0  0  0  0  0
    5.4578   10.0581   26.5704 H   0  0  0  0  0  0  0  0  0  0  0  0
  1  2  1  0  0  0  0
  1  3  2  0  0  0  0
  2  6  1  0  0  0  0
  2  8  2  0  0  0  0
  3  9  1  0  0  0  0
  3 10  1  0  0  0  0
  4  7  1  0  0  0  0
  5  7  1  0  0  0  0
  6 11  1  0  0  0  0
  7  9  1  0  0  0  0
  8  9  1  0  0  0  0
  1 12  1  0  0  0  0
  4 13  1  0  0  0  0
  4 14  1  0  0  0  0
  4 15  1  0  0  0  0
  5 16  1  0  0  0  0
  5 17  1  0  0  0  0
  5 18  1  0  0  0  0
  6 19  1  0  0  0  0
  6 20  1  0  0  0  0
  7 21  1  0  0  0  0
 10 22  1  0  0  0  0
 10 23  1  0  0  0  0
 11 24  1  0  0  0  0
M  END
> <id>
EN300-311371

> <smiles>
CC(C)N1N=C(CO)C=C1N

> <MDLNUMBER>
MFCD20726481

> <IUPAC Name>
[5-amino-1-(propan-2-yl)-1H-pyrazol-3-yl]methanol

> <CAS>
1224888-26-9

> <URL>
https://www.enaminestore.com/catalog/EN300-311371

> <ROCS_ShapeQuery>
_x1140_x0812_0A_x1140_0A_x1097_0A_x0365_0A_x1097_0A_x0310_0A

> <ROCS_TanimotoCombo>
0.618 

> <ROCS_ShapeTanimoto>
0.213 

> <ROCS_ColorTanimoto>
0.405 

> <ROCS_RefTversky>
0.193 

> <ROCS_RefColorTversky>
0.544 

> <ROCS_RefTverskyCombo>
0.737 

> <ROCS_FitTversky>
1.997 

> <ROCS_FitColorTversky>
0.613 

> <ROCS_FitTverskyCombo>
2.611 

> <ROCS_ColorScore>
-4.325

> <ROCS_Overlap>
1975.438

> <ROCS_Rank>
245                 

$$$$
untitled-dbase-490540_6
  -OEChem-02092423213D

 32 33  0     0  0  0  0  0  0999 V2000
    7.5797   12.9529   24.7308 C   0  0  0  0  0  0  0  0  0  0  0  0
    8.4160   12.5627   23.6908 C   0  0  0  0  0  0  0  0  0  0  0  0
    6.9906   11.9618   25.4911 C   0  0  0  0  0  0  0  0  0  0  0  0
    8.6080   11.2009   23.4697 C   0  0  0  0  0  0  0  0  0  0  0  0
    7.2330   10.6221   25.2029 C   0  0  0  0  0  0  0  0  0  0  0  0
    9.4691   10.7563   22.3867 C   0  0  0  0  0  0  0  0  0  0  0  0
    6.0424   12.0870   26.6361 C   0  0  0  0  0  0  0  0  0  0  0  0
    5.9267   10.6234   27.1118 C   0  0  0  0  0  0  0  0  0  0  0  0
   11.6722    9.7002   23.3840 C   0  0  0  0  0  0  0  0  0  0  0  0
   10.6346    7.4274   23.1244 C   0  0  0  0  0  0  0  0  0  0  0  0
   11.4721    8.6583   21.1016 C   0  0  0  0  0  0  0  0  0  0  0  0
   10.8310    8.7986   22.4815 C   0  0  0  0  0  0  0  0  0  0  0  0
    8.0340   10.2140   24.2009 N   0  0  0  0  0  0  0  0  0  0  0  0
    6.5308    9.7919   26.0865 N   0  0  0  0  0  0  0  0  0  0  0  0
   10.0707   11.5139   21.6130 O   0  0  0  0  0  0  0  0  0  0  0  0
    9.5370    9.3908   22.3247 O   0  0  0  0  0  0  0  0  0  0  0  0
    7.3986   14.0024   24.9333 H   0  0  0  0  0  0  0  0  0  0  0  0
    8.9001   13.3091   23.0691 H   0  0  0  0  0  0  0  0  0  0  0  0
    6.4398   12.7319   27.4250 H   0  0  0  0  0  0  0  0  0  0  0  0
    5.0752   12.4638   26.2884 H   0  0  0  0  0  0  0  0  0  0  0  0
    6.4689   10.4903   28.0554 H   0  0  0  0  0  0  0  0  0  0  0  0
    4.8822   10.3441   27.2838 H   0  0  0  0  0  0  0  0  0  0  0  0
   11.8154   10.6854   22.9260 H   0  0  0  0  0  0  0  0  0  0  0  0
   11.2056    9.8372   24.3649 H   0  0  0  0  0  0  0  0  0  0  0  0
   12.6734    9.2799   23.5326 H   0  0  0  0  0  0  0  0  0  0  0  0
   10.0316    6.7773   22.4803 H   0  0  0  0  0  0  0  0  0  0  0  0
   10.0898    7.5148   24.0714 H   0  0  0  0  0  0  0  0  0  0  0  0
   11.5911    6.9318   23.3191 H   0  0  0  0  0  0  0  0  0  0  0  0
   10.8690    8.0116   20.4541 H   0  0  0  0  0  0  0  0  0  0  0  0
   11.5871    9.6295   20.6096 H   0  0  0  0  0  0  0  0  0  0  0  0
   12.4588    8.1869   21.1766 H   0  0  0  0  0  0  0  0  0  0  0  0
    6.5953    8.7860   26.0987 H   0  0  0  0  0  0  0  0  0  0  0  0
  1  2  2  0  0  0  0
  1  3  1  0  0  0  0
  2  4  1  0  0  0  0
  3  5  2  0  0  0  0
  3  7  1  0  0  0  0
  4  6  1  0  0  0  0
  4 13  2  0  0  0  0
  5 13  1  0  0  0  0
  5 14  1  0  0  0  0
  6 15  2  0  0  0  0
  6 16  1  0  0  0  0
  7  8  1  0  0  0  0
  8 14  1  0  0  0  0
  9 12  1  0  0  0  0
 10 12  1  0  0  0  0
 11 12  1  0  0  0  0
 12 16  1  0  0  0  0
  1 17  1  0  0  0  0
  2 18  1  0  0  0  0
  7 19  1  0  0  0  0
  7 20  1  0  0  0  0
  8 21  1  0  0  0  0
  8 22  1  0  0  0  0
  9 23  1  0  0  0  0
  9 24  1  0  0  0  0
  9 25  1  0  0  0  0
 10 26  1  0  0  0  0
 10 27  1  0  0  0  0
 10 28  1  0  0  0  0
 11 29  1  0  0  0  0
 11 30  1  0  0  0  0
 11 31  1  0  0  0  0
 14 32  1  0  0  0  0
M  END
> <id>
EN300-27782616

> <smiles>
CC(C)(C)OC(=O)C=1C=CC=2CCNC2N1

> <IUPAC Name>
tert-butyl 1H,2H,3H-pyrrolo[2,3-b]pyridine-6-carboxylate

> <CAS>
2639462-42-1

> <URL>
https://www.enaminestore.com/catalog/EN300-27782616

> <ROCS_ShapeQuery>
_x1140_x0812_0A_x1140_0A_x1097_0A_x0365_0A_x1097_0A_x0310_0A

> <ROCS_TanimotoCombo>
0.618 

> <ROCS_ShapeTanimoto>
0.242 

> <ROCS_ColorTanimoto>
0.376 

> <ROCS_RefTversky>
0.218 

> <ROCS_RefColorTversky>
0.485 

> <ROCS_RefTverskyCombo>
0.703 

> <ROCS_FitTversky>
1.826 

> <ROCS_FitColorTversky>
0.627 

> <ROCS_FitTverskyCombo>
2.453 

> <ROCS_ColorScore>
-3.834

> <ROCS_Overlap>
2237.613

> <ROCS_Rank>
246                 

$$$$
untitled-dbase-311716_0
  -OEChem-02092423213D

 33 34  0     0  0  0  0  0  0999 V2000
    5.7250   12.1061   26.4630 C   0  0  0  0  0  0  0  0  0  0  0  0
    5.7067   10.7258   26.6209 C   0  0  0  0  0  0  0  0  0  0  0  0
    6.6713   12.6892   25.6253 C   0  0  0  0  0  0  0  0  0  0  0  0
    6.6341    9.9323   25.9411 C   0  0  0  0  0  0  0  0  0  0  0  0
    8.5674   12.4516   24.0922 C   0  0  0  0  0  0  0  0  0  0  0  0
    7.6040   11.8909   24.9416 C   0  0  0  0  0  0  0  0  0  0  0  0
    7.5911   10.4888   25.0970 C   0  0  0  0  0  0  0  0  0  0  0  0
    9.4745   11.6361   23.4312 C   0  0  0  0  0  0  0  0  0  0  0  0
    9.3840   10.2758   23.6460 C   0  0  0  0  0  0  0  0  0  0  0  0
   11.8062    9.6478   23.3557 C   0  0  0  0  0  0  0  0  0  0  0  0
   10.2145    9.4490   21.4159 C   0  0  0  0  0  0  0  0  0  0  0  0
   10.1180    7.8235   23.2946 C   0  0  0  0  0  0  0  0  0  0  0  0
   10.3285    9.3378   22.9669 C   0  0  0  0  0  0  0  0  0  0  0  0
    8.4702    9.6949   24.4568 N   0  0  0  0  0  0  0  0  0  0  0  0
   10.7184   13.5449   22.5761 N   0  0  0  0  0  0  0  0  0  0  0  0
   10.4418   12.1951   22.5786 N   0  0  0  0  0  0  0  0  0  0  0  0
    5.0060   12.7261   26.9896 H   0  0  0  0  0  0  0  0  0  0  0  0
    4.9718   10.2623   27.2726 H   0  0  0  0  0  0  0  0  0  0  0  0
    6.6770   13.7708   25.5089 H   0  0  0  0  0  0  0  0  0  0  0  0
    6.5987    8.8535   26.0817 H   0  0  0  0  0  0  0  0  0  0  0  0
    8.6068   13.5300   23.9484 H   0  0  0  0  0  0  0  0  0  0  0  0
   12.5207    8.9728   22.8702 H   0  0  0  0  0  0  0  0  0  0  0  0
   12.0899   10.6684   23.0764 H   0  0  0  0  0  0  0  0  0  0  0  0
   11.9418    9.5536   24.4397 H   0  0  0  0  0  0  0  0  0  0  0  0
   10.9046    8.7637   20.9118 H   0  0  0  0  0  0  0  0  0  0  0  0
    9.2078    9.2168   21.0491 H   0  0  0  0  0  0  0  0  0  0  0  0
   10.4626   10.4656   21.0884 H   0  0  0  0  0  0  0  0  0  0  0  0
   10.8338    7.1766   22.7733 H   0  0  0  0  0  0  0  0  0  0  0  0
   10.2373    7.6357   24.3681 H   0  0  0  0  0  0  0  0  0  0  0  0
    9.1142    7.4958   22.9998 H   0  0  0  0  0  0  0  0  0  0  0  0
   10.7971   13.8558   21.6089 H   0  0  0  0  0  0  0  0  0  0  0  0
   11.6374   13.6882   22.9930 H   0  0  0  0  0  0  0  0  0  0  0  0
   11.0882   11.5711   22.1120 H   0  0  0  0  0  0  0  0  0  0  0  0
  1  2  1  0  0  0  0
  1  3  2  0  0  0  0
  2  4  2  0  0  0  0
  3  6  1  0  0  0  0
  4  7  1  0  0  0  0
  5  6  2  0  0  0  0
  5  8  1  0  0  0  0
  6  7  1  0  0  0  0
  7 14  2  0  0  0  0
  8  9  2  0  0  0  0
  8 16  1  0  0  0  0
  9 13  1  0  0  0  0
  9 14  1  0  0  0  0
 10 13  1  0  0  0  0
 11 13  1  0  0  0  0
 12 13  1  0  0  0  0
 15 16  1  0  0  0  0
  1 17  1  0  0  0  0
  2 18  1  0  0  0  0
  3 19  1  0  0  0  0
  4 20  1  0  0  0  0
  5 21  1  0  0  0  0
 10 22  1  0  0  0  0
 10 23  1  0  0  0  0
 10 24  1  0  0  0  0
 11 25  1  0  0  0  0
 11 26  1  0  0  0  0
 11 27  1  0  0  0  0
 12 28  1  0  0  0  0
 12 29  1  0  0  0  0
 12 30  1  0  0  0  0
 15 31  1  0  0  0  0
 15 32  1  0  0  0  0
 16 33  1  0  0  0  0
M  END
> <id>
EN300-801599

> <smiles>
CC(C)(C)C=1N=C2C=CC=CC2=CC1NN

> <MDLNUMBER>
MFCD31471997

> <IUPAC Name>
2-tert-butyl-3-hydrazinylquinoline

> <CAS>
2137631-75-3

> <URL>
https://www.enaminestore.com/catalog/EN300-801599

> <ROCS_ShapeQuery>
_x1140_x0812_0A_x1140_0A_x1097_0A_x0365_0A_x1097_0A_x0310_0A

> <ROCS_TanimotoCombo>
0.618 

> <ROCS_ShapeTanimoto>
0.282 

> <ROCS_ColorTanimoto>
0.336 

> <ROCS_RefTversky>
0.246 

> <ROCS_RefColorTversky>
0.455 

> <ROCS_RefTverskyCombo>
0.701 

> <ROCS_FitTversky>
2.068 

> <ROCS_FitColorTversky>
0.564 

> <ROCS_FitTverskyCombo>
2.632 

> <ROCS_ColorScore>
-3.602

> <ROCS_Overlap>
2523.558

> <ROCS_Rank>
247                 

$$$$
untitled-dbase-387000_7
  -OEChem-02092423213D

 33 34  0     0  0  0  0  0  0999 V2000
    9.1173   12.4367   24.1237 C   0  0  0  0  0  0  0  0  0  0  0  0
    8.4452   12.8693   25.2680 C   0  0  0  0  0  0  0  0  0  0  0  0
    7.8671   10.3472   24.1268 C   0  0  0  0  0  0  0  0  0  0  0  0
    8.8327   11.1831   23.5589 C   0  0  0  0  0  0  0  0  0  0  0  0
    7.4858   12.0346   25.8127 C   0  0  0  0  0  0  0  0  0  0  0  0
    7.1840   10.7947   25.2438 C   0  0  0  0  0  0  0  0  0  0  0  0
    9.5589   10.7468   22.3764 C   0  0  0  0  0  0  0  0  0  0  0  0
    6.6699   12.2216   27.0497 C   0  0  0  0  0  0  0  0  0  0  0  0
    5.6744   11.0464   26.9420 C   0  0  0  0  0  0  0  0  0  0  0  0
   11.9266    9.8248   23.0837 C   0  0  0  0  0  0  0  0  0  0  0  0
   10.9784    7.4996   23.0232 C   0  0  0  0  0  0  0  0  0  0  0  0
   11.4683    8.7068   20.8759 C   0  0  0  0  0  0  0  0  0  0  0  0
   11.0160    8.8586   22.3275 C   0  0  0  0  0  0  0  0  0  0  0  0
    6.2331   10.0974   25.9868 N   0  0  0  0  0  0  0  0  0  0  0  0
   10.0098   11.5088   21.5111 O   0  0  0  0  0  0  0  0  0  0  0  0
    9.6847    9.3851   22.3374 O   0  0  0  0  0  0  0  0  0  0  0  0
    9.8742   13.0792   23.6797 H   0  0  0  0  0  0  0  0  0  0  0  0
    8.6774   13.8283   25.7176 H   0  0  0  0  0  0  0  0  0  0  0  0
    7.6535    9.3707   23.7025 H   0  0  0  0  0  0  0  0  0  0  0  0
    7.3016   12.1216   27.9382 H   0  0  0  0  0  0  0  0  0  0  0  0
    6.1506   13.1843   27.0576 H   0  0  0  0  0  0  0  0  0  0  0  0
    5.5041   10.5766   27.9163 H   0  0  0  0  0  0  0  0  0  0  0  0
    4.7076   11.4064   26.5691 H   0  0  0  0  0  0  0  0  0  0  0  0
   11.9563   10.8014   22.5875 H   0  0  0  0  0  0  0  0  0  0  0  0
   11.5925    9.9694   24.1163 H   0  0  0  0  0  0  0  0  0  0  0  0
   12.9586    9.4561   23.1023 H   0  0  0  0  0  0  0  0  0  0  0  0
   10.3262    6.8031   22.4840 H   0  0  0  0  0  0  0  0  0  0  0  0
   10.5648    7.5900   24.0342 H   0  0  0  0  0  0  0  0  0  0  0  0
   11.9762    7.0549   23.0953 H   0  0  0  0  0  0  0  0  0  0  0  0
   10.8152    8.0137   20.3333 H   0  0  0  0  0  0  0  0  0  0  0  0
   11.4659    9.6671   20.3502 H   0  0  0  0  0  0  0  0  0  0  0  0
   12.4782    8.2842   20.8246 H   0  0  0  0  0  0  0  0  0  0  0  0
    5.7039    9.3319   25.5934 H   0  0  0  0  0  0  0  0  0  0  0  0
  1  2  2  0  0  0  0
  1  4  1  0  0  0  0
  2  5  1  0  0  0  0
  3  4  2  0  0  0  0
  3  6  1  0  0  0  0
  4  7  1  0  0  0  0
  5  6  2  0  0  0  0
  5  8  1  0  0  0  0
  6 14  1  0  0  0  0
  7 15  2  0  0  0  0
  7 16  1  0  0  0  0
  8  9  1  0  0  0  0
  9 14  1  0  0  0  0
 10 13  1  0  0  0  0
 11 13  1  0  0  0  0
 12 13  1  0  0  0  0
 13 16  1  0  0  0  0
  1 17  1  0  0  0  0
  2 18  1  0  0  0  0
  3 19  1  0  0  0  0
  8 20  1  0  0  0  0
  8 21  1  0  0  0  0
  9 22  1  0  0  0  0
  9 23  1  0  0  0  0
 10 24  1  0  0  0  0
 10 25  1  0  0  0  0
 10 26  1  0  0  0  0
 11 27  1  0  0  0  0
 11 28  1  0  0  0  0
 11 29  1  0  0  0  0
 12 30  1  0  0  0  0
 12 31  1  0  0  0  0
 12 32  1  0  0  0  0
 14 33  1  0  0  0  0
M  END
> <id>
EN300-713865

> <smiles>
CC(C)(C)OC(=O)C=1C=CC=2CCNC2C1

> <MDLNUMBER>
MFCD26436203

> <IUPAC Name>
tert-butyl 2,3-dihydro-1H-indole-6-carboxylate

> <CAS>
1566794-48-6

> <URL>
https://www.enaminestore.com/catalog/EN300-713865

> <ROCS_ShapeQuery>
_x1140_x0812_0A_x1140_0A_x1097_0A_x0365_0A_x1097_0A_x0310_0A

> <ROCS_TanimotoCombo>
0.618 

> <ROCS_ShapeTanimoto>
0.238 

> <ROCS_ColorTanimoto>
0.380 

> <ROCS_RefTversky>
0.215 

> <ROCS_RefColorTversky>
0.457 

> <ROCS_RefTverskyCombo>
0.672 

> <ROCS_FitTversky>
1.809 

> <ROCS_FitColorTversky>
0.694 

> <ROCS_FitTverskyCombo>
2.503 

> <ROCS_ColorScore>
-3.587

> <ROCS_Overlap>
2206.370

> <ROCS_Rank>
248                 

$$$$
untitled-dbase-103626_0
  -OEChem-02092423213D

 30 31  0     0  0  0  0  0  0999 V2000
    5.7720   12.1684   26.4312 C   0  0  0  0  0  0  0  0  0  0  0  0
    6.6826   12.7365   25.5450 C   0  0  0  0  0  0  0  0  0  0  0  0
    5.7898   10.7960   26.6469 C   0  0  0  0  0  0  0  0  0  0  0  0
    8.5437   12.4763   23.9732 C   0  0  0  0  0  0  0  0  0  0  0  0
    7.6157   11.9307   24.8706 C   0  0  0  0  0  0  0  0  0  0  0  0
    7.6395   10.5366   25.0846 C   0  0  0  0  0  0  0  0  0  0  0  0
    9.4522   11.6538   23.3228 C   0  0  0  0  0  0  0  0  0  0  0  0
    6.7176    9.9952   25.9763 C   0  0  0  0  0  0  0  0  0  0  0  0
    9.3990   10.3022   23.5965 C   0  0  0  0  0  0  0  0  0  0  0  0
   11.8294    9.7295   23.2639 C   0  0  0  0  0  0  0  0  0  0  0  0
   10.1935    9.4136   21.3771 C   0  0  0  0  0  0  0  0  0  0  0  0
   10.1922    7.8591   23.3174 C   0  0  0  0  0  0  0  0  0  0  0  0
   10.3508    9.3654   22.9278 C   0  0  0  0  0  0  0  0  0  0  0  0
    8.5201    9.7360   24.4549 N   0  0  0  0  0  0  0  0  0  0  0  0
   10.3520   12.1783   22.4534 O   0  0  0  0  0  0  0  0  0  0  0  0
    6.7117    8.6728   26.2043 F   0  0  0  0  0  0  0  0  0  0  0  0
    5.0525   12.7941   26.9504 H   0  0  0  0  0  0  0  0  0  0  0  0
    6.6602   13.8119   25.3834 H   0  0  0  0  0  0  0  0  0  0  0  0
    5.0830   10.3441   27.3366 H   0  0  0  0  0  0  0  0  0  0  0  0
    8.5581   13.5472   23.7805 H   0  0  0  0  0  0  0  0  0  0  0  0
   12.5496    9.0560   22.7847 H   0  0  0  0  0  0  0  0  0  0  0  0
   12.0769   10.7460   22.9389 H   0  0  0  0  0  0  0  0  0  0  0  0
   11.9961    9.6805   24.3465 H   0  0  0  0  0  0  0  0  0  0  0  0
   10.8894    8.7283   20.8810 H   0  0  0  0  0  0  0  0  0  0  0  0
    9.1846    9.1405   21.0462 H   0  0  0  0  0  0  0  0  0  0  0  0
   10.4046   10.4232   21.0050 H   0  0  0  0  0  0  0  0  0  0  0  0
   10.9120    7.2124   22.8013 H   0  0  0  0  0  0  0  0  0  0  0  0
   10.3449    7.7157   24.3935 H   0  0  0  0  0  0  0  0  0  0  0  0
    9.1906    7.4932   23.0626 H   0  0  0  0  0  0  0  0  0  0  0  0
   10.2408   13.1417   22.3877 H   0  0  0  0  0  0  0  0  0  0  0  0
  1  2  2  0  0  0  0
  1  3  1  0  0  0  0
  2  5  1  0  0  0  0
  3  8  2  0  0  0  0
  4  5  2  0  0  0  0
  4  7  1  0  0  0  0
  5  6  1  0  0  0  0
  6  8  1  0  0  0  0
  6 14  2  0  0  0  0
  7  9  2  0  0  0  0
  7 15  1  0  0  0  0
  8 16  1  0  0  0  0
  9 13  1  0  0  0  0
  9 14  1  0  0  0  0
 10 13  1  0  0  0  0
 11 13  1  0  0  0  0
 12 13  1  0  0  0  0
  1 17  1  0  0  0  0
  2 18  1  0  0  0  0
  3 19  1  0  0  0  0
  4 20  1  0  0  0  0
 10 21  1  0  0  0  0
 10 22  1  0  0  0  0
 10 23  1  0  0  0  0
 11 24  1  0  0  0  0
 11 25  1  0  0  0  0
 11 26  1  0  0  0  0
 12 27  1  0  0  0  0
 12 28  1  0  0  0  0
 12 29  1  0  0  0  0
 15 30  1  0  0  0  0
M  END
> <id>
EN300-801232

> <smiles>
CC(C)(C)C=1N=C2C(F)=CC=CC2=CC1O

> <MDLNUMBER>
MFCD31471850

> <IUPAC Name>
2-tert-butyl-8-fluoroquinolin-3-ol

> <CAS>
2138186-12-4

> <URL>
https://www.enaminestore.com/catalog/EN300-801232

> <ROCS_ShapeQuery>
_x1140_x0812_0A_x1140_0A_x1097_0A_x0365_0A_x1097_0A_x0310_0A

> <ROCS_TanimotoCombo>
0.618 

> <ROCS_ShapeTanimoto>
0.271 

> <ROCS_ColorTanimoto>
0.347 

> <ROCS_RefTversky>
0.238 

> <ROCS_RefColorTversky>
0.457 

> <ROCS_RefTverskyCombo>
0.696 

> <ROCS_FitTversky>
1.993 

> <ROCS_FitColorTversky>
0.592 

> <ROCS_FitTverskyCombo>
2.584 

> <ROCS_ColorScore>
-3.612

> <ROCS_Overlap>
2446.103

> <ROCS_Rank>
249                 

$$$$
untitled-dbase-478411_2
  -OEChem-02092423213D

 28 28  0     0  0  0  0  0  0999 V2000
    9.0997   11.5299   23.4971 C   0  0  0  0  0  0  0  0  0  0  0  0
    9.0156   10.1900   23.8054 C   0  0  0  0  0  0  0  0  0  0  0  0
    7.2376   10.6178   25.1787 C   0  0  0  0  0  0  0  0  0  0  0  0
    7.3223   11.9578   24.8709 C   0  0  0  0  0  0  0  0  0  0  0  0
   10.1180   12.0798   22.5670 C   0  0  0  0  0  0  0  0  0  0  0  0
   11.2602   14.3210   21.2347 C   0  0  0  0  0  0  0  0  0  0  0  0
   12.6706   14.5862   23.2962 C   0  0  0  0  0  0  0  0  0  0  0  0
   12.8618   12.5007   21.9097 C   0  0  0  0  0  0  0  0  0  0  0  0
   11.9205   13.5968   22.4070 C   0  0  0  0  0  0  0  0  0  0  0  0
    8.2547   12.4379   24.0243 N   0  0  0  0  0  0  0  0  0  0  0  0
    8.0829    9.7099   24.6517 N   0  0  0  0  0  0  0  0  0  0  0  0
    9.9310    9.2866   23.2195 N   0  0  0  0  0  0  0  0  0  0  0  0
   10.2122   11.7375   21.3985 O   0  0  0  0  0  0  0  0  0  0  0  0
    6.2855   10.1476   26.0387 O   0  0  0  0  0  0  0  0  0  0  0  0
   10.8991   12.9929   23.2016 O   0  0  0  0  0  0  0  0  0  0  0  0
    6.2650   13.1384   25.5231 Cl  0  0  0  0  0  0  0  0  0  0  0  0
   10.7207   13.6143   20.5940 H   0  0  0  0  0  0  0  0  0  0  0  0
   10.5563   15.0862   21.5781 H   0  0  0  0  0  0  0  0  0  0  0  0
   12.0120   14.8027   20.5991 H   0  0  0  0  0  0  0  0  0  0  0  0
   13.1460   14.0708   24.1386 H   0  0  0  0  0  0  0  0  0  0  0  0
   11.9820   15.3193   23.7316 H   0  0  0  0  0  0  0  0  0  0  0  0
   13.4435   15.1250   22.7386 H   0  0  0  0  0  0  0  0  0  0  0  0
   13.3356   11.9810   22.7503 H   0  0  0  0  0  0  0  0  0  0  0  0
   12.3330   11.7610   21.2999 H   0  0  0  0  0  0  0  0  0  0  0  0
   13.6753   12.9274   21.3118 H   0  0  0  0  0  0  0  0  0  0  0  0
   10.5932    9.6296   22.5555 H   0  0  0  0  0  0  0  0  0  0  0  0
    9.8372    8.3106   23.4086 H   0  0  0  0  0  0  0  0  0  0  0  0
    6.3738    9.1880   26.1377 H   0  0  0  0  0  0  0  0  0  0  0  0
  1  2  2  0  0  0  0
  1  5  1  0  0  0  0
  1 10  1  0  0  0  0
  2 11  1  0  0  0  0
  2 12  1  0  0  0  0
  3  4  1  0  0  0  0
  3 11  2  0  0  0  0
  3 14  1  0  0  0  0
  4 10  2  0  0  0  0
  4 16  1  0  0  0  0
  5 13  2  0  0  0  0
  5 15  1  0  0  0  0
  6  9  1  0  0  0  0
  7  9  1  0  0  0  0
  8  9  1  0  0  0  0
  9 15  1  0  0  0  0
  6 17  1  0  0  0  0
  6 18  1  0  0  0  0
  6 19  1  0  0  0  0
  7 20  1  0  0  0  0
  7 21  1  0  0  0  0
  7 22  1  0  0  0  0
  8 23  1  0  0  0  0
  8 24  1  0  0  0  0
  8 25  1  0  0  0  0
 12 26  1  0  0  0  0
 12 27  1  0  0  0  0
 14 28  1  0  0  0  0
M  END
> <id>
EN300-27723276

> <smiles>
CC(C)(C)OC(=O)C=1N=C(Cl)C(O)=NC1N

> <IUPAC Name>
tert-butyl 3-amino-6-chloro-5-hydroxypyrazine-2-carboxylate

> <CAS>
2580201-42-7

> <URL>
https://www.enaminestore.com/catalog/EN300-27723276

> <ROCS_ShapeQuery>
_x1140_x0812_0A_x1140_0A_x1097_0A_x0365_0A_x1097_0A_x0310_0A

> <ROCS_TanimotoCombo>
0.618 

> <ROCS_ShapeTanimoto>
0.266 

> <ROCS_ColorTanimoto>
0.352 

> <ROCS_RefTversky>
0.235 

> <ROCS_RefColorTversky>
0.550 

> <ROCS_RefTverskyCombo>
0.785 

> <ROCS_FitTversky>
1.991 

> <ROCS_FitColorTversky>
0.494 

> <ROCS_FitTverskyCombo>
2.485 

> <ROCS_ColorScore>
-4.429

> <ROCS_Overlap>
2410.693

> <ROCS_Rank>
250                 

$$$$
untitled-dbase-104029_0
  -OEChem-02092423213D

 30 31  0     0  0  0  0  0  0999 V2000
    6.6818   12.7352   25.5443 C   0  0  0  0  0  0  0  0  0  0  0  0
    5.7716   12.1671   26.4311 C   0  0  0  0  0  0  0  0  0  0  0  0
    8.5428   12.4753   23.9726 C   0  0  0  0  0  0  0  0  0  0  0  0
    6.7188    9.9943   25.9776 C   0  0  0  0  0  0  0  0  0  0  0  0
    7.6154   11.9297   24.8704 C   0  0  0  0  0  0  0  0  0  0  0  0
    7.6402   10.5358   25.0854 C   0  0  0  0  0  0  0  0  0  0  0  0
    9.4519   11.6531   23.3226 C   0  0  0  0  0  0  0  0  0  0  0  0
    5.7905   10.7949   26.6477 C   0  0  0  0  0  0  0  0  0  0  0  0
    9.3997   10.3016   23.5973 C   0  0  0  0  0  0  0  0  0  0  0  0
   11.8297    9.7296   23.2603 C   0  0  0  0  0  0  0  0  0  0  0  0
   10.1902    9.4120   21.3768 C   0  0  0  0  0  0  0  0  0  0  0  0
   10.1933    7.8586   23.3181 C   0  0  0  0  0  0  0  0  0  0  0  0
   10.3506    9.3647   22.9273 C   0  0  0  0  0  0  0  0  0  0  0  0
    8.5213    9.7353   24.4562 N   0  0  0  0  0  0  0  0  0  0  0  0
   10.3523   12.1780   22.4541 O   0  0  0  0  0  0  0  0  0  0  0  0
    4.9196   10.2379   27.4996 F   0  0  0  0  0  0  0  0  0  0  0  0
    6.6585   13.8105   25.3820 H   0  0  0  0  0  0  0  0  0  0  0  0
    5.0519   12.7924   26.9499 H   0  0  0  0  0  0  0  0  0  0  0  0
    8.5570   13.5462   23.7791 H   0  0  0  0  0  0  0  0  0  0  0  0
    6.7139    8.9224   26.1664 H   0  0  0  0  0  0  0  0  0  0  0  0
   12.5492    9.0562   22.7800 H   0  0  0  0  0  0  0  0  0  0  0  0
   12.0761   10.7461   22.9342 H   0  0  0  0  0  0  0  0  0  0  0  0
   11.9985    9.6813   24.3426 H   0  0  0  0  0  0  0  0  0  0  0  0
   10.8854    8.7266   20.8798 H   0  0  0  0  0  0  0  0  0  0  0  0
    9.1808    9.1382   21.0481 H   0  0  0  0  0  0  0  0  0  0  0  0
   10.4002   10.4214   21.0038 H   0  0  0  0  0  0  0  0  0  0  0  0
   10.9124    7.2119   22.8010 H   0  0  0  0  0  0  0  0  0  0  0  0
   10.3482    7.7159   24.3940 H   0  0  0  0  0  0  0  0  0  0  0  0
    9.1914    7.4922   23.0655 H   0  0  0  0  0  0  0  0  0  0  0  0
   10.2410   13.1415   22.3887 H   0  0  0  0  0  0  0  0  0  0  0  0
  1  2  2  0  0  0  0
  1  5  1  0  0  0  0
  2  8  1  0  0  0  0
  3  5  2  0  0  0  0
  3  7  1  0  0  0  0
  4  6  1  0  0  0  0
  4  8  2  0  0  0  0
  5  6  1  0  0  0  0
  6 14  2  0  0  0  0
  7  9  2  0  0  0  0
  7 15  1  0  0  0  0
  8 16  1  0  0  0  0
  9 13  1  0  0  0  0
  9 14  1  0  0  0  0
 10 13  1  0  0  0  0
 11 13  1  0  0  0  0
 12 13  1  0  0  0  0
  1 17  1  0  0  0  0
  2 18  1  0  0  0  0
  3 19  1  0  0  0  0
  4 20  1  0  0  0  0
 10 21  1  0  0  0  0
 10 22  1  0  0  0  0
 10 23  1  0  0  0  0
 11 24  1  0  0  0  0
 11 25  1  0  0  0  0
 11 26  1  0  0  0  0
 12 27  1  0  0  0  0
 12 28  1  0  0  0  0
 12 29  1  0  0  0  0
 15 30  1  0  0  0  0
M  END
> <id>
EN300-801175

> <smiles>
CC(C)(C)C=1N=C2C=C(F)C=CC2=CC1O

> <MDLNUMBER>
MFCD31471818

> <IUPAC Name>
2-tert-butyl-7-fluoroquinolin-3-ol

> <CAS>
2137633-21-5

> <URL>
https://www.enaminestore.com/catalog/EN300-801175

> <ROCS_ShapeQuery>
_x1140_x0812_0A_x1140_0A_x1097_0A_x0365_0A_x1097_0A_x0310_0A

> <ROCS_TanimotoCombo>
0.618 

> <ROCS_ShapeTanimoto>
0.271 

> <ROCS_ColorTanimoto>
0.347 

> <ROCS_RefTversky>
0.238 

> <ROCS_RefColorTversky>
0.457 

> <ROCS_RefTverskyCombo>
0.695 

> <ROCS_FitTversky>
1.995 

> <ROCS_FitColorTversky>
0.591 

> <ROCS_FitTverskyCombo>
2.586 

> <ROCS_ColorScore>
-3.611

> <ROCS_Overlap>
2445.137

> <ROCS_Rank>
251                 

$$$$
untitled-dbase-366405_7
  -OEChem-02092423213D

 49 49  0     0  0  0  0  0  0999 V2000
    9.7395   13.4009   26.4633 C   0  0  0  0  0  0  0  0  0  0  0  0
   10.2874   14.2451   27.1181 C   0  0  0  0  0  0  0  0  0  0  0  0
    9.6337   11.9911   24.4666 C   0  0  0  0  0  0  0  0  0  0  0  0
    7.9036   11.8144   26.1435 C   0  0  0  0  0  0  0  0  0  0  0  0
    9.0867   12.3937   25.6849 C   0  0  0  0  0  0  0  0  0  0  0  0
    8.9976   11.0094   23.7068 C   0  0  0  0  0  0  0  0  0  0  0  0
    7.8145   10.4301   24.1654 C   0  0  0  0  0  0  0  0  0  0  0  0
    7.2674   10.8326   25.3838 C   0  0  0  0  0  0  0  0  0  0  0  0
    9.5927   10.6098   22.4384 C   0  0  0  0  0  0  0  0  0  0  0  0
    7.1329    9.3756   23.3502 C   0  0  0  0  0  0  0  0  0  0  0  0
   12.1472   10.0699   22.7956 C   0  0  0  0  0  0  0  0  0  0  0  0
   11.5521    7.6359   22.9709 C   0  0  0  0  0  0  0  0  0  0  0  0
   11.5289    8.7708   20.7305 C   0  0  0  0  0  0  0  0  0  0  0  0
    5.1488   10.9690   26.6946 C   0  0  0  0  0  0  0  0  0  0  0  0
   10.5937   15.4342   29.9329 C   0  0  0  0  0  0  0  0  0  0  0  0
   13.0044   15.3297   28.0530 C   0  0  0  0  0  0  0  0  0  0  0  0
   10.7049   17.2655   27.4850 C   0  0  0  0  0  0  0  0  0  0  0  0
   11.2842    8.9434   22.2289 C   0  0  0  0  0  0  0  0  0  0  0  0
    6.0703   10.2581   25.8654 N   0  0  0  0  0  0  0  0  0  0  0  0
    9.7902   11.3764   21.4883 O   0  0  0  0  0  0  0  0  0  0  0  0
    9.9071    9.2792   22.4301 O   0  0  0  0  0  0  0  0  0  0  0  0
   11.1454   15.5654   28.1446 Si  0  0  0  0  0  0  0  0  0  0  0  0
   10.5563   12.4419   24.1055 H   0  0  0  0  0  0  0  0  0  0  0  0
    7.4744   12.1257   27.0942 H   0  0  0  0  0  0  0  0  0  0  0  0
    7.5049    8.3846   23.6301 H   0  0  0  0  0  0  0  0  0  0  0  0
    6.0482    9.4010   23.5029 H   0  0  0  0  0  0  0  0  0  0  0  0
    7.3113    9.5299   22.2801 H   0  0  0  0  0  0  0  0  0  0  0  0
   11.9578   11.0102   22.2656 H   0  0  0  0  0  0  0  0  0  0  0  0
   11.9557   10.2272   23.8621 H   0  0  0  0  0  0  0  0  0  0  0  0
   13.2129    9.8501   22.6641 H   0  0  0  0  0  0  0  0  0  0  0  0
   10.9350    6.8249   22.5676 H   0  0  0  0  0  0  0  0  0  0  0  0
   11.2876    7.7272   24.0306 H   0  0  0  0  0  0  0  0  0  0  0  0
   12.6036    7.3394   22.9004 H   0  0  0  0  0  0  0  0  0  0  0  0
   10.9100    7.9629   20.3237 H   0  0  0  0  0  0  0  0  0  0  0  0
   11.3062    9.6888   20.1771 H   0  0  0  0  0  0  0  0  0  0  0  0
   12.5704    8.4906   20.5355 H   0  0  0  0  0  0  0  0  0  0  0  0
    5.5257   11.9867   26.8739 H   0  0  0  0  0  0  0  0  0  0  0  0
    4.1711   11.0232   26.1934 H   0  0  0  0  0  0  0  0  0  0  0  0
    5.0398   10.4440   27.6551 H   0  0  0  0  0  0  0  0  0  0  0  0
   11.0796   16.1934   30.5535 H   0  0  0  0  0  0  0  0  0  0  0  0
    9.5120   15.5723   30.0244 H   0  0  0  0  0  0  0  0  0  0  0  0
   10.8406   14.4541   30.3522 H   0  0  0  0  0  0  0  0  0  0  0  0
   13.5288   16.0873   28.6434 H   0  0  0  0  0  0  0  0  0  0  0  0
   13.2980   14.3476   28.4359 H   0  0  0  0  0  0  0  0  0  0  0  0
   13.3624   15.4052   27.0216 H   0  0  0  0  0  0  0  0  0  0  0  0
   11.1925   18.0540   28.0664 H   0  0  0  0  0  0  0  0  0  0  0  0
   11.0180   17.3788   26.4426 H   0  0  0  0  0  0  0  0  0  0  0  0
    9.6253   17.4394   27.5288 H   0  0  0  0  0  0  0  0  0  0  0  0
    5.8848    9.3103   25.6001 H   0  0  0  0  0  0  0  0  0  0  0  0
  1  2  3  0  0  0  0
  1  5  1  0  0  0  0
  2 22  1  0  0  0  0
  3  5  1  0  0  0  0
  3  6  2  0  0  0  0
  4  5  2  0  0  0  0
  4  8  1  0  0  0  0
  6  7  1  0  0  0  0
  6  9  1  0  0  0  0
  7  8  2  0  0  0  0
  7 10  1  0  0  0  0
  8 19  1  0  0  0  0
  9 20  2  0  0  0  0
  9 21  1  0  0  0  0
 11 18  1  0  0  0  0
 12 18  1  0  0  0  0
 13 18  1  0  0  0  0
 14 19  1  0  0  0  0
 15 22  1  0  0  0  0
 16 22  1  0  0  0  0
 17 22  1  0  0  0  0
 18 21  1  0  0  0  0
  3 23  1  0  0  0  0
  4 24  1  0  0  0  0
 10 25  1  0  0  0  0
 10 26  1  0  0  0  0
 10 27  1  0  0  0  0
 11 28  1  0  0  0  0
 11 29  1  0  0  0  0
 11 30  1  0  0  0  0
 12 31  1  0  0  0  0
 12 32  1  0  0  0  0
 12 33  1  0  0  0  0
 13 34  1  0  0  0  0
 13 35  1  0  0  0  0
 13 36  1  0  0  0  0
 14 37  1  0  0  0  0
 14 38  1  0  0  0  0
 14 39  1  0  0  0  0
 15 40  1  0  0  0  0
 15 41  1  0  0  0  0
 15 42  1  0  0  0  0
 16 43  1  0  0  0  0
 16 44  1  0  0  0  0
 16 45  1  0  0  0  0
 17 46  1  0  0  0  0
 17 47  1  0  0  0  0
 17 48  1  0  0  0  0
 19 49  1  0  0  0  0
M  END
> <id>
EN300-26627657

> <smiles>
CNC=1C=C(C#C[Si](C)(C)C)C=C(C(=O)OC(C)(C)C)C1C

> <IUPAC Name>
tert-butyl 2-methyl-3-(methylamino)-5-[2-(trimethylsilyl)ethynyl]benzoate

> <CAS>
2418731-37-8

> <URL>
https://www.enaminestore.com/catalog/EN300-26627657

> <ROCS_ShapeQuery>
_x1140_x0812_0A_x1140_0A_x1097_0A_x0365_0A_x1097_0A_x0310_0A

> <ROCS_TanimotoCombo>
0.618 

> <ROCS_ShapeTanimoto>
0.214 

> <ROCS_ColorTanimoto>
0.403 

> <ROCS_RefTversky>
0.201 

> <ROCS_RefColorTversky>
0.442 

> <ROCS_RefTverskyCombo>
0.643 

> <ROCS_FitTversky>
1.473 

> <ROCS_FitColorTversky>
0.821 

> <ROCS_FitTverskyCombo>
2.294 

> <ROCS_ColorScore>
-3.449

> <ROCS_Overlap>
2060.166

> <ROCS_Rank>
252                 

$$$$
untitled-dbase-311705_0
  -OEChem-02092423213D

 30 31  0     0  0  0  0  0  0999 V2000
    6.7216    9.9905   25.9786 C   0  0  0  0  0  0  0  0  0  0  0  0
    5.7936   10.7903   26.6501 C   0  0  0  0  0  0  0  0  0  0  0  0
    8.5426   12.4735   23.9732 C   0  0  0  0  0  0  0  0  0  0  0  0
    6.6829   12.7316   25.5469 C   0  0  0  0  0  0  0  0  0  0  0  0
    7.6163   11.9269   24.8717 C   0  0  0  0  0  0  0  0  0  0  0  0
    7.6419   10.5329   25.0859 C   0  0  0  0  0  0  0  0  0  0  0  0
    9.4514   11.6520   23.3220 C   0  0  0  0  0  0  0  0  0  0  0  0
    5.7739   12.1626   26.4342 C   0  0  0  0  0  0  0  0  0  0  0  0
    9.4001   10.3003   23.5959 C   0  0  0  0  0  0  0  0  0  0  0  0
   11.8310    9.7307   23.2614 C   0  0  0  0  0  0  0  0  0  0  0  0
   10.1939    9.4125   21.3759 C   0  0  0  0  0  0  0  0  0  0  0  0
   10.1962    7.8582   23.3164 C   0  0  0  0  0  0  0  0  0  0  0  0
   10.3526    9.3646   22.9266 C   0  0  0  0  0  0  0  0  0  0  0  0
    8.5228    9.7332   24.4553 N   0  0  0  0  0  0  0  0  0  0  0  0
   10.3510   12.1778   22.4531 O   0  0  0  0  0  0  0  0  0  0  0  0
    4.6332   13.1526   27.2569 Cl  0  0  0  0  0  0  0  0  0  0  0  0
    6.7158    8.9181   26.1651 H   0  0  0  0  0  0  0  0  0  0  0  0
    5.0933   10.3242   27.3387 H   0  0  0  0  0  0  0  0  0  0  0  0
    8.5551   13.5442   23.7799 H   0  0  0  0  0  0  0  0  0  0  0  0
    6.6710   13.8067   25.3753 H   0  0  0  0  0  0  0  0  0  0  0  0
   12.5517    9.0581   22.7817 H   0  0  0  0  0  0  0  0  0  0  0  0
   12.0769   10.7475   22.9361 H   0  0  0  0  0  0  0  0  0  0  0  0
   11.9986    9.6820   24.3439 H   0  0  0  0  0  0  0  0  0  0  0  0
   10.8903    8.7280   20.8794 H   0  0  0  0  0  0  0  0  0  0  0  0
    9.1851    9.1380   21.0459 H   0  0  0  0  0  0  0  0  0  0  0  0
   10.4035   10.4223   21.0036 H   0  0  0  0  0  0  0  0  0  0  0  0
   10.9165    7.2123   22.7998 H   0  0  0  0  0  0  0  0  0  0  0  0
   10.3500    7.7151   24.3924 H   0  0  0  0  0  0  0  0  0  0  0  0
    9.1949    7.4910   23.0625 H   0  0  0  0  0  0  0  0  0  0  0  0
   10.2393   13.1413   22.3886 H   0  0  0  0  0  0  0  0  0  0  0  0
  1  2  2  0  0  0  0
  1  6  1  0  0  0  0
  2  8  1  0  0  0  0
  3  5  2  0  0  0  0
  3  7  1  0  0  0  0
  4  5  1  0  0  0  0
  4  8  2  0  0  0  0
  5  6  1  0  0  0  0
  6 14  2  0  0  0  0
  7  9  2  0  0  0  0
  7 15  1  0  0  0  0
  8 16  1  0  0  0  0
  9 13  1  0  0  0  0
  9 14  1  0  0  0  0
 10 13  1  0  0  0  0
 11 13  1  0  0  0  0
 12 13  1  0  0  0  0
  1 17  1  0  0  0  0
  2 18  1  0  0  0  0
  3 19  1  0  0  0  0
  4 20  1  0  0  0  0
 10 21  1  0  0  0  0
 10 22  1  0  0  0  0
 10 23  1  0  0  0  0
 11 24  1  0  0  0  0
 11 25  1  0  0  0  0
 11 26  1  0  0  0  0
 12 27  1  0  0  0  0
 12 28  1  0  0  0  0
 12 29  1  0  0  0  0
 15 30  1  0  0  0  0
M  END
> <id>
EN300-801048

> <smiles>
CC(C)(C)C=1N=C2C=CC(Cl)=CC2=CC1O

> <MDLNUMBER>
MFCD31471755

> <IUPAC Name>
2-tert-butyl-6-chloroquinolin-3-ol

> <CAS>
2137649-88-6

> <URL>
https://www.enaminestore.com/catalog/EN300-801048

> <ROCS_ShapeQuery>
_x1140_x0812_0A_x1140_0A_x1097_0A_x0365_0A_x1097_0A_x0310_0A

> <ROCS_TanimotoCombo>
0.618 

> <ROCS_ShapeTanimoto>
0.270 

> <ROCS_ColorTanimoto>
0.347 

> <ROCS_RefTversky>
0.238 

> <ROCS_RefColorTversky>
0.457 

> <ROCS_RefTverskyCombo>
0.695 

> <ROCS_FitTversky>
2.009 

> <ROCS_FitColorTversky>
0.591 

> <ROCS_FitTverskyCombo>
2.601 

> <ROCS_ColorScore>
-3.611

> <ROCS_Overlap>
2440.903

> <ROCS_Rank>
253                 

$$$$
untitled-dbase-58622_3
  -OEChem-02092423213D

 19 19  0     0  0  0  0  0  0999 V2000
    8.2150   12.3817   24.0765 C   0  0  0  0  0  0  0  0  0  0  0  0
    9.1336   11.5495   23.4700 C   0  0  0  0  0  0  0  0  0  0  0  0
    9.0285   10.2111   23.7890 C   0  0  0  0  0  0  0  0  0  0  0  0
    7.2635   10.6247   25.1603 C   0  0  0  0  0  0  0  0  0  0  0  0
   10.1367   12.0724   22.5588 C   0  0  0  0  0  0  0  0  0  0  0  0
   11.9786   13.5798   22.3741 C   0  0  0  0  0  0  0  0  0  0  0  0
    7.2628   11.9515   24.9301 N   0  0  0  0  0  0  0  0  0  0  0  0
    8.1022    9.7122   24.6336 N   0  0  0  0  0  0  0  0  0  0  0  0
    6.2802   10.1384   26.0494 N   0  0  0  0  0  0  0  0  0  0  0  0
   10.2505   11.7357   21.3717 O   0  0  0  0  0  0  0  0  0  0  0  0
    9.8973    9.3071   23.2360 O   0  0  0  0  0  0  0  0  0  0  0  0
   10.9470   12.9895   23.1722 O   0  0  0  0  0  0  0  0  0  0  0  0
    8.2118   13.4517   23.8931 H   0  0  0  0  0  0  0  0  0  0  0  0
   12.5484   14.2886   22.9800 H   0  0  0  0  0  0  0  0  0  0  0  0
   11.5306   14.0926   21.5192 H   0  0  0  0  0  0  0  0  0  0  0  0
   12.6453   12.7921   22.0155 H   0  0  0  0  0  0  0  0  0  0  0  0
    5.6679   10.7871   26.4995 H   0  0  0  0  0  0  0  0  0  0  0  0
    6.2752    9.1672   26.2845 H   0  0  0  0  0  0  0  0  0  0  0  0
    9.6930    8.4180   23.5578 H   0  0  0  0  0  0  0  0  0  0  0  0
  1  2  1  0  0  0  0
  1  7  2  0  0  0  0
  2  3  2  0  0  0  0
  2  5  1  0  0  0  0
  3  8  1  0  0  0  0
  3 11  1  0  0  0  0
  4  7  1  0  0  0  0
  4  8  2  0  0  0  0
  4  9  1  0  0  0  0
  5 10  2  0  0  0  0
  5 12  1  0  0  0  0
  6 12  1  0  0  0  0
  1 13  1  0  0  0  0
  6 14  1  0  0  0  0
  6 15  1  0  0  0  0
  6 16  1  0  0  0  0
  9 17  1  0  0  0  0
  9 18  1  0  0  0  0
 11 19  1  0  0  0  0
M  END
> <id>
EN300-1461986

> <smiles>
COC(=O)C=1C=NC(N)=NC1O

> <MDLNUMBER>
MFCD11108168

> <IUPAC Name>
methyl 2-amino-4-hydroxypyrimidine-5-carboxylate

> <CAS>
1023815-68-0

> <URL>
https://www.enaminestore.com/catalog/EN300-1461986

> <ROCS_ShapeQuery>
_x1140_x0812_0A_x1140_0A_x1097_0A_x0365_0A_x1097_0A_x0310_0A

> <ROCS_TanimotoCombo>
0.618 

> <ROCS_ShapeTanimoto>
0.238 

> <ROCS_ColorTanimoto>
0.380 

> <ROCS_RefTversky>
0.212 

> <ROCS_RefColorTversky>
0.551 

> <ROCS_RefTverskyCombo>
0.763 

> <ROCS_FitTversky>
2.071 

> <ROCS_FitColorTversky>
0.549 

> <ROCS_FitTverskyCombo>
2.621 

> <ROCS_ColorScore>
-4.412

> <ROCS_Overlap>
2172.152

> <ROCS_Rank>
254                 

$$$$
untitled-dbase-219741_0
  -OEChem-02092423213D

 23 23  0     0  0  0  0  0  0999 V2000
    8.1665   11.9722   25.5188 C   0  0  0  0  0  0  0  0  0  0  0  0
    8.9564   12.4273   24.4689 C   0  0  0  0  0  0  0  0  0  0  0  0
    7.7864   10.6398   25.5143 C   0  0  0  0  0  0  0  0  0  0  0  0
    9.3367   11.5484   23.4608 C   0  0  0  0  0  0  0  0  0  0  0  0
    8.9045   10.2349   23.5485 C   0  0  0  0  0  0  0  0  0  0  0  0
   10.1631   12.0228   22.3615 C   0  0  0  0  0  0  0  0  0  0  0  0
   13.5244   13.4994   22.4983 C   0  0  0  0  0  0  0  0  0  0  0  0
    9.2817    9.2445   22.4952 C   0  0  0  0  0  0  0  0  0  0  0  0
   12.2653   13.0092   21.8155 C   0  0  0  0  0  0  0  0  0  0  0  0
    8.1363    9.7563   24.5527 N   0  0  0  0  0  0  0  0  0  0  0  0
    9.8276   11.9927   21.1703 O   0  0  0  0  0  0  0  0  0  0  0  0
   11.3614   12.5097   22.8070 O   0  0  0  0  0  0  0  0  0  0  0  0
   11.1536    8.7605   22.7013 Br  0  0  0  0  0  0  0  0  0  0  0  0
    7.8575   12.6399   26.3152 H   0  0  0  0  0  0  0  0  0  0  0  0
    9.2687   13.4682   24.4468 H   0  0  0  0  0  0  0  0  0  0  0  0
    7.1695   10.2355   26.3101 H   0  0  0  0  0  0  0  0  0  0  0  0
   13.2981   14.3053   23.2020 H   0  0  0  0  0  0  0  0  0  0  0  0
   14.0121   12.6829   23.0409 H   0  0  0  0  0  0  0  0  0  0  0  0
   14.2454   13.8666   21.7605 H   0  0  0  0  0  0  0  0  0  0  0  0
    9.1609    9.6500   21.4854 H   0  0  0  0  0  0  0  0  0  0  0  0
    8.6980    8.3210   22.5692 H   0  0  0  0  0  0  0  0  0  0  0  0
   12.4985   12.2033   21.1133 H   0  0  0  0  0  0  0  0  0  0  0  0
   11.7788   13.8263   21.2746 H   0  0  0  0  0  0  0  0  0  0  0  0
  1  2  2  0  0  0  0
  1  3  1  0  0  0  0
  2  4  1  0  0  0  0
  3 10  2  0  0  0  0
  4  5  2  0  0  0  0
  4  6  1  0  0  0  0
  5  8  1  0  0  0  0
  5 10  1  0  0  0  0
  6 11  2  0  0  0  0
  6 12  1  0  0  0  0
  7  9  1  0  0  0  0
  8 13  1  0  0  0  0
  9 12  1  0  0  0  0
  1 14  1  0  0  0  0
  2 15  1  0  0  0  0
  3 16  1  0  0  0  0
  7 17  1  0  0  0  0
  7 18  1  0  0  0  0
  7 19  1  0  0  0  0
  8 20  1  0  0  0  0
  8 21  1  0  0  0  0
  9 22  1  0  0  0  0
  9 23  1  0  0  0  0
M  END
> <id>
EN300-1440241

> <smiles>
CCOC(=O)C=1C=CC=NC1CBr

> <MDLNUMBER>
MFCD05738912

> <IUPAC Name>
ethyl 2-(bromomethyl)pyridine-3-carboxylate

> <CAS>
63050-11-3

> <Purity>
95

> <URL>
https://www.enaminestore.com/catalog/EN300-1440241

> <ROCS_ShapeQuery>
_x1140_x0812_0A_x1140_0A_x1097_0A_x0365_0A_x1097_0A_x0310_0A

> <ROCS_TanimotoCombo>
0.618 

> <ROCS_ShapeTanimoto>
0.214 

> <ROCS_ColorTanimoto>
0.404 

> <ROCS_RefTversky>
0.194 

> <ROCS_RefColorTversky>
0.443 

> <ROCS_RefTverskyCombo>
0.637 

> <ROCS_FitTversky>
1.877 

> <ROCS_FitColorTversky>
0.822 

> <ROCS_FitTverskyCombo>
2.698 

> <ROCS_ColorScore>
-3.452

> <ROCS_Overlap>
1992.648

> <ROCS_Rank>
255                 

$$$$
untitled-dbase-311922_5
  -OEChem-02092423213D

 31 32  0     0  0  0  0  0  0999 V2000
    6.2537   11.0451   27.3566 C   0  0  0  0  0  0  0  0  0  0  0  0
    6.7861   10.1758   26.4013 C   0  0  0  0  0  0  0  0  0  0  0  0
    6.5839   12.3944   27.3292 C   0  0  0  0  0  0  0  0  0  0  0  0
    8.8516   12.4491   24.3841 C   0  0  0  0  0  0  0  0  0  0  0  0
    7.9814   11.9962   25.3850 C   0  0  0  0  0  0  0  0  0  0  0  0
    7.6504   10.6251   25.4067 C   0  0  0  0  0  0  0  0  0  0  0  0
    9.3633   11.5603   23.4497 C   0  0  0  0  0  0  0  0  0  0  0  0
    7.4461   12.8708   26.3458 C   0  0  0  0  0  0  0  0  0  0  0  0
    8.9821   10.2377   23.5515 C   0  0  0  0  0  0  0  0  0  0  0  0
   11.0179    9.1528   22.5693 C   0  0  0  0  0  0  0  0  0  0  0  0
    7.1533   14.9996   27.3649 C   0  0  0  0  0  0  0  0  0  0  0  0
    9.4943    9.2253   22.5791 C   0  0  0  0  0  0  0  0  0  0  0  0
    8.1455    9.7603   24.5012 N   0  0  0  0  0  0  0  0  0  0  0  0
   11.2684   12.8830   22.7127 N   0  0  0  0  0  0  0  0  0  0  0  0
   10.2362   12.0106   22.4445 N   0  0  0  0  0  0  0  0  0  0  0  0
    7.7503   14.2016   26.3464 O   0  0  0  0  0  0  0  0  0  0  0  0
    5.5818   10.6645   28.1204 H   0  0  0  0  0  0  0  0  0  0  0  0
    6.5118    9.1233   26.4445 H   0  0  0  0  0  0  0  0  0  0  0  0
    6.1680   13.0673   28.0737 H   0  0  0  0  0  0  0  0  0  0  0  0
    9.1352   13.4982   24.3277 H   0  0  0  0  0  0  0  0  0  0  0  0
   11.4571   10.1292   22.3378 H   0  0  0  0  0  0  0  0  0  0  0  0
   11.3652    8.4379   21.8168 H   0  0  0  0  0  0  0  0  0  0  0  0
   11.4031    8.8337   23.5437 H   0  0  0  0  0  0  0  0  0  0  0  0
    7.4770   16.0372   27.2525 H   0  0  0  0  0  0  0  0  0  0  0  0
    7.4476   14.6192   28.3464 H   0  0  0  0  0  0  0  0  0  0  0  0
    6.0665   14.9466   27.2667 H   0  0  0  0  0  0  0  0  0  0  0  0
    9.0861    8.2303   22.8142 H   0  0  0  0  0  0  0  0  0  0  0  0
    9.1364    9.4567   21.5640 H   0  0  0  0  0  0  0  0  0  0  0  0
   11.2905   13.5908   21.9801 H   0  0  0  0  0  0  0  0  0  0  0  0
   12.1491   12.3752   22.6396 H   0  0  0  0  0  0  0  0  0  0  0  0
   10.2350   11.5260   21.5556 H   0  0  0  0  0  0  0  0  0  0  0  0
  1  2  2  0  0  0  0
  1  3  1  0  0  0  0
  2  6  1  0  0  0  0
  3  8  2  0  0  0  0
  4  5  2  0  0  0  0
  4  7  1  0  0  0  0
  5  6  1  0  0  0  0
  5  8  1  0  0  0  0
  6 13  2  0  0  0  0
  7  9  2  0  0  0  0
  7 15  1  0  0  0  0
  8 16  1  0  0  0  0
  9 12  1  0  0  0  0
  9 13  1  0  0  0  0
 10 12  1  0  0  0  0
 11 16  1  0  0  0  0
 14 15  1  0  0  0  0
  1 17  1  0  0  0  0
  2 18  1  0  0  0  0
  3 19  1  0  0  0  0
  4 20  1  0  0  0  0
 10 21  1  0  0  0  0
 10 22  1  0  0  0  0
 10 23  1  0  0  0  0
 11 24  1  0  0  0  0
 11 25  1  0  0  0  0
 11 26  1  0  0  0  0
 12 27  1  0  0  0  0
 12 28  1  0  0  0  0
 14 29  1  0  0  0  0
 14 30  1  0  0  0  0
 15 31  1  0  0  0  0
M  END
> <id>
EN300-801880

> <smiles>
CCC=1N=C2C=CC=C(OC)C2=CC1NN

> <MDLNUMBER>
MFCD31472091

> <IUPAC Name>
2-ethyl-3-hydrazinyl-5-methoxyquinoline

> <CAS>
2137801-11-5

> <URL>
https://www.enaminestore.com/catalog/EN300-801880

> <ROCS_ShapeQuery>
_x1140_x0812_0A_x1140_0A_x1097_0A_x0365_0A_x1097_0A_x0310_0A

> <ROCS_TanimotoCombo>
0.618 

> <ROCS_ShapeTanimoto>
0.259 

> <ROCS_ColorTanimoto>
0.359 

> <ROCS_RefTversky>
0.230 

> <ROCS_RefColorTversky>
0.508 

> <ROCS_RefTverskyCombo>
0.738 

> <ROCS_FitTversky>
1.930 

> <ROCS_FitColorTversky>
0.551 

> <ROCS_FitTverskyCombo>
2.481 

> <ROCS_ColorScore>
-4.043

> <ROCS_Overlap>
2358.957

> <ROCS_Rank>
256                 

$$$$
untitled-dbase-96142_0
  -OEChem-02092423213D

 24 26  0     0  0  0  0  0  0999 V2000
    6.5053   12.4734   25.8804 C   0  0  0  0  0  0  0  0  0  0  0  0
    9.0960   10.2857   23.5856 C   0  0  0  0  0  0  0  0  0  0  0  0
    5.8536   11.3938   26.4364 C   0  0  0  0  0  0  0  0  0  0  0  0
    7.5009   11.9683   25.0028 C   0  0  0  0  0  0  0  0  0  0  0  0
    8.4746   12.5257   24.1583 C   0  0  0  0  0  0  0  0  0  0  0  0
    9.2867   11.6529   23.4365 C   0  0  0  0  0  0  0  0  0  0  0  0
    7.4188   10.5799   25.0567 C   0  0  0  0  0  0  0  0  0  0  0  0
    7.3343   14.8073   23.7487 C   0  0  0  0  0  0  0  0  0  0  0  0
    8.4573   14.7020   22.7648 C   0  0  0  0  0  0  0  0  0  0  0  0
    8.5644   14.0037   24.1003 C   0  0  0  0  0  0  0  0  0  0  0  0
    8.1763    9.6939   24.3827 N   0  0  0  0  0  0  0  0  0  0  0  0
    6.4159   10.2507   25.9301 N   0  0  0  0  0  0  0  0  0  0  0  0
   10.2847   12.1369   22.5693 N   0  0  0  0  0  0  0  0  0  0  0  0
    6.2815   13.5108   26.0881 H   0  0  0  0  0  0  0  0  0  0  0  0
    9.7162    9.5817   23.0351 H   0  0  0  0  0  0  0  0  0  0  0  0
    5.0401   11.3380   27.1457 H   0  0  0  0  0  0  0  0  0  0  0  0
    7.1931   15.7560   24.2532 H   0  0  0  0  0  0  0  0  0  0  0  0
    6.4140   14.2840   23.5197 H   0  0  0  0  0  0  0  0  0  0  0  0
    8.2922   14.1058   21.8751 H   0  0  0  0  0  0  0  0  0  0  0  0
    9.0724   15.5794   22.6045 H   0  0  0  0  0  0  0  0  0  0  0  0
    9.2382   14.4612   24.8193 H   0  0  0  0  0  0  0  0  0  0  0  0
    6.1341    9.3088   26.1639 H   0  0  0  0  0  0  0  0  0  0  0  0
   10.8838   11.4866   22.0997 H   0  0  0  0  0  0  0  0  0  0  0  0
   10.4432   13.1234   22.5067 H   0  0  0  0  0  0  0  0  0  0  0  0
  1  3  2  0  0  0  0
  1  4  1  0  0  0  0
  2  6  1  0  0  0  0
  2 11  2  0  0  0  0
  3 12  1  0  0  0  0
  4  5  1  0  0  0  0
  4  7  2  0  0  0  0
  5  6  2  0  0  0  0
  5 10  1  0  0  0  0
  6 13  1  0  0  0  0
  7 11  1  0  0  0  0
  7 12  1  0  0  0  0
  8  9  1  0  0  0  0
  8 10  1  0  0  0  0
  9 10  1  0  0  0  0
  1 14  1  0  0  0  0
  2 15  1  0  0  0  0
  3 16  1  0  0  0  0
  8 17  1  0  0  0  0
  8 18  1  0  0  0  0
  9 19  1  0  0  0  0
  9 20  1  0  0  0  0
 10 21  1  0  0  0  0
 12 22  1  0  0  0  0
 13 23  1  0  0  0  0
 13 24  1  0  0  0  0
M  END
> <id>
EN300-738582

> <smiles>
NC=1C=NC=2NC=CC2C1C3CC3

> <MDLNUMBER>
MFCD31451015

> <IUPAC Name>
4-cyclopropyl-1H-pyrrolo[2,3-b]pyridin-5-amine

> <CAS>
2138174-67-9

> <URL>
https://www.enaminestore.com/catalog/EN300-738582

> <ROCS_ShapeQuery>
_x1140_x0812_0A_x1140_0A_x1097_0A_x0365_0A_x1097_0A_x0310_0A

> <ROCS_TanimotoCombo>
0.618 

> <ROCS_ShapeTanimoto>
0.230 

> <ROCS_ColorTanimoto>
0.387 

> <ROCS_RefTversky>
0.207 

> <ROCS_RefColorTversky>
0.495 

> <ROCS_RefTverskyCombo>
0.703 

> <ROCS_FitTversky>
1.914 

> <ROCS_FitColorTversky>
0.639 

> <ROCS_FitTverskyCombo>
2.554 

> <ROCS_ColorScore>
-3.914

> <ROCS_Overlap>
2126.965

> <ROCS_Rank>
257                 

$$$$
untitled-dbase-94014_4
  -OEChem-02092423213D

 24 24  0     0  0  0  0  0  0999 V2000
    7.9564   10.9511   25.3483 C   0  0  0  0  0  0  0  0  0  0  0  0
    9.0891   11.5694   23.5287 C   0  0  0  0  0  0  0  0  0  0  0  0
    8.4948   12.0498   24.7200 C   0  0  0  0  0  0  0  0  0  0  0  0
    8.8717   10.2112   23.5141 C   0  0  0  0  0  0  0  0  0  0  0  0
    9.7856   12.3055   22.5142 C   0  0  0  0  0  0  0  0  0  0  0  0
   12.5808   13.7367   22.0211 C   0  0  0  0  0  0  0  0  0  0  0  0
    9.2269    9.1392   22.5717 C   0  0  0  0  0  0  0  0  0  0  0  0
   11.1539   14.2361   22.0996 C   0  0  0  0  0  0  0  0  0  0  0  0
    8.4540   13.4429   25.2015 C   0  0  0  0  0  0  0  0  0  0  0  0
    9.8275   12.0004   21.3030 O   0  0  0  0  0  0  0  0  0  0  0  0
    8.1819    9.8264   24.6199 O   0  0  0  0  0  0  0  0  0  0  0  0
   10.4227   13.4162   23.0177 O   0  0  0  0  0  0  0  0  0  0  0  0
    7.8035   13.6073   26.3992 F   0  0  0  0  0  0  0  0  0  0  0  0
    9.6896   14.0053   25.4051 F   0  0  0  0  0  0  0  0  0  0  0  0
    7.8181   14.2968   24.3369 F   0  0  0  0  0  0  0  0  0  0  0  0
   11.1334    8.7386   22.6981 Br  0  0  0  0  0  0  0  0  0  0  0  0
    7.4109   10.8073   26.2699 H   0  0  0  0  0  0  0  0  0  0  0  0
   13.0670   13.7891   22.9992 H   0  0  0  0  0  0  0  0  0  0  0  0
   12.6083   12.7007   21.6677 H   0  0  0  0  0  0  0  0  0  0  0  0
   13.1592   14.3321   21.3068 H   0  0  0  0  0  0  0  0  0  0  0  0
    9.0350    9.4043   21.5175 H   0  0  0  0  0  0  0  0  0  0  0  0
    8.6972    8.1911   22.7702 H   0  0  0  0  0  0  0  0  0  0  0  0
   10.6735   14.1810   21.1182 H   0  0  0  0  0  0  0  0  0  0  0  0
   11.1282   15.2710   22.4537 H   0  0  0  0  0  0  0  0  0  0  0  0
  1  3  2  0  0  0  0
  1 11  1  0  0  0  0
  2  3  1  0  0  0  0
  2  4  2  0  0  0  0
  2  5  1  0  0  0  0
  3  9  1  0  0  0  0
  4  7  1  0  0  0  0
  4 11  1  0  0  0  0
  5 10  2  0  0  0  0
  5 12  1  0  0  0  0
  6  8  1  0  0  0  0
  7 16  1  0  0  0  0
  8 12  1  0  0  0  0
  9 13  1  0  0  0  0
  9 14  1  0  0  0  0
  9 15  1  0  0  0  0
  1 17  1  0  0  0  0
  6 18  1  0  0  0  0
  6 19  1  0  0  0  0
  6 20  1  0  0  0  0
  7 21  1  0  0  0  0
  7 22  1  0  0  0  0
  8 23  1  0  0  0  0
  8 24  1  0  0  0  0
M  END
> <id>
EN300-637431

> <smiles>
CCOC(=O)C1=C(CBr)OC=C1C(F)(F)F

> <MDLNUMBER>
MFCD22124972

> <IUPAC Name>
ethyl 2-(bromomethyl)-4-(trifluoromethyl)furan-3-carboxylate

> <CAS>
26431-56-1

> <Purity>
95

> <URL>
https://www.enaminestore.com/catalog/EN300-637431

> <ROCS_ShapeQuery>
_x1140_x0812_0A_x1140_0A_x1097_0A_x0365_0A_x1097_0A_x0310_0A

> <ROCS_TanimotoCombo>
0.617 

> <ROCS_ShapeTanimoto>
0.236 

> <ROCS_ColorTanimoto>
0.381 

> <ROCS_RefTversky>
0.214 

> <ROCS_RefColorTversky>
0.425 

> <ROCS_RefTverskyCombo>
0.638 

> <ROCS_FitTversky>
1.813 

> <ROCS_FitColorTversky>
0.789 

> <ROCS_FitTverskyCombo>
2.601 

> <ROCS_ColorScore>
-3.312

> <ROCS_Overlap>
2191.026

> <ROCS_Rank>
258                 

$$$$
untitled-dbase-570240_1
  -OEChem-02092423213D

 19 19  0     0  0  0  0  0  0999 V2000
    8.4424   12.5155   24.2024 C   0  0  0  0  0  0  0  0  0  0  0  0
    9.2202   11.5775   23.5327 C   0  0  0  0  0  0  0  0  0  0  0  0
    7.5445   12.0967   25.1780 C   0  0  0  0  0  0  0  0  0  0  0  0
    9.0637   10.2435   23.8728 C   0  0  0  0  0  0  0  0  0  0  0  0
    7.4628   10.7394   25.4443 C   0  0  0  0  0  0  0  0  0  0  0  0
   10.1601   12.0257   22.5145 C   0  0  0  0  0  0  0  0  0  0  0  0
   12.0709   13.3977   22.1265 C   0  0  0  0  0  0  0  0  0  0  0  0
    8.2020    9.7987   24.8147 N   0  0  0  0  0  0  0  0  0  0  0  0
    9.8540    9.2814   23.1954 N   0  0  0  0  0  0  0  0  0  0  0  0
   10.1242   11.6756   21.3286 O   0  0  0  0  0  0  0  0  0  0  0  0
   11.0889   12.8849   23.0333 O   0  0  0  0  0  0  0  0  0  0  0  0
    6.5903   13.2726   25.9974 Cl  0  0  0  0  0  0  0  0  0  0  0  0
    6.3973   10.0762   26.6238 Cl  0  0  0  0  0  0  0  0  0  0  0  0
    8.5396   13.5719   23.9617 H   0  0  0  0  0  0  0  0  0  0  0  0
   12.7484   14.0671   22.6623 H   0  0  0  0  0  0  0  0  0  0  0  0
   11.5737   13.9371   21.3164 H   0  0  0  0  0  0  0  0  0  0  0  0
   12.6405   12.5634   21.7103 H   0  0  0  0  0  0  0  0  0  0  0  0
   10.4609    9.5853   22.4658 H   0  0  0  0  0  0  0  0  0  0  0  0
    9.7152    8.3158   23.3992 H   0  0  0  0  0  0  0  0  0  0  0  0
  1  2  1  0  0  0  0
  1  3  2  0  0  0  0
  2  4  2  0  0  0  0
  2  6  1  0  0  0  0
  3  5  1  0  0  0  0
  3 12  1  0  0  0  0
  4  8  1  0  0  0  0
  4  9  1  0  0  0  0
  5  8  2  0  0  0  0
  5 13  1  0  0  0  0
  6 10  2  0  0  0  0
  6 11  1  0  0  0  0
  7 11  1  0  0  0  0
  1 14  1  0  0  0  0
  7 15  1  0  0  0  0
  7 16  1  0  0  0  0
  7 17  1  0  0  0  0
  9 18  1  0  0  0  0
  9 19  1  0  0  0  0
M  END
> <id>
EN300-20836266

> <smiles>
COC(=O)C=1C=C(Cl)C(Cl)=NC1N

> <MDLNUMBER>
MFCD28722234

> <IUPAC Name>
methyl 2-amino-5,6-dichloropyridine-3-carboxylate

> <CAS>
1807004-89-2

> <URL>
https://www.enaminestore.com/catalog/EN300-20836266

> <ROCS_ShapeQuery>
_x1140_x0812_0A_x1140_0A_x1097_0A_x0365_0A_x1097_0A_x0310_0A

> <ROCS_TanimotoCombo>
0.617 

> <ROCS_ShapeTanimoto>
0.245 

> <ROCS_ColorTanimoto>
0.373 

> <ROCS_RefTversky>
0.217 

> <ROCS_RefColorTversky>
0.450 

> <ROCS_RefTverskyCombo>
0.667 

> <ROCS_FitTversky>
2.082 

> <ROCS_FitColorTversky>
0.685 

> <ROCS_FitTverskyCombo>
2.767 

> <ROCS_ColorScore>
-3.532

> <ROCS_Overlap>
2225.110

> <ROCS_Rank>
259                 

$$$$
untitled-dbase-499012_8
  -OEChem-02092423213D

 36 36  0     0  0  0  0  0  0999 V2000
    7.7399   12.0805   25.2481 C   0  0  0  0  0  0  0  0  0  0  0  0
    7.7372   10.6897   25.4345 C   0  0  0  0  0  0  0  0  0  0  0  0
    8.4102   12.2674   24.0640 C   0  0  0  0  0  0  0  0  0  0  0  0
    7.1865   13.1103   26.0761 C   0  0  0  0  0  0  0  0  0  0  0  0
    9.4607   10.6568   22.4593 C   0  0  0  0  0  0  0  0  0  0  0  0
    7.1491    9.9286   26.5511 C   0  0  0  0  0  0  0  0  0  0  0  0
    8.7222   13.5317   23.3629 C   0  0  0  0  0  0  0  0  0  0  0  0
   11.6464    9.3047   23.6527 C   0  0  0  0  0  0  0  0  0  0  0  0
   10.8915    7.3080   22.3289 C   0  0  0  0  0  0  0  0  0  0  0  0
   11.6322    9.3912   21.1373 C   0  0  0  0  0  0  0  0  0  0  0  0
    5.4350   13.6259   27.6390 C   0  0  0  0  0  0  0  0  0  0  0  0
   10.9420    8.8334   22.3813 C   0  0  0  0  0  0  0  0  0  0  0  0
    8.3555   10.0350   24.4501 N   0  0  0  0  0  0  0  0  0  0  0  0
    8.7668   11.0169   23.6110 N   0  0  0  0  0  0  0  0  0  0  0  0
    7.6324   14.2745   26.1752 O   0  0  0  0  0  0  0  0  0  0  0  0
    9.8524   11.5036   21.6723 O   0  0  0  0  0  0  0  0  0  0  0  0
    6.0801   12.6841   26.7750 O   0  0  0  0  0  0  0  0  0  0  0  0
    9.5930    9.3088   22.4054 O   0  0  0  0  0  0  0  0  0  0  0  0
    6.1014    9.6552   26.3404 H   0  0  0  0  0  0  0  0  0  0  0  0
    7.7024    8.9951   26.7554 H   0  0  0  0  0  0  0  0  0  0  0  0
    7.1607   10.5002   27.4960 H   0  0  0  0  0  0  0  0  0  0  0  0
    9.6940   13.9342   23.6892 H   0  0  0  0  0  0  0  0  0  0  0  0
    8.7629   13.3962   22.2697 H   0  0  0  0  0  0  0  0  0  0  0  0
    7.9575   14.3039   23.5483 H   0  0  0  0  0  0  0  0  0  0  0  0
   11.6847   10.3992   23.6940 H   0  0  0  0  0  0  0  0  0  0  0  0
   11.1407    8.9403   24.5528 H   0  0  0  0  0  0  0  0  0  0  0  0
   12.6859    8.9580   23.6753 H   0  0  0  0  0  0  0  0  0  0  0  0
   10.3869    6.9654   21.4183 H   0  0  0  0  0  0  0  0  0  0  0  0
   10.3149    6.9075   23.1705 H   0  0  0  0  0  0  0  0  0  0  0  0
   11.8942    6.8694   22.3556 H   0  0  0  0  0  0  0  0  0  0  0  0
   11.1271    9.0533   20.2252 H   0  0  0  0  0  0  0  0  0  0  0  0
   11.6450   10.4860   21.1399 H   0  0  0  0  0  0  0  0  0  0  0  0
   12.6651    9.0310   21.0703 H   0  0  0  0  0  0  0  0  0  0  0  0
    4.5790   13.1499   28.1236 H   0  0  0  0  0  0  0  0  0  0  0  0
    5.1038   14.4890   27.0561 H   0  0  0  0  0  0  0  0  0  0  0  0
    6.1459   13.9543   28.4009 H   0  0  0  0  0  0  0  0  0  0  0  0
  1  2  1  0  0  0  0
  1  3  2  0  0  0  0
  1  4  1  0  0  0  0
  2  6  1  0  0  0  0
  2 13  2  0  0  0  0
  3  7  1  0  0  0  0
  3 14  1  0  0  0  0
  4 15  2  0  0  0  0
  4 17  1  0  0  0  0
  5 14  1  0  0  0  0
  5 16  2  0  0  0  0
  5 18  1  0  0  0  0
  8 12  1  0  0  0  0
  9 12  1  0  0  0  0
 10 12  1  0  0  0  0
 11 17  1  0  0  0  0
 12 18  1  0  0  0  0
 13 14  1  0  0  0  0
  6 19  1  0  0  0  0
  6 20  1  0  0  0  0
  6 21  1  0  0  0  0
  7 22  1  0  0  0  0
  7 23  1  0  0  0  0
  7 24  1  0  0  0  0
  8 25  1  0  0  0  0
  8 26  1  0  0  0  0
  8 27  1  0  0  0  0
  9 28  1  0  0  0  0
  9 29  1  0  0  0  0
  9 30  1  0  0  0  0
 10 31  1  0  0  0  0
 10 32  1  0  0  0  0
 10 33  1  0  0  0  0
 11 34  1  0  0  0  0
 11 35  1  0  0  0  0
 11 36  1  0  0  0  0
M  END
> <id>
EN300-28262805

> <smiles>
COC(=O)C=1C(C)=NN(C(=O)OC(C)(C)C)C1C

> <IUPAC Name>
1-tert-butyl 4-methyl 3,5-dimethyl-1H-pyrazole-1,4-dicarboxylate

> <CAS>
156363-62-1

> <URL>
https://www.enaminestore.com/catalog/EN300-28262805

> <ROCS_ShapeQuery>
_x1140_x0812_0A_x1140_0A_x1097_0A_x0365_0A_x1097_0A_x0310_0A

> <ROCS_TanimotoCombo>
0.617 

> <ROCS_ShapeTanimoto>
0.248 

> <ROCS_ColorTanimoto>
0.370 

> <ROCS_RefTversky>
0.224 

> <ROCS_RefColorTversky>
0.447 

> <ROCS_RefTverskyCombo>
0.671 

> <ROCS_FitTversky>
1.763 

> <ROCS_FitColorTversky>
0.681 

> <ROCS_FitTverskyCombo>
2.444 

> <ROCS_ColorScore>
-3.508

> <ROCS_Overlap>
2296.498

> <ROCS_Rank>
260                 

$$$$
untitled-dbase-462940_3
  -OEChem-02092423213D

 26 26  0     0  0  0  0  0  0999 V2000
    8.0128   11.9445   25.4741 C   0  0  0  0  0  0  0  0  0  0  0  0
    7.8602   10.5780   25.5103 C   0  0  0  0  0  0  0  0  0  0  0  0
    8.6268   12.2387   24.2334 C   0  0  0  0  0  0  0  0  0  0  0  0
    8.8060   11.0310   23.5999 C   0  0  0  0  0  0  0  0  0  0  0  0
    9.3897   10.6864   22.2906 C   0  0  0  0  0  0  0  0  0  0  0  0
    8.9970   13.5742   23.7297 C   0  0  0  0  0  0  0  0  0  0  0  0
   10.9511    8.5385   23.7610 C   0  0  0  0  0  0  0  0  0  0  0  0
   11.9603    9.1542   21.5563 C   0  0  0  0  0  0  0  0  0  0  0  0
    9.4440    9.2184   21.8670 C   0  0  0  0  0  0  0  0  0  0  0  0
   10.7553    8.5067   22.2436 C   0  0  0  0  0  0  0  0  0  0  0  0
    9.8115   11.5678   21.5412 O   0  0  0  0  0  0  0  0  0  0  0  0
    8.3413   10.0136   24.3716 O   0  0  0  0  0  0  0  0  0  0  0  0
    7.7166   12.6388   26.2479 H   0  0  0  0  0  0  0  0  0  0  0  0
    7.4507    9.8904   26.2361 H   0  0  0  0  0  0  0  0  0  0  0  0
   10.0235   13.8433   24.0301 H   0  0  0  0  0  0  0  0  0  0  0  0
    8.9455   13.6317   22.6284 H   0  0  0  0  0  0  0  0  0  0  0  0
    8.3215   14.3621   24.1065 H   0  0  0  0  0  0  0  0  0  0  0  0
   11.0081    9.5700   24.1243 H   0  0  0  0  0  0  0  0  0  0  0  0
   11.8727    8.0241   24.0542 H   0  0  0  0  0  0  0  0  0  0  0  0
   10.1135    8.0519   24.2719 H   0  0  0  0  0  0  0  0  0  0  0  0
   12.0591   10.2089   21.8306 H   0  0  0  0  0  0  0  0  0  0  0  0
   11.8558    9.1054   20.4671 H   0  0  0  0  0  0  0  0  0  0  0  0
   12.8923    8.6467   21.8277 H   0  0  0  0  0  0  0  0  0  0  0  0
    8.6012    8.6842   22.3211 H   0  0  0  0  0  0  0  0  0  0  0  0
    9.3216    9.1991   20.7770 H   0  0  0  0  0  0  0  0  0  0  0  0
   10.7050    7.4554   21.9341 H   0  0  0  0  0  0  0  0  0  0  0  0
  1  2  2  0  0  0  0
  1  3  1  0  0  0  0
  2 12  1  0  0  0  0
  3  4  2  0  0  0  0
  3  6  1  0  0  0  0
  4  5  1  0  0  0  0
  4 12  1  0  0  0  0
  5  9  1  0  0  0  0
  5 11  2  0  0  0  0
  7 10  1  0  0  0  0
  8 10  1  0  0  0  0
  9 10  1  0  0  0  0
  1 13  1  0  0  0  0
  2 14  1  0  0  0  0
  6 15  1  0  0  0  0
  6 16  1  0  0  0  0
  6 17  1  0  0  0  0
  7 18  1  0  0  0  0
  7 19  1  0  0  0  0
  7 20  1  0  0  0  0
  8 21  1  0  0  0  0
  8 22  1  0  0  0  0
  8 23  1  0  0  0  0
  9 24  1  0  0  0  0
  9 25  1  0  0  0  0
 10 26  1  0  0  0  0
M  END
> <id>
EN300-1236391

> <smiles>
CC(C)CC(=O)C=1OC=CC1C

> <MDLNUMBER>
MFCD21338942

> <IUPAC Name>
3-methyl-1-(3-methylfuran-2-yl)butan-1-one

> <CAS>
488-05-1

> <Purity>
95

> <URL>
https://www.enaminestore.com/catalog/EN300-1236391

> <ROCS_ShapeQuery>
_x1140_x0812_0A_x1140_0A_x1097_0A_x0365_0A_x1097_0A_x0310_0A

> <ROCS_TanimotoCombo>
0.617 

> <ROCS_ShapeTanimoto>
0.188 

> <ROCS_ColorTanimoto>
0.430 

> <ROCS_RefTversky>
0.174 

> <ROCS_RefColorTversky>
0.462 

> <ROCS_RefTverskyCombo>
0.636 

> <ROCS_FitTversky>
1.743 

> <ROCS_FitColorTversky>
0.858 

> <ROCS_FitTverskyCombo>
2.602 

> <ROCS_ColorScore>
-3.606

> <ROCS_Overlap>
1781.611

> <ROCS_Rank>
261                 

$$$$
untitled-dbase-104017_0
  -OEChem-02092423213D

 33 34  0     0  0  0  0  0  0999 V2000
    5.7709   12.1681   26.4302 C   0  0  0  0  0  0  0  0  0  0  0  0
    6.6819   12.7363   25.5444 C   0  0  0  0  0  0  0  0  0  0  0  0
    5.7887   10.7958   26.6459 C   0  0  0  0  0  0  0  0  0  0  0  0
    8.5437   12.4762   23.9735 C   0  0  0  0  0  0  0  0  0  0  0  0
    7.6154   11.9306   24.8705 C   0  0  0  0  0  0  0  0  0  0  0  0
    6.7169    9.9950   25.9758 C   0  0  0  0  0  0  0  0  0  0  0  0
    7.6391   10.5365   25.0845 C   0  0  0  0  0  0  0  0  0  0  0  0
    9.4526   11.6538   23.3235 C   0  0  0  0  0  0  0  0  0  0  0  0
    9.3993   10.3022   23.5972 C   0  0  0  0  0  0  0  0  0  0  0  0
    6.6975    8.5216   26.2421 C   0  0  0  0  0  0  0  0  0  0  0  0
   11.8296    9.7295   23.2633 C   0  0  0  0  0  0  0  0  0  0  0  0
   10.1927    9.4139   21.3772 C   0  0  0  0  0  0  0  0  0  0  0  0
   10.1923    7.8591   23.3173 C   0  0  0  0  0  0  0  0  0  0  0  0
   10.3507    9.3655   22.9279 C   0  0  0  0  0  0  0  0  0  0  0  0
    8.5200    9.7359   24.4552 N   0  0  0  0  0  0  0  0  0  0  0  0
   10.3521   12.1781   22.4537 O   0  0  0  0  0  0  0  0  0  0  0  0
    5.0516   12.7935   26.9501 H   0  0  0  0  0  0  0  0  0  0  0  0
    6.6606   13.8118   25.3842 H   0  0  0  0  0  0  0  0  0  0  0  0
    5.0754   10.3540   27.3370 H   0  0  0  0  0  0  0  0  0  0  0  0
    8.5591   13.5473   23.7818 H   0  0  0  0  0  0  0  0  0  0  0  0
    6.0240    8.0213   25.5388 H   0  0  0  0  0  0  0  0  0  0  0  0
    7.6994    8.0908   26.1384 H   0  0  0  0  0  0  0  0  0  0  0  0
    6.3604    8.3119   27.2634 H   0  0  0  0  0  0  0  0  0  0  0  0
   12.5495    9.0561   22.7836 H   0  0  0  0  0  0  0  0  0  0  0  0
   12.0769   10.7461   22.9383 H   0  0  0  0  0  0  0  0  0  0  0  0
   11.9968    9.6803   24.3458 H   0  0  0  0  0  0  0  0  0  0  0  0
   10.8883    8.7287   20.8807 H   0  0  0  0  0  0  0  0  0  0  0  0
    9.1837    9.1409   21.0467 H   0  0  0  0  0  0  0  0  0  0  0  0
   10.4037   10.4235   21.0052 H   0  0  0  0  0  0  0  0  0  0  0  0
   10.9119    7.2125   22.8007 H   0  0  0  0  0  0  0  0  0  0  0  0
   10.3456    7.7155   24.3933 H   0  0  0  0  0  0  0  0  0  0  0  0
    9.1907    7.4933   23.0630 H   0  0  0  0  0  0  0  0  0  0  0  0
   10.2405   13.1414   22.3874 H   0  0  0  0  0  0  0  0  0  0  0  0
  1  2  1  0  0  0  0
  1  3  2  0  0  0  0
  2  5  2  0  0  0  0
  3  6  1  0  0  0  0
  4  5  1  0  0  0  0
  4  8  2  0  0  0  0
  5  7  1  0  0  0  0
  6  7  2  0  0  0  0
  6 10  1  0  0  0  0
  7 15  1  0  0  0  0
  8  9  1  0  0  0  0
  8 16  1  0  0  0  0
  9 14  1  0  0  0  0
  9 15  2  0  0  0  0
 11 14  1  0  0  0  0
 12 14  1  0  0  0  0
 13 14  1  0  0  0  0
  1 17  1  0  0  0  0
  2 18  1  0  0  0  0
  3 19  1  0  0  0  0
  4 20  1  0  0  0  0
 10 21  1  0  0  0  0
 10 22  1  0  0  0  0
 10 23  1  0  0  0  0
 11 24  1  0  0  0  0
 11 25  1  0  0  0  0
 11 26  1  0  0  0  0
 12 27  1  0  0  0  0
 12 28  1  0  0  0  0
 12 29  1  0  0  0  0
 13 30  1  0  0  0  0
 13 31  1  0  0  0  0
 13 32  1  0  0  0  0
 16 33  1  0  0  0  0
M  END
> <id>
EN300-801105

> <smiles>
CC=1C=CC=C2C=C(O)C(=NC12)C(C)(C)C

> <MDLNUMBER>
MFCD31471785

> <IUPAC Name>
2-tert-butyl-8-methylquinolin-3-ol

> <CAS>
2138232-00-3

> <URL>
https://www.enaminestore.com/catalog/EN300-801105

> <ROCS_ShapeQuery>
_x1140_x0812_0A_x1140_0A_x1097_0A_x0365_0A_x1097_0A_x0310_0A

> <ROCS_TanimotoCombo>
0.617 

> <ROCS_ShapeTanimoto>
0.270 

> <ROCS_ColorTanimoto>
0.347 

> <ROCS_RefTversky>
0.238 

> <ROCS_RefColorTversky>
0.457 

> <ROCS_RefTverskyCombo>
0.695 

> <ROCS_FitTversky>
1.996 

> <ROCS_FitColorTversky>
0.592 

> <ROCS_FitTverskyCombo>
2.587 

> <ROCS_ColorScore>
-3.612

> <ROCS_Overlap>
2439.063

> <ROCS_Rank>
262                 

$$$$
untitled-dbase-143248_7
  -OEChem-02092423213D

 35 35  0     1  0  0  0  0  0999 V2000
    9.9747   11.2532   22.8243 C   0  0  0  0  0  0  0  0  0  0  0  0
    7.9979   12.5813   23.5342 C   0  0  0  0  0  0  0  0  0  0  0  0
    9.6974   11.7740   25.2524 C   0  0  0  0  0  0  0  0  0  0  0  0
    7.0398   11.4776   23.9841 C   0  0  0  0  0  0  0  0  0  0  0  0
    8.7150   10.6889   25.6970 C   0  0  0  0  0  0  0  0  0  0  0  0
    9.4651   12.2555   23.8191 C   0  0  1  0  0  0  0  0  0  0  0  0
    7.2633   11.1080   25.4526 C   0  0  2  0  0  0  0  0  0  0  0  0
   12.1312    9.6874   21.8272 C   0  0  0  0  0  0  0  0  0  0  0  0
   11.4671    8.0004   23.5656 C   0  0  0  0  0  0  0  0  0  0  0  0
    9.8546    8.6178   21.7417 C   0  0  0  0  0  0  0  0  0  0  0  0
   10.9758    9.1198   22.6504 C   0  0  0  0  0  0  0  0  0  0  0  0
    6.3629   10.0209   25.8330 N   0  0  0  0  0  0  0  0  0  0  0  0
    9.9496   11.4174   21.6120 O   0  0  0  0  0  0  0  0  0  0  0  0
   10.4556   10.1608   23.4833 O   0  0  0  0  0  0  0  0  0  0  0  0
    7.8487   12.7719   22.4643 H   0  0  0  0  0  0  0  0  0  0  0  0
    7.7347   13.5085   24.0593 H   0  0  0  0  0  0  0  0  0  0  0  0
    9.5970   12.6318   25.9300 H   0  0  0  0  0  0  0  0  0  0  0  0
   10.7218   11.3997   25.3682 H   0  0  0  0  0  0  0  0  0  0  0  0
    6.0078   11.8182   23.8332 H   0  0  0  0  0  0  0  0  0  0  0  0
    7.1756   10.5953   23.3451 H   0  0  0  0  0  0  0  0  0  0  0  0
    8.9355    9.7562   25.1620 H   0  0  0  0  0  0  0  0  0  0  0  0
    8.8732   10.4806   26.7626 H   0  0  0  0  0  0  0  0  0  0  0  0
   10.0604   13.1624   23.6532 H   0  0  0  0  0  0  0  0  0  0  0  0
    7.0337   11.9795   26.0786 H   0  0  0  0  0  0  0  0  0  0  0  0
   11.7827   10.4912   21.1689 H   0  0  0  0  0  0  0  0  0  0  0  0
   12.9267   10.0826   22.4674 H   0  0  0  0  0  0  0  0  0  0  0  0
   12.5615    8.9186   21.1752 H   0  0  0  0  0  0  0  0  0  0  0  0
   10.6414    7.5902   24.1582 H   0  0  0  0  0  0  0  0  0  0  0  0
   12.2041    8.3784   24.2834 H   0  0  0  0  0  0  0  0  0  0  0  0
   11.9242    7.1845   22.9965 H   0  0  0  0  0  0  0  0  0  0  0  0
    9.0257    8.2106   22.3320 H   0  0  0  0  0  0  0  0  0  0  0  0
    9.4643    9.4171   21.1034 H   0  0  0  0  0  0  0  0  0  0  0  0
   10.2080    7.8018   21.1011 H   0  0  0  0  0  0  0  0  0  0  0  0
    5.8302    9.7674   25.0355 H   0  0  0  0  0  0  0  0  0  0  0  0
    6.9150    9.2578   26.1446 H   0  0  0  0  0  0  0  0  0  0  0  0
  1  6  1  1  0  0  0
  1 13  2  0  0  0  0
  1 14  1  0  0  0  0
  2  4  1  0  0  0  0
  2  6  1  0  0  0  0
  3  5  1  0  0  0  0
  3  6  1  0  0  0  0
  4  7  1  0  0  0  0
  5  7  1  0  0  0  0
  7 12  1  1  0  0  0
  8 11  1  0  0  0  0
  9 11  1  0  0  0  0
 10 11  1  0  0  0  0
 11 14  1  0  0  0  0
  2 15  1  0  0  0  0
  2 16  1  0  0  0  0
  3 17  1  0  0  0  0
  3 18  1  0  0  0  0
  4 19  1  0  0  0  0
  4 20  1  0  0  0  0
  5 21  1  0  0  0  0
  5 22  1  0  0  0  0
  6 23  1  0  0  0  0
  7 24  1  0  0  0  0
  8 25  1  0  0  0  0
  8 26  1  0  0  0  0
  8 27  1  0  0  0  0
  9 28  1  0  0  0  0
  9 29  1  0  0  0  0
  9 30  1  0  0  0  0
 10 31  1  0  0  0  0
 10 32  1  0  0  0  0
 10 33  1  0  0  0  0
 12 34  1  0  0  0  0
 12 35  1  0  0  0  0
M  END
> <id>
EN300-1692396

> <smiles>
Cl.CC(C)(C)OC(=O)[C@H]1CC[C@@H](N)CC1

> <MDLNUMBER>
MFCD30063701

> <IUPAC Name>
tert-butyl (1s,4s)-4-aminocyclohexane-1-carboxylate hydrochloride

> <CAS>
118786-13-3

> <Purity>
95

> <URL>
https://www.enaminestore.com/catalog/EN300-1692396

> <Saltdate>
Cl

> <ROCS_ShapeQuery>
_x1140_x0812_0A_x1140_0A_x1097_0A_x0365_0A_x1097_0A_x0310_0A

> <ROCS_TanimotoCombo>
0.617 

> <ROCS_ShapeTanimoto>
0.201 

> <ROCS_ColorTanimoto>
0.416 

> <ROCS_RefTversky>
0.185 

> <ROCS_RefColorTversky>
0.487 

> <ROCS_RefTverskyCombo>
0.672 

> <ROCS_FitTversky>
1.733 

> <ROCS_FitColorTversky>
0.742 

> <ROCS_FitTverskyCombo>
2.475 

> <ROCS_ColorScore>
-3.821

> <ROCS_Overlap>
1899.262

> <ROCS_Rank>
263                 

$$$$
untitled-dbase-159128_7
  -OEChem-02092423213D

 35 35  0     1  0  0  0  0  0999 V2000
    9.9747   11.2532   22.8243 C   0  0  0  0  0  0  0  0  0  0  0  0
    7.9979   12.5813   23.5342 C   0  0  0  0  0  0  0  0  0  0  0  0
    9.6974   11.7740   25.2524 C   0  0  0  0  0  0  0  0  0  0  0  0
    7.0398   11.4776   23.9841 C   0  0  0  0  0  0  0  0  0  0  0  0
    8.7150   10.6889   25.6970 C   0  0  0  0  0  0  0  0  0  0  0  0
    9.4651   12.2555   23.8191 C   0  0  1  0  0  0  0  0  0  0  0  0
    7.2633   11.1080   25.4526 C   0  0  2  0  0  0  0  0  0  0  0  0
   12.1312    9.6874   21.8272 C   0  0  0  0  0  0  0  0  0  0  0  0
   11.4671    8.0004   23.5656 C   0  0  0  0  0  0  0  0  0  0  0  0
    9.8546    8.6178   21.7417 C   0  0  0  0  0  0  0  0  0  0  0  0
   10.9758    9.1198   22.6504 C   0  0  0  0  0  0  0  0  0  0  0  0
    6.3629   10.0209   25.8330 N   0  0  0  0  0  0  0  0  0  0  0  0
    9.9496   11.4174   21.6120 O   0  0  0  0  0  0  0  0  0  0  0  0
   10.4556   10.1608   23.4833 O   0  0  0  0  0  0  0  0  0  0  0  0
    7.8487   12.7719   22.4643 H   0  0  0  0  0  0  0  0  0  0  0  0
    7.7347   13.5085   24.0593 H   0  0  0  0  0  0  0  0  0  0  0  0
    9.5970   12.6318   25.9300 H   0  0  0  0  0  0  0  0  0  0  0  0
   10.7218   11.3997   25.3682 H   0  0  0  0  0  0  0  0  0  0  0  0
    6.0078   11.8182   23.8332 H   0  0  0  0  0  0  0  0  0  0  0  0
    7.1756   10.5953   23.3451 H   0  0  0  0  0  0  0  0  0  0  0  0
    8.9355    9.7562   25.1620 H   0  0  0  0  0  0  0  0  0  0  0  0
    8.8732   10.4806   26.7626 H   0  0  0  0  0  0  0  0  0  0  0  0
   10.0604   13.1624   23.6532 H   0  0  0  0  0  0  0  0  0  0  0  0
    7.0337   11.9795   26.0786 H   0  0  0  0  0  0  0  0  0  0  0  0
   11.7827   10.4912   21.1689 H   0  0  0  0  0  0  0  0  0  0  0  0
   12.9267   10.0826   22.4674 H   0  0  0  0  0  0  0  0  0  0  0  0
   12.5615    8.9186   21.1752 H   0  0  0  0  0  0  0  0  0  0  0  0
   10.6414    7.5902   24.1582 H   0  0  0  0  0  0  0  0  0  0  0  0
   12.2041    8.3784   24.2834 H   0  0  0  0  0  0  0  0  0  0  0  0
   11.9242    7.1845   22.9965 H   0  0  0  0  0  0  0  0  0  0  0  0
    9.0257    8.2106   22.3320 H   0  0  0  0  0  0  0  0  0  0  0  0
    9.4643    9.4171   21.1034 H   0  0  0  0  0  0  0  0  0  0  0  0
   10.2080    7.8018   21.1011 H   0  0  0  0  0  0  0  0  0  0  0  0
    5.8302    9.7674   25.0355 H   0  0  0  0  0  0  0  0  0  0  0  0
    6.9150    9.2578   26.1446 H   0  0  0  0  0  0  0  0  0  0  0  0
  1  6  1  1  0  0  0
  1 13  2  0  0  0  0
  1 14  1  0  0  0  0
  2  4  1  0  0  0  0
  2  6  1  0  0  0  0
  3  5  1  0  0  0  0
  3  6  1  0  0  0  0
  4  7  1  0  0  0  0
  5  7  1  0  0  0  0
  7 12  1  1  0  0  0
  8 11  1  0  0  0  0
  9 11  1  0  0  0  0
 10 11  1  0  0  0  0
 11 14  1  0  0  0  0
  2 15  1  0  0  0  0
  2 16  1  0  0  0  0
  3 17  1  0  0  0  0
  3 18  1  0  0  0  0
  4 19  1  0  0  0  0
  4 20  1  0  0  0  0
  5 21  1  0  0  0  0
  5 22  1  0  0  0  0
  6 23  1  0  0  0  0
  7 24  1  0  0  0  0
  8 25  1  0  0  0  0
  8 26  1  0  0  0  0
  8 27  1  0  0  0  0
  9 28  1  0  0  0  0
  9 29  1  0  0  0  0
  9 30  1  0  0  0  0
 10 31  1  0  0  0  0
 10 32  1  0  0  0  0
 10 33  1  0  0  0  0
 12 34  1  0  0  0  0
 12 35  1  0  0  0  0
M  END
> <id>
EN300-907279

> <smiles>
CC(C)(C)OC(=O)[C@H]1CC[C@@H](N)CC1

> <MDLNUMBER>
MFCD20696867

> <IUPAC Name>
tert-butyl (1s,4s)-4-aminocyclohexane-1-carboxylate

> <CAS>
173843-87-3

> <URL>
https://www.enaminestore.com/catalog/EN300-907279

> <ROCS_ShapeQuery>
_x1140_x0812_0A_x1140_0A_x1097_0A_x0365_0A_x1097_0A_x0310_0A

> <ROCS_TanimotoCombo>
0.617 

> <ROCS_ShapeTanimoto>
0.201 

> <ROCS_ColorTanimoto>
0.416 

> <ROCS_RefTversky>
0.185 

> <ROCS_RefColorTversky>
0.487 

> <ROCS_RefTverskyCombo>
0.672 

> <ROCS_FitTversky>
1.733 

> <ROCS_FitColorTversky>
0.742 

> <ROCS_FitTverskyCombo>
2.475 

> <ROCS_ColorScore>
-3.821

> <ROCS_Overlap>
1899.262

> <ROCS_Rank>
264                 

$$$$
untitled-dbase-588903_9
  -OEChem-02092423213D

 27 27  0     0  0  0  0  0  0999 V2000
    8.5219   12.5321   24.2949 C   0  0  0  0  0  0  0  0  0  0  0  0
    7.5724   12.0985   25.2134 C   0  0  0  0  0  0  0  0  0  0  0  0
    9.2979   11.6011   23.6136 C   0  0  0  0  0  0  0  0  0  0  0  0
    7.4388   10.7339   25.4129 C   0  0  0  0  0  0  0  0  0  0  0  0
    9.0873   10.2587   23.8849 C   0  0  0  0  0  0  0  0  0  0  0  0
   11.3216   12.8829   22.9719 C   0  0  0  0  0  0  0  0  0  0  0  0
   10.2880   12.0710   22.6554 C   0  0  0  0  0  0  0  0  0  0  0  0
    6.4295   10.2323   26.3912 C   0  0  0  0  0  0  0  0  0  0  0  0
    8.8145   13.5766   20.8410 C   0  0  0  0  0  0  0  0  0  0  0  0
    8.8717   12.0640   20.8192 C   0  0  0  0  0  0  0  0  0  0  0  0
    8.1744    9.7995   24.7700 N   0  0  0  0  0  0  0  0  0  0  0  0
    9.8716    9.2973   23.1982 N   0  0  0  0  0  0  0  0  0  0  0  0
   10.1034   11.6456   21.3448 O   0  0  0  0  0  0  0  0  0  0  0  0
    8.6438   13.5986   24.1219 H   0  0  0  0  0  0  0  0  0  0  0  0
    6.9605   12.8147   25.7515 H   0  0  0  0  0  0  0  0  0  0  0  0
   12.0332   13.2142   22.2221 H   0  0  0  0  0  0  0  0  0  0  0  0
   11.4740   13.2439   23.9835 H   0  0  0  0  0  0  0  0  0  0  0  0
    5.4672   10.0639   25.8933 H   0  0  0  0  0  0  0  0  0  0  0  0
    6.7546    9.2897   26.8496 H   0  0  0  0  0  0  0  0  0  0  0  0
    6.2786   10.9485   27.2089 H   0  0  0  0  0  0  0  0  0  0  0  0
    8.9048   13.9559   21.8627 H   0  0  0  0  0  0  0  0  0  0  0  0
    9.6200   14.0021   20.2334 H   0  0  0  0  0  0  0  0  0  0  0  0
    7.8713   13.9332   20.4139 H   0  0  0  0  0  0  0  0  0  0  0  0
    8.7808   11.6912   19.7946 H   0  0  0  0  0  0  0  0  0  0  0  0
    8.0668   11.6405   21.4274 H   0  0  0  0  0  0  0  0  0  0  0  0
   10.5176    9.6096   22.5071 H   0  0  0  0  0  0  0  0  0  0  0  0
    9.6911    8.3302   23.3551 H   0  0  0  0  0  0  0  0  0  0  0  0
  1  2  2  0  0  0  0
  1  3  1  0  0  0  0
  2  4  1  0  0  0  0
  3  5  2  0  0  0  0
  3  7  1  0  0  0  0
  4  8  1  0  0  0  0
  4 11  2  0  0  0  0
  5 11  1  0  0  0  0
  5 12  1  0  0  0  0
  6  7  2  0  0  0  0
  7 13  1  0  0  0  0
  9 10  1  0  0  0  0
 10 13  1  0  0  0  0
  1 14  1  0  0  0  0
  2 15  1  0  0  0  0
  6 16  1  0  0  0  0
  6 17  1  0  0  0  0
  8 18  1  0  0  0  0
  8 19  1  0  0  0  0
  8 20  1  0  0  0  0
  9 21  1  0  0  0  0
  9 22  1  0  0  0  0
  9 23  1  0  0  0  0
 10 24  1  0  0  0  0
 10 25  1  0  0  0  0
 12 26  1  0  0  0  0
 12 27  1  0  0  0  0
M  END
> <id>
EN300-803368

> <smiles>
CCOC(=C)C=1C=CC(C)=NC1N

> <MDLNUMBER>
MFCD31472517

> <IUPAC Name>
3-(1-ethoxyethenyl)-6-methylpyridin-2-amine

> <CAS>
2137644-16-5

> <URL>
https://www.enaminestore.com/catalog/EN300-803368

> <ROCS_ShapeQuery>
_x1140_x0812_0A_x1140_0A_x1097_0A_x0365_0A_x1097_0A_x0310_0A

> <ROCS_TanimotoCombo>
0.617 

> <ROCS_ShapeTanimoto>
0.233 

> <ROCS_ColorTanimoto>
0.384 

> <ROCS_RefTversky>
0.209 

> <ROCS_RefColorTversky>
0.460 

> <ROCS_RefTverskyCombo>
0.669 

> <ROCS_FitTversky>
1.995 

> <ROCS_FitColorTversky>
0.700 

> <ROCS_FitTverskyCombo>
2.695 

> <ROCS_ColorScore>
-3.611

> <ROCS_Overlap>
2138.597

> <ROCS_Rank>
265                 

$$$$
untitled-dbase-46244_4
  -OEChem-02092423213D

 24 24  0     0  0  0  0  0  0999 V2000
    8.8601   11.9809   24.8324 C   0  0  0  0  0  0  0  0  0  0  0  0
    8.2176   10.9042   25.4725 C   0  0  0  0  0  0  0  0  0  0  0  0
    9.1090   11.5253   23.5608 C   0  0  0  0  0  0  0  0  0  0  0  0
    9.7441   12.2064   22.4773 C   0  0  0  0  0  0  0  0  0  0  0  0
   11.1116    8.9182   22.6176 C   0  0  0  0  0  0  0  0  0  0  0  0
   10.7840   14.2708   21.8075 C   0  0  0  0  0  0  0  0  0  0  0  0
    9.7346    8.2837   22.5109 C   0  0  0  0  0  0  0  0  0  0  0  0
    8.6429    9.3431   22.3778 C   0  0  0  0  0  0  0  0  0  0  0  0
    8.0675    9.8445   24.6733 N   0  0  0  0  0  0  0  0  0  0  0  0
    8.6192   10.2532   23.5180 N   0  0  0  0  0  0  0  0  0  0  0  0
    9.9407   11.7295   21.3356 O   0  0  0  0  0  0  0  0  0  0  0  0
   10.1352   13.4844   22.8125 O   0  0  0  0  0  0  0  0  0  0  0  0
    9.1051   12.9505   25.2414 H   0  0  0  0  0  0  0  0  0  0  0  0
    7.8520   10.8474   26.4877 H   0  0  0  0  0  0  0  0  0  0  0  0
   11.1647    9.5979   23.4740 H   0  0  0  0  0  0  0  0  0  0  0  0
   11.3355    9.4927   21.7133 H   0  0  0  0  0  0  0  0  0  0  0  0
   11.8871    8.1546   22.7359 H   0  0  0  0  0  0  0  0  0  0  0  0
   11.0333   15.2529   22.2168 H   0  0  0  0  0  0  0  0  0  0  0  0
   10.1210   14.3811   20.9456 H   0  0  0  0  0  0  0  0  0  0  0  0
   11.7010   13.7645   21.4969 H   0  0  0  0  0  0  0  0  0  0  0  0
    9.7134    7.6101   21.6458 H   0  0  0  0  0  0  0  0  0  0  0  0
    9.5524    7.6642   23.3973 H   0  0  0  0  0  0  0  0  0  0  0  0
    7.6522    8.8794   22.3012 H   0  0  0  0  0  0  0  0  0  0  0  0
    8.7879    9.9461   21.4735 H   0  0  0  0  0  0  0  0  0  0  0  0
  1  2  1  0  0  0  0
  1  3  2  0  0  0  0
  2  9  2  0  0  0  0
  3  4  1  0  0  0  0
  3 10  1  0  0  0  0
  4 11  2  0  0  0  0
  4 12  1  0  0  0  0
  5  7  1  0  0  0  0
  6 12  1  0  0  0  0
  7  8  1  0  0  0  0
  8 10  1  0  0  0  0
  9 10  1  0  0  0  0
  1 13  1  0  0  0  0
  2 14  1  0  0  0  0
  5 15  1  0  0  0  0
  5 16  1  0  0  0  0
  5 17  1  0  0  0  0
  6 18  1  0  0  0  0
  6 19  1  0  0  0  0
  6 20  1  0  0  0  0
  7 21  1  0  0  0  0
  7 22  1  0  0  0  0
  8 23  1  0  0  0  0
  8 24  1  0  0  0  0
M  END
> <id>
EN300-231328

> <smiles>
CCCN1N=CC=C1C(=O)OC

> <MDLNUMBER>
MFCD09473472

> <IUPAC Name>
methyl 1-propyl-1H-pyrazole-5-carboxylate

> <CAS>
1170869-49-4

> <Purity>
95

> <URL>
https://www.enaminestore.com/catalog/EN300-231328

> <ROCS_ShapeQuery>
_x1140_x0812_0A_x1140_0A_x1097_0A_x0365_0A_x1097_0A_x0310_0A

> <ROCS_TanimotoCombo>
0.617 

> <ROCS_ShapeTanimoto>
0.198 

> <ROCS_ColorTanimoto>
0.419 

> <ROCS_RefTversky>
0.182 

> <ROCS_RefColorTversky>
0.454 

> <ROCS_RefTverskyCombo>
0.636 

> <ROCS_FitTversky>
1.804 

> <ROCS_FitColorTversky>
0.843 

> <ROCS_FitTverskyCombo>
2.647 

> <ROCS_ColorScore>
-3.542

> <ROCS_Overlap>
1865.061

> <ROCS_Rank>
266                 

$$$$
untitled-dbase-201638_1
  -OEChem-02092423213D

 19 19  0     0  0  0  0  0  0999 V2000
    8.1952   12.3735   24.0767 C   0  0  0  0  0  0  0  0  0  0  0  0
    9.1162   11.5388   23.4771 C   0  0  0  0  0  0  0  0  0  0  0  0
    9.0122   10.2022   23.8040 C   0  0  0  0  0  0  0  0  0  0  0  0
    7.2438   10.6218   25.1692 C   0  0  0  0  0  0  0  0  0  0  0  0
   10.1133   12.0741   22.5639 C   0  0  0  0  0  0  0  0  0  0  0  0
   11.9360   13.6024   22.3783 C   0  0  0  0  0  0  0  0  0  0  0  0
    7.2418   11.9472   24.9309 N   0  0  0  0  0  0  0  0  0  0  0  0
    8.0848    9.7072   24.6497 N   0  0  0  0  0  0  0  0  0  0  0  0
    9.9288    9.2935   23.2191 N   0  0  0  0  0  0  0  0  0  0  0  0
   10.2286   11.7382   21.3776 O   0  0  0  0  0  0  0  0  0  0  0  0
    6.2847   10.1520   26.0363 O   0  0  0  0  0  0  0  0  0  0  0  0
   10.9123   13.0000   23.1774 O   0  0  0  0  0  0  0  0  0  0  0  0
    8.1889   13.4422   23.8856 H   0  0  0  0  0  0  0  0  0  0  0  0
   12.4981   14.3178   22.9836 H   0  0  0  0  0  0  0  0  0  0  0  0
   11.4811   14.1100   21.5239 H   0  0  0  0  0  0  0  0  0  0  0  0
   12.6115   12.8226   22.0190 H   0  0  0  0  0  0  0  0  0  0  0  0
   10.5889    9.6361   22.5554 H   0  0  0  0  0  0  0  0  0  0  0  0
    9.8314    8.3206   23.4127 H   0  0  0  0  0  0  0  0  0  0  0  0
    6.3787    9.1959   26.1327 H   0  0  0  0  0  0  0  0  0  0  0  0
  1  2  1  0  0  0  0
  1  7  2  0  0  0  0
  2  3  2  0  0  0  0
  2  5  1  0  0  0  0
  3  8  1  0  0  0  0
  3  9  1  0  0  0  0
  4  7  1  0  0  0  0
  4  8  2  0  0  0  0
  4 11  1  0  0  0  0
  5 10  2  0  0  0  0
  5 12  1  0  0  0  0
  6 12  1  0  0  0  0
  1 13  1  0  0  0  0
  6 14  1  0  0  0  0
  6 15  1  0  0  0  0
  6 16  1  0  0  0  0
  9 17  1  0  0  0  0
  9 18  1  0  0  0  0
 11 19  1  0  0  0  0
M  END
> <id>
EN300-28640894

> <smiles>
COC(=O)C=1C=NC(O)=NC1N

> <MDLNUMBER>
MFCD34575132

> <IUPAC Name>
methyl 4-amino-2-hydroxypyrimidine-5-carboxylate

> <CAS>
162129-70-6

> <Purity>
95

> <URL>
https://www.enaminestore.com/catalog/EN300-28640894

> <ROCS_ShapeQuery>
_x1140_x0812_0A_x1140_0A_x1097_0A_x0365_0A_x1097_0A_x0310_0A

> <ROCS_TanimotoCombo>
0.617 

> <ROCS_ShapeTanimoto>
0.238 

> <ROCS_ColorTanimoto>
0.379 

> <ROCS_RefTversky>
0.212 

> <ROCS_RefColorTversky>
0.550 

> <ROCS_RefTverskyCombo>
0.762 

> <ROCS_FitTversky>
2.071 

> <ROCS_FitColorTversky>
0.548 

> <ROCS_FitTverskyCombo>
2.620 

> <ROCS_ColorScore>
-4.405

> <ROCS_Overlap>
2171.614

> <ROCS_Rank>
267                 

$$$$
untitled-dbase-290768_7
  -OEChem-02092423213D

 30 30  0     0  0  0  0  0  0999 V2000
    8.4342   12.7448   25.3327 C   0  0  0  0  0  0  0  0  0  0  0  0
    9.1332   12.4040   24.1927 C   0  0  0  0  0  0  0  0  0  0  0  0
    8.8548   11.1568   23.6721 C   0  0  0  0  0  0  0  0  0  0  0  0
    7.3475   10.7483   25.3239 C   0  0  0  0  0  0  0  0  0  0  0  0
    9.5359   10.6633   22.4486 C   0  0  0  0  0  0  0  0  0  0  0  0
   10.1175   13.3370   23.5871 C   0  0  0  0  0  0  0  0  0  0  0  0
   11.7499    9.3309   23.6426 C   0  0  0  0  0  0  0  0  0  0  0  0
   10.8897    7.2729   22.4878 C   0  0  0  0  0  0  0  0  0  0  0  0
   11.6339    9.2502   21.1297 C   0  0  0  0  0  0  0  0  0  0  0  0
   10.9816    8.7963   22.4348 C   0  0  0  0  0  0  0  0  0  0  0  0
    7.5306   11.9383   25.9271 N   0  0  0  0  0  0  0  0  0  0  0  0
    7.9646   10.2999   24.2141 N   0  0  0  0  0  0  0  0  0  0  0  0
    6.4070    9.8785   25.9178 N   0  0  0  0  0  0  0  0  0  0  0  0
    9.9282   11.3999   21.5570 O   0  0  0  0  0  0  0  0  0  0  0  0
    9.6497    9.3095   22.4800 O   0  0  0  0  0  0  0  0  0  0  0  0
    8.5812   13.7027   25.8216 H   0  0  0  0  0  0  0  0  0  0  0  0
   11.1191   13.1713   24.0079 H   0  0  0  0  0  0  0  0  0  0  0  0
   10.1783   13.2090   22.4963 H   0  0  0  0  0  0  0  0  0  0  0  0
    9.8410   14.3871   23.7634 H   0  0  0  0  0  0  0  0  0  0  0  0
   11.8181   10.4242   23.6083 H   0  0  0  0  0  0  0  0  0  0  0  0
   11.2727    9.0417   24.5846 H   0  0  0  0  0  0  0  0  0  0  0  0
   12.7802    8.9570   23.6475 H   0  0  0  0  0  0  0  0  0  0  0  0
   10.3392    6.8849   21.6231 H   0  0  0  0  0  0  0  0  0  0  0  0
   10.3384    6.9458   23.3767 H   0  0  0  0  0  0  0  0  0  0  0  0
   11.8811    6.8086   22.5044 H   0  0  0  0  0  0  0  0  0  0  0  0
   11.0829    8.8669   20.2632 H   0  0  0  0  0  0  0  0  0  0  0  0
   11.6749   10.3419   21.0577 H   0  0  0  0  0  0  0  0  0  0  0  0
   12.6536    8.8571   21.0464 H   0  0  0  0  0  0  0  0  0  0  0  0
    5.9603   10.1529   26.7684 H   0  0  0  0  0  0  0  0  0  0  0  0
    6.2750    8.9672   25.5297 H   0  0  0  0  0  0  0  0  0  0  0  0
  1  2  1  0  0  0  0
  1 11  2  0  0  0  0
  2  3  2  0  0  0  0
  2  6  1  0  0  0  0
  3  5  1  0  0  0  0
  3 12  1  0  0  0  0
  4 11  1  0  0  0  0
  4 12  2  0  0  0  0
  4 13  1  0  0  0  0
  5 14  2  0  0  0  0
  5 15  1  0  0  0  0
  7 10  1  0  0  0  0
  8 10  1  0  0  0  0
  9 10  1  0  0  0  0
 10 15  1  0  0  0  0
  1 16  1  0  0  0  0
  6 17  1  0  0  0  0
  6 18  1  0  0  0  0
  6 19  1  0  0  0  0
  7 20  1  0  0  0  0
  7 21  1  0  0  0  0
  7 22  1  0  0  0  0
  8 23  1  0  0  0  0
  8 24  1  0  0  0  0
  8 25  1  0  0  0  0
  9 26  1  0  0  0  0
  9 27  1  0  0  0  0
  9 28  1  0  0  0  0
 13 29  1  0  0  0  0
 13 30  1  0  0  0  0
M  END
> <id>
EN300-6510740

> <smiles>
CC=1C=NC(N)=NC1C(=O)OC(C)(C)C

> <IUPAC Name>
tert-butyl 2-amino-5-methylpyrimidine-4-carboxylate

> <CAS>
2248371-60-8

> <URL>
https://www.enaminestore.com/catalog/EN300-6510740

> <ROCS_ShapeQuery>
_x1140_x0812_0A_x1140_0A_x1097_0A_x0365_0A_x1097_0A_x0310_0A

> <ROCS_TanimotoCombo>
0.617 

> <ROCS_ShapeTanimoto>
0.232 

> <ROCS_ColorTanimoto>
0.385 

> <ROCS_RefTversky>
0.210 

> <ROCS_RefColorTversky>
0.525 

> <ROCS_RefTverskyCombo>
0.735 

> <ROCS_FitTversky>
1.838 

> <ROCS_FitColorTversky>
0.590 

> <ROCS_FitTverskyCombo>
2.428 

> <ROCS_ColorScore>
-4.174

> <ROCS_Overlap>
2151.293

> <ROCS_Rank>
268                 

$$$$
untitled-dbase-242740_4
  -OEChem-02092423213D

 17 17  0     0  0  0  0  0  0999 V2000
    7.9088   11.9848   25.3327 C   0  0  0  0  0  0  0  0  0  0  0  0
    8.7615   12.4318   24.3296 C   0  0  0  0  0  0  0  0  0  0  0  0
    7.6810   10.6215   25.4305 C   0  0  0  0  0  0  0  0  0  0  0  0
    9.3522   11.5150   23.4672 C   0  0  0  0  0  0  0  0  0  0  0  0
    9.0601   10.1728   23.6486 C   0  0  0  0  0  0  0  0  0  0  0  0
   10.9402    8.9236   22.6895 C   0  0  0  0  0  0  0  0  0  0  0  0
   10.2441   11.9941   22.4201 C   0  0  0  0  0  0  0  0  0  0  0  0
    9.6388    9.1512   22.7863 C   0  0  0  0  0  0  0  0  0  0  0  0
    8.2367    9.7007   24.6114 N   0  0  0  0  0  0  0  0  0  0  0  0
   10.0338   11.8049   21.2200 O   0  0  0  0  0  0  0  0  0  0  0  0
    7.4372   12.6811   26.0161 H   0  0  0  0  0  0  0  0  0  0  0  0
    8.9577   13.4963   24.2304 H   0  0  0  0  0  0  0  0  0  0  0  0
    7.0239   10.2219   26.1957 H   0  0  0  0  0  0  0  0  0  0  0  0
   11.2835    8.1324   22.0299 H   0  0  0  0  0  0  0  0  0  0  0  0
   11.7026    9.4659   23.2361 H   0  0  0  0  0  0  0  0  0  0  0  0
   11.1497   12.5530   22.7387 H   0  0  0  0  0  0  0  0  0  0  0  0
    8.9516    8.5407   22.2258 H   0  0  0  0  0  0  0  0  0  0  0  0
  1  2  2  0  0  0  0
  1  3  1  0  0  0  0
  2  4  1  0  0  0  0
  3  9  2  0  0  0  0
  4  5  2  0  0  0  0
  4  7  1  0  0  0  0
  5  8  1  0  0  0  0
  5  9  1  0  0  0  0
  6  8  2  0  0  0  0
  7 10  2  0  0  0  0
  1 11  1  0  0  0  0
  2 12  1  0  0  0  0
  3 13  1  0  0  0  0
  6 14  1  0  0  0  0
  6 15  1  0  0  0  0
  7 16  1  0  0  0  0
  8 17  1  0  0  0  0
M  END
> <id>
EN300-2517376

> <smiles>
C=CC=1N=CC=CC1C=O

> <MDLNUMBER>
MFCD06654833

> <IUPAC Name>
2-ethenylpyridine-3-carbaldehyde

> <CAS>
893620-48-9

> <Purity>
95

> <URL>
https://www.enaminestore.com/catalog/EN300-2517376

> <ROCS_ShapeQuery>
_x1140_x0812_0A_x1140_0A_x1097_0A_x0365_0A_x1097_0A_x0310_0A

> <ROCS_TanimotoCombo>
0.617 

> <ROCS_ShapeTanimoto>
0.199 

> <ROCS_ColorTanimoto>
0.418 

> <ROCS_RefTversky>
0.181 

> <ROCS_RefColorTversky>
0.453 

> <ROCS_RefTverskyCombo>
0.635 

> <ROCS_FitTversky>
1.951 

> <ROCS_FitColorTversky>
0.842 

> <ROCS_FitTverskyCombo>
2.793 

> <ROCS_ColorScore>
-3.536

> <ROCS_Overlap>
1857.127

> <ROCS_Rank>
269                 

$$$$
untitled-dbase-397263_9
  -OEChem-02092423213D

 35 35  0     0  0  0  0  0  0999 V2000
    7.9018   10.4379   24.1904 C   0  0  0  0  0  0  0  0  0  0  0  0
    7.5253   12.1258   25.8775 C   0  0  0  0  0  0  0  0  0  0  0  0
    8.8659   11.2499   23.5931 C   0  0  0  0  0  0  0  0  0  0  0  0
    9.1598   12.4998   24.1381 C   0  0  0  0  0  0  0  0  0  0  0  0
    7.2314   10.8759   25.3325 C   0  0  0  0  0  0  0  0  0  0  0  0
    8.4895   12.9378   25.2803 C   0  0  0  0  0  0  0  0  0  0  0  0
    9.5601   10.7561   22.3771 C   0  0  0  0  0  0  0  0  0  0  0  0
   10.1949   13.3673   23.4930 C   0  0  0  0  0  0  0  0  0  0  0  0
   11.7248    9.3675   23.5973 C   0  0  0  0  0  0  0  0  0  0  0  0
   10.8462    7.3393   22.4042 C   0  0  0  0  0  0  0  0  0  0  0  0
   11.6543    9.3158   21.0819 C   0  0  0  0  0  0  0  0  0  0  0  0
   10.9690    8.8611   22.3697 C   0  0  0  0  0  0  0  0  0  0  0  0
    6.2573   10.0541   25.9367 N   0  0  0  0  0  0  0  0  0  0  0  0
    9.9834   11.4942   21.5011 O   0  0  0  0  0  0  0  0  0  0  0  0
    8.9429   15.4605   24.9183 O   0  0  0  0  0  0  0  0  0  0  0  0
    7.9314   14.6767   27.1149 O   0  0  0  0  0  0  0  0  0  0  0  0
    9.6467    9.4001   22.3958 O   0  0  0  0  0  0  0  0  0  0  0  0
   10.2841   14.4153   26.6340 F   0  0  0  0  0  0  0  0  0  0  0  0
    8.8334   14.4982   25.9956 S   0  0  0  0  0  0  0  0  0  0  0  0
    7.6710    9.4634   23.7651 H   0  0  0  0  0  0  0  0  0  0  0  0
    7.0033   12.4654   26.7693 H   0  0  0  0  0  0  0  0  0  0  0  0
    9.7295   14.0133   22.7411 H   0  0  0  0  0  0  0  0  0  0  0  0
   10.6984   13.9969   24.2352 H   0  0  0  0  0  0  0  0  0  0  0  0
   10.9681   12.7615   23.0070 H   0  0  0  0  0  0  0  0  0  0  0  0
   11.8150   10.4595   23.5763 H   0  0  0  0  0  0  0  0  0  0  0  0
   11.2243    9.0778   24.5270 H   0  0  0  0  0  0  0  0  0  0  0  0
   12.7472    8.9732   23.6172 H   0  0  0  0  0  0  0  0  0  0  0  0
   10.3045    6.9715   21.5252 H   0  0  0  0  0  0  0  0  0  0  0  0
   10.2719    7.0138   23.2791 H   0  0  0  0  0  0  0  0  0  0  0  0
   11.8278    6.8553   22.4341 H   0  0  0  0  0  0  0  0  0  0  0  0
   11.1124    8.9527   20.2012 H   0  0  0  0  0  0  0  0  0  0  0  0
   11.7181   10.4072   21.0227 H   0  0  0  0  0  0  0  0  0  0  0  0
   12.6675    8.9035   21.0132 H   0  0  0  0  0  0  0  0  0  0  0  0
    6.0230    9.1807   25.5099 H   0  0  0  0  0  0  0  0  0  0  0  0
    5.7506   10.3988   26.7269 H   0  0  0  0  0  0  0  0  0  0  0  0
  1  3  2  0  0  0  0
  1  5  1  0  0  0  0
  2  5  2  0  0  0  0
  2  6  1  0  0  0  0
  3  4  1  0  0  0  0
  3  7  1  0  0  0  0
  4  6  2  0  0  0  0
  4  8  1  0  0  0  0
  5 13  1  0  0  0  0
  6 19  1  0  0  0  0
  7 14  2  0  0  0  0
  7 17  1  0  0  0  0
  9 12  1  0  0  0  0
 10 12  1  0  0  0  0
 11 12  1  0  0  0  0
 12 17  1  0  0  0  0
 15 19  2  0  0  0  0
 16 19  2  0  0  0  0
 18 19  1  0  0  0  0
  1 20  1  0  0  0  0
  2 21  1  0  0  0  0
  8 22  1  0  0  0  0
  8 23  1  0  0  0  0
  8 24  1  0  0  0  0
  9 25  1  0  0  0  0
  9 26  1  0  0  0  0
  9 27  1  0  0  0  0
 10 28  1  0  0  0  0
 10 29  1  0  0  0  0
 10 30  1  0  0  0  0
 11 31  1  0  0  0  0
 11 32  1  0  0  0  0
 11 33  1  0  0  0  0
 13 34  1  0  0  0  0
 13 35  1  0  0  0  0
M  END
> <id>
EN300-26627313

> <smiles>
CC=1C(=CC(N)=CC1S(=O)(=O)F)C(=O)OC(C)(C)C

> <IUPAC Name>
tert-butyl 5-amino-3-(fluorosulfonyl)-2-methylbenzoate

> <CAS>
2418733-39-6

> <URL>
https://www.enaminestore.com/catalog/EN300-26627313

> <ROCS_ShapeQuery>
_x1140_x0812_0A_x1140_0A_x1097_0A_x0365_0A_x1097_0A_x0310_0A

> <ROCS_TanimotoCombo>
0.617 

> <ROCS_ShapeTanimoto>
0.232 

> <ROCS_ColorTanimoto>
0.384 

> <ROCS_RefTversky>
0.213 

> <ROCS_RefColorTversky>
0.460 

> <ROCS_RefTverskyCombo>
0.672 

> <ROCS_FitTversky>
1.658 

> <ROCS_FitColorTversky>
0.701 

> <ROCS_FitTverskyCombo>
2.359 

> <ROCS_ColorScore>
-3.610

> <ROCS_Overlap>
2180.748

> <ROCS_Rank>
270                 

$$$$
untitled-dbase-590742_1
  -OEChem-02092423213D

 29 29  0     0  0  0  0  0  0999 V2000
    9.1065   11.5276   23.4917 C   0  0  0  0  0  0  0  0  0  0  0  0
    9.0258   10.1869   23.7974 C   0  0  0  0  0  0  0  0  0  0  0  0
    7.2471   10.6075   25.1720 C   0  0  0  0  0  0  0  0  0  0  0  0
    7.3284   11.9483   24.8667 C   0  0  0  0  0  0  0  0  0  0  0  0
   10.1236   12.0822   22.5630 C   0  0  0  0  0  0  0  0  0  0  0  0
   11.2599   14.3292   21.2355 C   0  0  0  0  0  0  0  0  0  0  0  0
   12.6690   14.5941   23.2979 C   0  0  0  0  0  0  0  0  0  0  0  0
   12.8664   12.5119   21.9073 C   0  0  0  0  0  0  0  0  0  0  0  0
   11.9219   13.6044   22.4065 C   0  0  0  0  0  0  0  0  0  0  0  0
    8.2593   12.4324   24.0209 N   0  0  0  0  0  0  0  0  0  0  0  0
    8.0946    9.7028   24.6430 N   0  0  0  0  0  0  0  0  0  0  0  0
    9.9436    9.2871   23.2102 N   0  0  0  0  0  0  0  0  0  0  0  0
    6.2512   10.1533   26.0650 N   0  0  0  0  0  0  0  0  0  0  0  0
   10.2190   11.7425   21.3938 O   0  0  0  0  0  0  0  0  0  0  0  0
   10.9019   12.9962   23.1996 O   0  0  0  0  0  0  0  0  0  0  0  0
    6.2764   13.1423   25.5115 Cl  0  0  0  0  0  0  0  0  0  0  0  0
   10.7226   13.6223   20.5933 H   0  0  0  0  0  0  0  0  0  0  0  0
   10.5538   15.0917   21.5803 H   0  0  0  0  0  0  0  0  0  0  0  0
   12.0105   14.8142   20.6011 H   0  0  0  0  0  0  0  0  0  0  0  0
   13.1456   14.0784   24.1394 H   0  0  0  0  0  0  0  0  0  0  0  0
   11.9783   15.3244   23.7346 H   0  0  0  0  0  0  0  0  0  0  0  0
   13.4406   15.1362   22.7416 H   0  0  0  0  0  0  0  0  0  0  0  0
   13.3414   11.9919   22.7470 H   0  0  0  0  0  0  0  0  0  0  0  0
   12.3398   11.7720   21.2959 H   0  0  0  0  0  0  0  0  0  0  0  0
   13.6789   12.9420   21.3105 H   0  0  0  0  0  0  0  0  0  0  0  0
   10.6051    9.6329   22.5468 H   0  0  0  0  0  0  0  0  0  0  0  0
    9.8523    8.3104   23.3973 H   0  0  0  0  0  0  0  0  0  0  0  0
    5.6482   10.8203   26.4999 H   0  0  0  0  0  0  0  0  0  0  0  0
    6.2295    9.1870   26.3170 H   0  0  0  0  0  0  0  0  0  0  0  0
  1  2  2  0  0  0  0
  1  5  1  0  0  0  0
  1 10  1  0  0  0  0
  2 11  1  0  0  0  0
  2 12  1  0  0  0  0
  3  4  1  0  0  0  0
  3 11  2  0  0  0  0
  3 13  1  0  0  0  0
  4 10  2  0  0  0  0
  4 16  1  0  0  0  0
  5 14  2  0  0  0  0
  5 15  1  0  0  0  0
  6  9  1  0  0  0  0
  7  9  1  0  0  0  0
  8  9  1  0  0  0  0
  9 15  1  0  0  0  0
  6 17  1  0  0  0  0
  6 18  1  0  0  0  0
  6 19  1  0  0  0  0
  7 20  1  0  0  0  0
  7 21  1  0  0  0  0
  7 22  1  0  0  0  0
  8 23  1  0  0  0  0
  8 24  1  0  0  0  0
  8 25  1  0  0  0  0
 12 26  1  0  0  0  0
 12 27  1  0  0  0  0
 13 28  1  0  0  0  0
 13 29  1  0  0  0  0
M  END
> <id>
EN300-11702970

> <smiles>
CC(C)(C)OC(=O)C=1N=C(Cl)C(N)=NC1N

> <MDLNUMBER>
MFCD18070823

> <IUPAC Name>
tert-butyl 3,5-diamino-6-chloropyrazine-2-carboxylate

> <CAS>
1259479-66-7

> <URL>
https://www.enaminestore.com/catalog/EN300-11702970

> <ROCS_ShapeQuery>
_x1140_x0812_0A_x1140_0A_x1097_0A_x0365_0A_x1097_0A_x0310_0A

> <ROCS_TanimotoCombo>
0.617 

> <ROCS_ShapeTanimoto>
0.266 

> <ROCS_ColorTanimoto>
0.351 

> <ROCS_RefTversky>
0.235 

> <ROCS_RefColorTversky>
0.549 

> <ROCS_RefTverskyCombo>
0.784 

> <ROCS_FitTversky>
1.991 

> <ROCS_FitColorTversky>
0.493 

> <ROCS_FitTverskyCombo>
2.484 

> <ROCS_ColorScore>
-4.418

> <ROCS_Overlap>
2407.983

> <ROCS_Rank>
271                 

$$$$
untitled-dbase-53607_7
  -OEChem-02092423213D

 24 25  0     0  0  0  0  0  0999 V2000
    8.5246   12.5326   24.1298 C   0  0  0  0  0  0  0  0  0  0  0  0
    7.5439   12.0395   24.9832 C   0  0  0  0  0  0  0  0  0  0  0  0
    9.0933   10.2914   23.5727 C   0  0  0  0  0  0  0  0  0  0  0  0
    9.3184   11.6486   23.4075 C   0  0  0  0  0  0  0  0  0  0  0  0
    7.3982   10.6648   25.0778 C   0  0  0  0  0  0  0  0  0  0  0  0
    5.5247    7.9440   23.7674 C   0  0  0  0  0  0  0  0  0  0  0  0
    5.1421    6.8558   24.7314 C   0  0  0  0  0  0  0  0  0  0  0  0
    5.1238    8.2926   25.1741 C   0  0  0  0  0  0  0  0  0  0  0  0
    6.1396    8.7917   26.1422 C   0  0  0  0  0  0  0  0  0  0  0  0
    8.1503    9.7749   24.3922 N   0  0  0  0  0  0  0  0  0  0  0  0
    6.4143   10.1872   25.9345 N   0  0  0  0  0  0  0  0  0  0  0  0
   10.2827   12.1009   22.5683 O   0  0  0  0  0  0  0  0  0  0  0  0
    8.6658   13.6052   24.0316 H   0  0  0  0  0  0  0  0  0  0  0  0
    6.9199   12.7220   25.5509 H   0  0  0  0  0  0  0  0  0  0  0  0
    9.6828    9.5560   23.0344 H   0  0  0  0  0  0  0  0  0  0  0  0
    6.5682    8.0267   23.4897 H   0  0  0  0  0  0  0  0  0  0  0  0
    4.8286    8.1804   22.9720 H   0  0  0  0  0  0  0  0  0  0  0  0
    4.1893    6.3625   24.5826 H   0  0  0  0  0  0  0  0  0  0  0  0
    5.9293    6.2094   25.0992 H   0  0  0  0  0  0  0  0  0  0  0  0
    4.1582    8.7618   25.3196 H   0  0  0  0  0  0  0  0  0  0  0  0
    5.7621    8.6497   27.1661 H   0  0  0  0  0  0  0  0  0  0  0  0
    7.0714    8.2204   26.0136 H   0  0  0  0  0  0  0  0  0  0  0  0
    5.8573   10.8706   26.4413 H   0  0  0  0  0  0  0  0  0  0  0  0
   10.3084   13.0728   22.5700 H   0  0  0  0  0  0  0  0  0  0  0  0
  1  2  2  0  0  0  0
  1  4  1  0  0  0  0
  2  5  1  0  0  0  0
  3  4  2  0  0  0  0
  3 10  1  0  0  0  0
  4 12  1  0  0  0  0
  5 10  2  0  0  0  0
  5 11  1  0  0  0  0
  6  7  1  0  0  0  0
  6  8  1  0  0  0  0
  7  8  1  0  0  0  0
  8  9  1  0  0  0  0
  9 11  1  0  0  0  0
  1 13  1  0  0  0  0
  2 14  1  0  0  0  0
  3 15  1  0  0  0  0
  6 16  1  0  0  0  0
  6 17  1  0  0  0  0
  7 18  1  0  0  0  0
  7 19  1  0  0  0  0
  8 20  1  0  0  0  0
  9 21  1  0  0  0  0
  9 22  1  0  0  0  0
 11 23  1  0  0  0  0
 12 24  1  0  0  0  0
M  END
> <id>
EN300-169987

> <smiles>
OC=1C=CC(NCC2CC2)=NC1

> <MDLNUMBER>
MFCD18256586

> <IUPAC Name>
6-[(cyclopropylmethyl)amino]pyridin-3-ol

> <CAS>
1256791-83-9

> <Purity>
91

> <URL>
https://www.enaminestore.com/catalog/EN300-169987

> <ROCS_ShapeQuery>
_x1140_x0812_0A_x1140_0A_x1097_0A_x0365_0A_x1097_0A_x0310_0A

> <ROCS_TanimotoCombo>
0.616 

> <ROCS_ShapeTanimoto>
0.184 

> <ROCS_ColorTanimoto>
0.433 

> <ROCS_RefTversky>
0.171 

> <ROCS_RefColorTversky>
0.500 

> <ROCS_RefTverskyCombo>
0.671 

> <ROCS_FitTversky>
1.694 

> <ROCS_FitColorTversky>
0.762 

> <ROCS_FitTverskyCombo>
2.457 

> <ROCS_ColorScore>
-3.926

> <ROCS_Overlap>
1752.021

> <ROCS_Rank>
272                 

$$$$
untitled-dbase-511092_5
  -OEChem-02092423213D

 24 24  0     0  0  0  0  0  0999 V2000
    7.7465   10.6988   25.4412 C   0  0  0  0  0  0  0  0  0  0  0  0
    8.4173   12.2737   24.0663 C   0  0  0  0  0  0  0  0  0  0  0  0
    7.7506   12.0893   25.2529 C   0  0  0  0  0  0  0  0  0  0  0  0
    9.4603   10.6593   22.4604 C   0  0  0  0  0  0  0  0  0  0  0  0
   11.6478    9.3057   23.6485 C   0  0  0  0  0  0  0  0  0  0  0  0
   10.8857    7.3083   22.3300 C   0  0  0  0  0  0  0  0  0  0  0  0
   11.6255    9.3888   21.1331 C   0  0  0  0  0  0  0  0  0  0  0  0
   10.9386    8.8337   22.3801 C   0  0  0  0  0  0  0  0  0  0  0  0
    8.3606   10.0419   24.4557 N   0  0  0  0  0  0  0  0  0  0  0  0
    8.7706   11.0221   23.6139 N   0  0  0  0  0  0  0  0  0  0  0  0
    9.8506   11.5045   21.6710 O   0  0  0  0  0  0  0  0  0  0  0  0
    9.5904    9.3110   22.4079 O   0  0  0  0  0  0  0  0  0  0  0  0
    7.2286   13.0216   26.0419 F   0  0  0  0  0  0  0  0  0  0  0  0
    7.3204   10.1331   26.2572 H   0  0  0  0  0  0  0  0  0  0  0  0
    8.6631   13.1743   23.5205 H   0  0  0  0  0  0  0  0  0  0  0  0
   11.6879   10.4002   23.6882 H   0  0  0  0  0  0  0  0  0  0  0  0
   11.1445    8.9432   24.5507 H   0  0  0  0  0  0  0  0  0  0  0  0
   12.6869    8.9575   23.6682 H   0  0  0  0  0  0  0  0  0  0  0  0
   10.3776    6.9652   21.4215 H   0  0  0  0  0  0  0  0  0  0  0  0
   10.3113    6.9098   23.1740 H   0  0  0  0  0  0  0  0  0  0  0  0
   11.8879    6.8682   22.3540 H   0  0  0  0  0  0  0  0  0  0  0  0
   11.1170    9.0503   20.2231 H   0  0  0  0  0  0  0  0  0  0  0  0
   11.6399   10.4835   21.1341 H   0  0  0  0  0  0  0  0  0  0  0  0
   12.6578    9.0270   21.0632 H   0  0  0  0  0  0  0  0  0  0  0  0
  1  3  1  0  0  0  0
  1  9  2  0  0  0  0
  2  3  2  0  0  0  0
  2 10  1  0  0  0  0
  3 13  1  0  0  0  0
  4 10  1  0  0  0  0
  4 11  2  0  0  0  0
  4 12  1  0  0  0  0
  5  8  1  0  0  0  0
  6  8  1  0  0  0  0
  7  8  1  0  0  0  0
  8 12  1  0  0  0  0
  9 10  1  0  0  0  0
  1 14  1  0  0  0  0
  2 15  1  0  0  0  0
  5 16  1  0  0  0  0
  5 17  1  0  0  0  0
  5 18  1  0  0  0  0
  6 19  1  0  0  0  0
  6 20  1  0  0  0  0
  6 21  1  0  0  0  0
  7 22  1  0  0  0  0
  7 23  1  0  0  0  0
  7 24  1  0  0  0  0
M  END
> <id>
EN300-21047570

> <smiles>
CC(C)(C)OC(=O)N1C=C(F)C=N1

> <MDLNUMBER>
MFCD29760733

> <IUPAC Name>
tert-butyl 4-fluoro-1H-pyrazole-1-carboxylate

> <CAS>
1934828-25-7

> <URL>
https://www.enaminestore.com/catalog/EN300-21047570

> <ROCS_ShapeQuery>
_x1140_x0812_0A_x1140_0A_x1097_0A_x0365_0A_x1097_0A_x0310_0A

> <ROCS_TanimotoCombo>
0.616 

> <ROCS_ShapeTanimoto>
0.203 

> <ROCS_ColorTanimoto>
0.413 

> <ROCS_RefTversky>
0.187 

> <ROCS_RefColorTversky>
0.450 

> <ROCS_RefTverskyCombo>
0.637 

> <ROCS_FitTversky>
1.757 

> <ROCS_FitColorTversky>
0.835 

> <ROCS_FitTverskyCombo>
2.592 

> <ROCS_ColorScore>
-3.508

> <ROCS_Overlap>
1916.745

> <ROCS_Rank>
273                 

$$$$
untitled-dbase-15517_0
  -OEChem-02092423213D

 17 17  0     0  0  0  0  0  0999 V2000
    9.2753   11.6241   23.4392 C   0  0  0  0  0  0  0  0  0  0  0  0
    8.3631   12.4583   24.0527 C   0  0  0  0  0  0  0  0  0  0  0  0
    9.1346   10.2794   23.7155 C   0  0  0  0  0  0  0  0  0  0  0  0
    7.3518   10.6916   25.0642 C   0  0  0  0  0  0  0  0  0  0  0  0
    8.4144   13.9347   23.8302 C   0  0  0  0  0  0  0  0  0  0  0  0
    7.3848   12.0244   24.8742 N   0  0  0  0  0  0  0  0  0  0  0  0
    8.1807    9.7765   24.5264 N   0  0  0  0  0  0  0  0  0  0  0  0
   10.2805   12.1073   22.5902 N   0  0  0  0  0  0  0  0  0  0  0  0
    9.9931    9.3713   23.1529 O   0  0  0  0  0  0  0  0  0  0  0  0
    6.3663   10.2139   25.8964 O   0  0  0  0  0  0  0  0  0  0  0  0
    7.7953   14.2103   22.9689 H   0  0  0  0  0  0  0  0  0  0  0  0
    8.0527   14.4805   24.7102 H   0  0  0  0  0  0  0  0  0  0  0  0
    9.4418   14.2717   23.6451 H   0  0  0  0  0  0  0  0  0  0  0  0
   10.3212   13.0876   22.3764 H   0  0  0  0  0  0  0  0  0  0  0  0
   10.8934   11.4598   22.1279 H   0  0  0  0  0  0  0  0  0  0  0  0
    9.7618    8.4785   23.4446 H   0  0  0  0  0  0  0  0  0  0  0  0
    6.4363    9.2529   25.9598 H   0  0  0  0  0  0  0  0  0  0  0  0
  1  2  2  0  0  0  0
  1  3  1  0  0  0  0
  1  8  1  0  0  0  0
  2  5  1  0  0  0  0
  2  6  1  0  0  0  0
  3  7  2  0  0  0  0
  3  9  1  0  0  0  0
  4  6  2  0  0  0  0
  4  7  1  0  0  0  0
  4 10  1  0  0  0  0
  5 11  1  0  0  0  0
  5 12  1  0  0  0  0
  5 13  1  0  0  0  0
  8 14  1  0  0  0  0
  8 15  1  0  0  0  0
  9 16  1  0  0  0  0
 10 17  1  0  0  0  0
M  END
> <id>
EN300-102647

> <smiles>
CC=1N=C(O)N=C(O)C1N

> <MDLNUMBER>
MFCD00053572

> <IUPAC Name>
5-amino-6-methylpyrimidine-2,4-diol

> <CAS>
6270-46-8

> <Purity>
95

> <URL>
https://www.enaminestore.com/catalog/EN300-102647

> <ROCS_ShapeQuery>
_x1140_x0812_0A_x1140_0A_x1097_0A_x0365_0A_x1097_0A_x0310_0A

> <ROCS_TanimotoCombo>
0.616 

> <ROCS_ShapeTanimoto>
0.214 

> <ROCS_ColorTanimoto>
0.402 

> <ROCS_RefTversky>
0.193 

> <ROCS_RefColorTversky>
0.607 

> <ROCS_RefTverskyCombo>
0.800 

> <ROCS_FitTversky>
2.058 

> <ROCS_FitColorTversky>
0.544 

> <ROCS_FitTverskyCombo>
2.602 

> <ROCS_ColorScore>
-4.885

> <ROCS_Overlap>
1977.873

> <ROCS_Rank>
274                 

$$$$
untitled-dbase-101486_0
  -OEChem-02092423213D

 30 31  0     0  0  0  0  0  0999 V2000
    5.7717   12.1666   26.4321 C   0  0  0  0  0  0  0  0  0  0  0  0
    6.6824   12.7351   25.5462 C   0  0  0  0  0  0  0  0  0  0  0  0
    5.7896   10.7942   26.6472 C   0  0  0  0  0  0  0  0  0  0  0  0
    8.5436   12.4758   23.9744 C   0  0  0  0  0  0  0  0  0  0  0  0
    7.6156   11.9298   24.8715 C   0  0  0  0  0  0  0  0  0  0  0  0
    7.6394   10.5355   25.0849 C   0  0  0  0  0  0  0  0  0  0  0  0
    9.4523   11.6536   23.3238 C   0  0  0  0  0  0  0  0  0  0  0  0
    6.7175    9.9937   25.9763 C   0  0  0  0  0  0  0  0  0  0  0  0
    9.3991   10.3018   23.5968 C   0  0  0  0  0  0  0  0  0  0  0  0
   11.8295    9.7294   23.2638 C   0  0  0  0  0  0  0  0  0  0  0  0
   10.1935    9.4144   21.3769 C   0  0  0  0  0  0  0  0  0  0  0  0
   10.1924    7.8589   23.3165 C   0  0  0  0  0  0  0  0  0  0  0  0
   10.3509    9.3654   22.9277 C   0  0  0  0  0  0  0  0  0  0  0  0
    8.5201    9.7352   24.4549 N   0  0  0  0  0  0  0  0  0  0  0  0
   10.3518   12.1779   22.4540 O   0  0  0  0  0  0  0  0  0  0  0  0
    6.6846    8.2901   26.2906 Cl  0  0  0  0  0  0  0  0  0  0  0  0
    5.0523   12.7917   26.9522 H   0  0  0  0  0  0  0  0  0  0  0  0
    6.6610   13.8106   25.3854 H   0  0  0  0  0  0  0  0  0  0  0  0
    5.0746   10.3586   27.3407 H   0  0  0  0  0  0  0  0  0  0  0  0
    8.5570   13.5467   23.7816 H   0  0  0  0  0  0  0  0  0  0  0  0
   12.5497    9.0563   22.7842 H   0  0  0  0  0  0  0  0  0  0  0  0
   12.0769   10.7461   22.9393 H   0  0  0  0  0  0  0  0  0  0  0  0
   11.9962    9.6799   24.3464 H   0  0  0  0  0  0  0  0  0  0  0  0
   10.8894    8.7293   20.8805 H   0  0  0  0  0  0  0  0  0  0  0  0
    9.1846    9.1413   21.0459 H   0  0  0  0  0  0  0  0  0  0  0  0
   10.4046   10.4241   21.0054 H   0  0  0  0  0  0  0  0  0  0  0  0
   10.9122    7.2125   22.8001 H   0  0  0  0  0  0  0  0  0  0  0  0
   10.3451    7.7150   24.3925 H   0  0  0  0  0  0  0  0  0  0  0  0
    9.1908    7.4931   23.0616 H   0  0  0  0  0  0  0  0  0  0  0  0
   10.2406   13.1413   22.3882 H   0  0  0  0  0  0  0  0  0  0  0  0
  1  2  2  0  0  0  0
  1  3  1  0  0  0  0
  2  5  1  0  0  0  0
  3  8  2  0  0  0  0
  4  5  2  0  0  0  0
  4  7  1  0  0  0  0
  5  6  1  0  0  0  0
  6  8  1  0  0  0  0
  6 14  2  0  0  0  0
  7  9  2  0  0  0  0
  7 15  1  0  0  0  0
  8 16  1  0  0  0  0
  9 13  1  0  0  0  0
  9 14  1  0  0  0  0
 10 13  1  0  0  0  0
 11 13  1  0  0  0  0
 12 13  1  0  0  0  0
  1 17  1  0  0  0  0
  2 18  1  0  0  0  0
  3 19  1  0  0  0  0
  4 20  1  0  0  0  0
 10 21  1  0  0  0  0
 10 22  1  0  0  0  0
 10 23  1  0  0  0  0
 11 24  1  0  0  0  0
 11 25  1  0  0  0  0
 11 26  1  0  0  0  0
 12 27  1  0  0  0  0
 12 28  1  0  0  0  0
 12 29  1  0  0  0  0
 15 30  1  0  0  0  0
M  END
> <id>
EN300-801262

> <smiles>
CC(C)(C)C=1N=C2C(Cl)=CC=CC2=CC1O

> <MDLNUMBER>
MFCD31471862

> <IUPAC Name>
2-tert-butyl-8-chloroquinolin-3-ol

> <CAS>
2138294-90-1

> <URL>
https://www.enaminestore.com/catalog/EN300-801262

> <ROCS_ShapeQuery>
_x1140_x0812_0A_x1140_0A_x1097_0A_x0365_0A_x1097_0A_x0310_0A

> <ROCS_TanimotoCombo>
0.616 

> <ROCS_ShapeTanimoto>
0.269 

> <ROCS_ColorTanimoto>
0.347 

> <ROCS_RefTversky>
0.237 

> <ROCS_RefColorTversky>
0.457 

> <ROCS_RefTverskyCombo>
0.694 

> <ROCS_FitTversky>
2.000 

> <ROCS_FitColorTversky>
0.592 

> <ROCS_FitTverskyCombo>
2.591 

> <ROCS_ColorScore>
-3.612

> <ROCS_Overlap>
2430.575

> <ROCS_Rank>
275                 

$$$$
untitled-dbase-486277_1
  -OEChem-02092423213D

 24 24  0     0  0  0  0  0  0999 V2000
    8.4001   12.3368   24.1905 C   0  0  0  0  0  0  0  0  0  0  0  0
    9.1948   11.4619   23.4782 C   0  0  0  0  0  0  0  0  0  0  0  0
    8.9545   10.1212   23.7002 C   0  0  0  0  0  0  0  0  0  0  0  0
    7.3041   10.6111   25.1845 C   0  0  0  0  0  0  0  0  0  0  0  0
   10.2106   11.9507   22.5619 C   0  0  0  0  0  0  0  0  0  0  0  0
    5.4811   11.0571   26.8286 C   0  0  0  0  0  0  0  0  0  0  0  0
   12.1958   13.2670   22.4046 C   0  0  0  0  0  0  0  0  0  0  0  0
    9.7529    9.0806   22.9858 C   0  0  0  0  0  0  0  0  0  0  0  0
    7.4417   11.9445   25.0553 N   0  0  0  0  0  0  0  0  0  0  0  0
    8.0138    9.6588   24.5495 N   0  0  0  0  0  0  0  0  0  0  0  0
    6.3103   10.1637   26.0822 N   0  0  0  0  0  0  0  0  0  0  0  0
   10.2383   11.7037   21.3480 O   0  0  0  0  0  0  0  0  0  0  0  0
   11.1400   12.7236   23.2043 O   0  0  0  0  0  0  0  0  0  0  0  0
   11.3830    8.9540   23.6827 Cl  0  0  0  0  0  0  0  0  0  0  0  0
    8.5085   13.4123   24.0890 H   0  0  0  0  0  0  0  0  0  0  0  0
    5.7474   12.0960   26.5841 H   0  0  0  0  0  0  0  0  0  0  0  0
    4.4264   10.8790   26.5720 H   0  0  0  0  0  0  0  0  0  0  0  0
    5.6310   10.8838   27.9045 H   0  0  0  0  0  0  0  0  0  0  0  0
   12.8635   13.8593   23.0350 H   0  0  0  0  0  0  0  0  0  0  0  0
   11.7714   13.8931   21.6157 H   0  0  0  0  0  0  0  0  0  0  0  0
   12.7580   12.4462   21.9528 H   0  0  0  0  0  0  0  0  0  0  0  0
    9.8566    9.3178   21.9195 H   0  0  0  0  0  0  0  0  0  0  0  0
    9.2767    8.0943   23.0532 H   0  0  0  0  0  0  0  0  0  0  0  0
    6.2035    9.1726   26.1823 H   0  0  0  0  0  0  0  0  0  0  0  0
  1  2  1  0  0  0  0
  1  9  2  0  0  0  0
  2  3  2  0  0  0  0
  2  5  1  0  0  0  0
  3  8  1  0  0  0  0
  3 10  1  0  0  0  0
  4  9  1  0  0  0  0
  4 10  2  0  0  0  0
  4 11  1  0  0  0  0
  5 12  2  0  0  0  0
  5 13  1  0  0  0  0
  6 11  1  0  0  0  0
  7 13  1  0  0  0  0
  8 14  1  0  0  0  0
  1 15  1  0  0  0  0
  6 16  1  0  0  0  0
  6 17  1  0  0  0  0
  6 18  1  0  0  0  0
  7 19  1  0  0  0  0
  7 20  1  0  0  0  0
  7 21  1  0  0  0  0
  8 22  1  0  0  0  0
  8 23  1  0  0  0  0
 11 24  1  0  0  0  0
M  END
> <id>
EN300-27783047

> <smiles>
CNC=1N=CC(C(=O)OC)=C(CCl)N1

> <IUPAC Name>
methyl 4-(chloromethyl)-2-(methylamino)pyrimidine-5-carboxylate

> <CAS>
2639424-71-6

> <URL>
https://www.enaminestore.com/catalog/EN300-27783047

> <ROCS_ShapeQuery>
_x1140_x0812_0A_x1140_0A_x1097_0A_x0365_0A_x1097_0A_x0310_0A

> <ROCS_TanimotoCombo>
0.616 

> <ROCS_ShapeTanimoto>
0.257 

> <ROCS_ColorTanimoto>
0.360 

> <ROCS_RefTversky>
0.226 

> <ROCS_RefColorTversky>
0.438 

> <ROCS_RefTverskyCombo>
0.665 

> <ROCS_FitTversky>
2.082 

> <ROCS_FitColorTversky>
0.667 

> <ROCS_FitTverskyCombo>
2.749 

> <ROCS_ColorScore>
-3.440

> <ROCS_Overlap>
2321.103

> <ROCS_Rank>
276                 

$$$$
untitled-dbase-388168_1
  -OEChem-02092423213D

 18 18  0     0  0  0  0  0  0999 V2000
    9.5496   11.6356   23.9157 C   0  0  0  0  0  0  0  0  0  0  0  0
    9.2131   10.2975   23.8925 C   0  0  0  0  0  0  0  0  0  0  0  0
    8.6998   12.4525   24.6332 C   0  0  0  0  0  0  0  0  0  0  0  0
    7.3828   10.6836   25.1841 C   0  0  0  0  0  0  0  0  0  0  0  0
    5.3551   11.0160   26.5995 C   0  0  0  0  0  0  0  0  0  0  0  0
    8.1329    9.7852   24.5178 N   0  0  0  0  0  0  0  0  0  0  0  0
    7.6033   12.0085   25.2819 N   0  0  0  0  0  0  0  0  0  0  0  0
   10.6589   12.1230   23.2657 N   0  0  0  0  0  0  0  0  0  0  0  0
   10.0368    9.3927   23.1757 N   0  0  0  0  0  0  0  0  0  0  0  0
    6.2435   10.1831   25.8510 N   0  0  0  0  0  0  0  0  0  0  0  0
   10.4364   12.4719   22.0976 O   0  0  0  0  0  0  0  0  0  0  0  0
    8.9316   14.1537   24.7937 Cl  0  0  0  0  0  0  0  0  0  0  0  0
    5.7060   12.0578   26.5580 H   0  0  0  0  0  0  0  0  0  0  0  0
    4.3442   10.9524   26.1705 H   0  0  0  0  0  0  0  0  0  0  0  0
    5.3311   10.6788   27.6463 H   0  0  0  0  0  0  0  0  0  0  0  0
   10.8140    9.7514   22.6660 H   0  0  0  0  0  0  0  0  0  0  0  0
    9.7651    8.4357   23.1219 H   0  0  0  0  0  0  0  0  0  0  0  0
    6.0742    9.1981   25.7816 H   0  0  0  0  0  0  0  0  0  0  0  0
  1  2  1  0  0  0  0
  1  3  2  0  0  0  0
  1  8  1  0  0  0  0
  2  6  2  0  0  0  0
  2  9  1  0  0  0  0
  3  7  1  0  0  0  0
  3 12  1  0  0  0  0
  4  6  1  0  0  0  0
  4  7  2  0  0  0  0
  4 10  1  0  0  0  0
  5 10  1  0  0  0  0
  8 11  2  0  0  0  0
  5 13  1  0  0  0  0
  5 14  1  0  0  0  0
  5 15  1  0  0  0  0
  9 16  1  0  0  0  0
  9 17  1  0  0  0  0
 10 18  1  0  0  0  0
M  END
> <id>
EN300-217483

> <smiles>
CNC=1N=C(N)C(N=O)=C(Cl)N1

> <MDLNUMBER>
MFCD28714772

> <IUPAC Name>
6-chloro-N2-methyl-5-nitrosopyrimidine-2,4-diamine

> <CAS>
1803584-80-6

> <Purity>
95

> <URL>
https://www.enaminestore.com/catalog/EN300-217483

> <ROCS_ShapeQuery>
_x1140_x0812_0A_x1140_0A_x1097_0A_x0365_0A_x1097_0A_x0310_0A

> <ROCS_TanimotoCombo>
0.616 

> <ROCS_ShapeTanimoto>
0.236 

> <ROCS_ColorTanimoto>
0.380 

> <ROCS_RefTversky>
0.211 

> <ROCS_RefColorTversky>
0.488 

> <ROCS_RefTverskyCombo>
0.699 

> <ROCS_FitTversky>
2.077 

> <ROCS_FitColorTversky>
0.631 

> <ROCS_FitTverskyCombo>
2.708 

> <ROCS_ColorScore>
-3.858

> <ROCS_Overlap>
2156.961

> <ROCS_Rank>
277                 

$$$$
untitled-dbase-103695_6
  -OEChem-02092423213D

 30 31  0     0  0  0  0  0  0999 V2000
    6.7062   12.6465   27.1661 C   0  0  0  0  0  0  0  0  0  0  0  0
    7.5495   13.0526   26.1359 C   0  0  0  0  0  0  0  0  0  0  0  0
    6.3719   11.3036   27.2896 C   0  0  0  0  0  0  0  0  0  0  0  0
    8.9126   12.4951   24.1782 C   0  0  0  0  0  0  0  0  0  0  0  0
    8.0617   12.1137   25.2244 C   0  0  0  0  0  0  0  0  0  0  0  0
    6.8813   10.3704   26.3833 C   0  0  0  0  0  0  0  0  0  0  0  0
    7.7264   10.7487   25.3437 C   0  0  0  0  0  0  0  0  0  0  0  0
    9.4017   11.5439   23.2944 C   0  0  0  0  0  0  0  0  0  0  0  0
    9.0180   10.2328   23.4914 C   0  0  0  0  0  0  0  0  0  0  0  0
    5.3339    8.7678   27.5339 C   0  0  0  0  0  0  0  0  0  0  0  0
   11.0339    9.0884   22.5359 C   0  0  0  0  0  0  0  0  0  0  0  0
    6.4931    8.9348   26.5584 C   0  0  0  0  0  0  0  0  0  0  0  0
    9.5104    9.1633   22.5726 C   0  0  0  0  0  0  0  0  0  0  0  0
    8.1996    9.8234   24.4876 N   0  0  0  0  0  0  0  0  0  0  0  0
   10.2247   11.9092   22.2797 O   0  0  0  0  0  0  0  0  0  0  0  0
    6.3129   13.3743   27.8693 H   0  0  0  0  0  0  0  0  0  0  0  0
    7.8062   14.1059   26.0492 H   0  0  0  0  0  0  0  0  0  0  0  0
    5.7120   10.9889   28.0940 H   0  0  0  0  0  0  0  0  0  0  0  0
    9.1963   13.5380   24.0525 H   0  0  0  0  0  0  0  0  0  0  0  0
    5.5768    9.1955   28.5125 H   0  0  0  0  0  0  0  0  0  0  0  0
    5.1012    7.7078   27.6755 H   0  0  0  0  0  0  0  0  0  0  0  0
    4.4318    9.2667   27.1638 H   0  0  0  0  0  0  0  0  0  0  0  0
   11.4680   10.0487   22.2373 H   0  0  0  0  0  0  0  0  0  0  0  0
   11.3661    8.3292   21.8209 H   0  0  0  0  0  0  0  0  0  0  0  0
   11.4388    8.8281   23.5197 H   0  0  0  0  0  0  0  0  0  0  0  0
    6.2184    8.4964   25.5879 H   0  0  0  0  0  0  0  0  0  0  0  0
    7.3549    8.3508   26.9134 H   0  0  0  0  0  0  0  0  0  0  0  0
    9.1077    8.1843   22.8755 H   0  0  0  0  0  0  0  0  0  0  0  0
    9.1322    9.3324   21.5523 H   0  0  0  0  0  0  0  0  0  0  0  0
   10.3832   12.8680   22.2978 H   0  0  0  0  0  0  0  0  0  0  0  0
  1  2  1  0  0  0  0
  1  3  2  0  0  0  0
  2  5  2  0  0  0  0
  3  6  1  0  0  0  0
  4  5  1  0  0  0  0
  4  8  2  0  0  0  0
  5  7  1  0  0  0  0
  6  7  2  0  0  0  0
  6 12  1  0  0  0  0
  7 14  1  0  0  0  0
  8  9  1  0  0  0  0
  8 15  1  0  0  0  0
  9 13  1  0  0  0  0
  9 14  2  0  0  0  0
 10 12  1  0  0  0  0
 11 13  1  0  0  0  0
  1 16  1  0  0  0  0
  2 17  1  0  0  0  0
  3 18  1  0  0  0  0
  4 19  1  0  0  0  0
 10 20  1  0  0  0  0
 10 21  1  0  0  0  0
 10 22  1  0  0  0  0
 11 23  1  0  0  0  0
 11 24  1  0  0  0  0
 11 25  1  0  0  0  0
 12 26  1  0  0  0  0
 12 27  1  0  0  0  0
 13 28  1  0  0  0  0
 13 29  1  0  0  0  0
 15 30  1  0  0  0  0
M  END
> <id>
EN300-801359

> <smiles>
CCC=1C=CC=C2C=C(O)C(CC)=NC12

> <MDLNUMBER>
MFCD31471908

> <IUPAC Name>
2,8-diethylquinolin-3-ol

> <CAS>
2138434-96-3

> <URL>
https://www.enaminestore.com/catalog/EN300-801359

> <ROCS_ShapeQuery>
_x1140_x0812_0A_x1140_0A_x1097_0A_x0365_0A_x1097_0A_x0310_0A

> <ROCS_TanimotoCombo>
0.616 

> <ROCS_ShapeTanimoto>
0.243 

> <ROCS_ColorTanimoto>
0.373 

> <ROCS_RefTversky>
0.218 

> <ROCS_RefColorTversky>
0.513 

> <ROCS_RefTverskyCombo>
0.731 

> <ROCS_FitTversky>
1.901 

> <ROCS_FitColorTversky>
0.578 

> <ROCS_FitTverskyCombo>
2.479 

> <ROCS_ColorScore>
-4.077

> <ROCS_Overlap>
2236.216

> <ROCS_Rank>
278                 

$$$$
untitled-dbase-536230_0
  -OEChem-02092423213D

 30 31  0     0  0  0  0  0  0999 V2000
    6.6790   12.7345   25.5415 C   0  0  0  0  0  0  0  0  0  0  0  0
    5.7689   12.1663   26.4281 C   0  0  0  0  0  0  0  0  0  0  0  0
    8.5410   12.4748   23.9707 C   0  0  0  0  0  0  0  0  0  0  0  0
    6.7178    9.9939   25.9766 C   0  0  0  0  0  0  0  0  0  0  0  0
    7.6136   11.9291   24.8685 C   0  0  0  0  0  0  0  0  0  0  0  0
    7.6392   10.5354   25.0845 C   0  0  0  0  0  0  0  0  0  0  0  0
    9.4510   11.6527   23.3218 C   0  0  0  0  0  0  0  0  0  0  0  0
    5.7886   10.7943   26.6458 C   0  0  0  0  0  0  0  0  0  0  0  0
    9.3996   10.3014   23.5974 C   0  0  0  0  0  0  0  0  0  0  0  0
   11.8299    9.7306   23.2604 C   0  0  0  0  0  0  0  0  0  0  0  0
   10.1903    9.4108   21.3774 C   0  0  0  0  0  0  0  0  0  0  0  0
   10.1946    7.8587   23.3196 C   0  0  0  0  0  0  0  0  0  0  0  0
   10.3509    9.3646   22.9279 C   0  0  0  0  0  0  0  0  0  0  0  0
    8.5212    9.7351   24.4563 N   0  0  0  0  0  0  0  0  0  0  0  0
   10.3511   12.1768   22.4525 O   0  0  0  0  0  0  0  0  0  0  0  0
    4.6686   10.0796   27.7399 Cl  0  0  0  0  0  0  0  0  0  0  0  0
    6.6556   13.8098   25.3788 H   0  0  0  0  0  0  0  0  0  0  0  0
    5.0535   12.8049   26.9393 H   0  0  0  0  0  0  0  0  0  0  0  0
    8.5532   13.5455   23.7768 H   0  0  0  0  0  0  0  0  0  0  0  0
    6.7257    8.9193   26.1556 H   0  0  0  0  0  0  0  0  0  0  0  0
   12.5497    9.0573   22.7805 H   0  0  0  0  0  0  0  0  0  0  0  0
   12.0757   10.7470   22.9336 H   0  0  0  0  0  0  0  0  0  0  0  0
   11.9989    9.6831   24.3427 H   0  0  0  0  0  0  0  0  0  0  0  0
   10.8858    8.7255   20.8807 H   0  0  0  0  0  0  0  0  0  0  0  0
    9.1810    9.1362   21.0490 H   0  0  0  0  0  0  0  0  0  0  0  0
   10.3996   10.4201   21.0037 H   0  0  0  0  0  0  0  0  0  0  0  0
   10.9140    7.2120   22.8029 H   0  0  0  0  0  0  0  0  0  0  0  0
   10.3497    7.7168   24.3956 H   0  0  0  0  0  0  0  0  0  0  0  0
    9.1929    7.4916   23.0674 H   0  0  0  0  0  0  0  0  0  0  0  0
   10.2393   13.1401   22.3857 H   0  0  0  0  0  0  0  0  0  0  0  0
  1  2  2  0  0  0  0
  1  5  1  0  0  0  0
  2  8  1  0  0  0  0
  3  5  2  0  0  0  0
  3  7  1  0  0  0  0
  4  6  1  0  0  0  0
  4  8  2  0  0  0  0
  5  6  1  0  0  0  0
  6 14  2  0  0  0  0
  7  9  2  0  0  0  0
  7 15  1  0  0  0  0
  8 16  1  0  0  0  0
  9 13  1  0  0  0  0
  9 14  1  0  0  0  0
 10 13  1  0  0  0  0
 11 13  1  0  0  0  0
 12 13  1  0  0  0  0
  1 17  1  0  0  0  0
  2 18  1  0  0  0  0
  3 19  1  0  0  0  0
  4 20  1  0  0  0  0
 10 21  1  0  0  0  0
 10 22  1  0  0  0  0
 10 23  1  0  0  0  0
 11 24  1  0  0  0  0
 11 25  1  0  0  0  0
 11 26  1  0  0  0  0
 12 27  1  0  0  0  0
 12 28  1  0  0  0  0
 12 29  1  0  0  0  0
 15 30  1  0  0  0  0
M  END
> <id>
EN300-801303

> <smiles>
CC(C)(C)C=1N=C2C=C(Cl)C=CC2=CC1O

> <MDLNUMBER>
MFCD31471880

> <IUPAC Name>
2-tert-butyl-7-chloroquinolin-3-ol

> <CAS>
2137571-65-2

> <URL>
https://www.enaminestore.com/catalog/EN300-801303

> <ROCS_ShapeQuery>
_x1140_x0812_0A_x1140_0A_x1097_0A_x0365_0A_x1097_0A_x0310_0A

> <ROCS_TanimotoCombo>
0.616 

> <ROCS_ShapeTanimoto>
0.269 

> <ROCS_ColorTanimoto>
0.347 

> <ROCS_RefTversky>
0.237 

> <ROCS_RefColorTversky>
0.457 

> <ROCS_RefTverskyCombo>
0.694 

> <ROCS_FitTversky>
2.001 

> <ROCS_FitColorTversky>
0.591 

> <ROCS_FitTverskyCombo>
2.592 

> <ROCS_ColorScore>
-3.611

> <ROCS_Overlap>
2430.606

> <ROCS_Rank>
279                 

$$$$
untitled-dbase-585188_1
  -OEChem-02092423213D

 20 20  0     0  0  0  0  0  0999 V2000
    8.2072   12.3777   24.0722 C   0  0  0  0  0  0  0  0  0  0  0  0
    9.1256   11.5406   23.4720 C   0  0  0  0  0  0  0  0  0  0  0  0
    9.0180   10.2042   23.7985 C   0  0  0  0  0  0  0  0  0  0  0  0
    7.2513   10.6283   25.1645 C   0  0  0  0  0  0  0  0  0  0  0  0
   10.1241   12.0738   22.5591 C   0  0  0  0  0  0  0  0  0  0  0  0
   11.9511   13.5972   22.3745 C   0  0  0  0  0  0  0  0  0  0  0  0
    7.2530   11.9538   24.9266 N   0  0  0  0  0  0  0  0  0  0  0  0
    8.0895    9.7115   24.6444 N   0  0  0  0  0  0  0  0  0  0  0  0
    9.9332    9.2936   23.2142 N   0  0  0  0  0  0  0  0  0  0  0  0
    6.2651   10.1482   26.0534 N   0  0  0  0  0  0  0  0  0  0  0  0
   10.2383   11.7385   21.3726 O   0  0  0  0  0  0  0  0  0  0  0  0
   10.9258   12.9970   23.1733 O   0  0  0  0  0  0  0  0  0  0  0  0
    8.2050   13.4469   23.8830 H   0  0  0  0  0  0  0  0  0  0  0  0
   12.5153   14.3105   22.9803 H   0  0  0  0  0  0  0  0  0  0  0  0
   11.4976   14.1067   21.5206 H   0  0  0  0  0  0  0  0  0  0  0  0
   12.6244   12.8157   22.0145 H   0  0  0  0  0  0  0  0  0  0  0  0
   10.5947    9.6349   22.5514 H   0  0  0  0  0  0  0  0  0  0  0  0
    9.8334    8.3209   23.4074 H   0  0  0  0  0  0  0  0  0  0  0  0
    5.6523   10.8002   26.4982 H   0  0  0  0  0  0  0  0  0  0  0  0
    6.2582    9.1784   26.2941 H   0  0  0  0  0  0  0  0  0  0  0  0
  1  2  1  0  0  0  0
  1  7  2  0  0  0  0
  2  3  2  0  0  0  0
  2  5  1  0  0  0  0
  3  8  1  0  0  0  0
  3  9  1  0  0  0  0
  4  7  1  0  0  0  0
  4  8  2  0  0  0  0
  4 10  1  0  0  0  0
  5 11  2  0  0  0  0
  5 12  1  0  0  0  0
  6 12  1  0  0  0  0
  1 13  1  0  0  0  0
  6 14  1  0  0  0  0
  6 15  1  0  0  0  0
  6 16  1  0  0  0  0
  9 17  1  0  0  0  0
  9 18  1  0  0  0  0
 10 19  1  0  0  0  0
 10 20  1  0  0  0  0
M  END
> <id>
EN300-141159

> <smiles>
COC(=O)C=1C=NC(N)=NC1N

> <MDLNUMBER>
MFCD15202241

> <IUPAC Name>
methyl 2,4-diaminopyrimidine-5-carboxylate

> <CAS>
1211472-42-2

> <URL>
https://www.enaminestore.com/catalog/EN300-141159

> <ROCS_ShapeQuery>
_x1140_x0812_0A_x1140_0A_x1097_0A_x0365_0A_x1097_0A_x0310_0A

> <ROCS_TanimotoCombo>
0.616 

> <ROCS_ShapeTanimoto>
0.238 

> <ROCS_ColorTanimoto>
0.378 

> <ROCS_RefTversky>
0.212 

> <ROCS_RefColorTversky>
0.550 

> <ROCS_RefTverskyCombo>
0.762 

> <ROCS_FitTversky>
2.072 

> <ROCS_FitColorTversky>
0.548 

> <ROCS_FitTverskyCombo>
2.620 

> <ROCS_ColorScore>
-4.401

> <ROCS_Overlap>
2169.538

> <ROCS_Rank>
280                 

$$$$
untitled-dbase-220689_7
  -OEChem-02092423213D

 28 29  0     0  0  0  0  0  0999 V2000
    9.9459   14.1467   24.7174 C   0  0  0  0  0  0  0  0  0  0  0  0
   10.7892   15.1764   24.3004 C   0  0  0  0  0  0  0  0  0  0  0  0
   11.1694   14.0198   22.2135 C   0  0  0  0  0  0  0  0  0  0  0  0
    7.7479   11.9385   25.1616 C   0  0  0  0  0  0  0  0  0  0  0  0
    9.7144   13.0534   23.8826 C   0  0  0  0  0  0  0  0  0  0  0  0
   11.4010   15.1131   23.0484 C   0  0  0  0  0  0  0  0  0  0  0  0
   10.3261   12.9900   22.6307 C   0  0  0  0  0  0  0  0  0  0  0  0
    8.8376   11.9975   24.3338 C   0  0  0  0  0  0  0  0  0  0  0  0
    7.3907   10.5791   25.1475 C   0  0  0  0  0  0  0  0  0  0  0  0
   12.8164   15.9894   21.3500 C   0  0  0  0  0  0  0  0  0  0  0  0
    9.0267   12.0359   20.8823 C   0  0  0  0  0  0  0  0  0  0  0  0
    8.1971    9.8507   24.3704 N   0  0  0  0  0  0  0  0  0  0  0  0
    6.3353   10.1141   25.8626 N   0  0  0  0  0  0  0  0  0  0  0  0
    9.1155   10.7577   23.8553 O   0  0  0  0  0  0  0  0  0  0  0  0
   12.2238   16.1180   22.6415 O   0  0  0  0  0  0  0  0  0  0  0  0
   10.1176   11.9333   21.7942 O   0  0  0  0  0  0  0  0  0  0  0  0
    9.4770   14.2118   25.6965 H   0  0  0  0  0  0  0  0  0  0  0  0
   10.9658   16.0255   24.9551 H   0  0  0  0  0  0  0  0  0  0  0  0
   11.6467   13.9714   21.2379 H   0  0  0  0  0  0  0  0  0  0  0  0
    7.2847   12.7575   25.6934 H   0  0  0  0  0  0  0  0  0  0  0  0
   13.4487   16.8580   21.1503 H   0  0  0  0  0  0  0  0  0  0  0  0
   12.0310   15.9153   20.5936 H   0  0  0  0  0  0  0  0  0  0  0  0
   13.4274   15.0839   21.3279 H   0  0  0  0  0  0  0  0  0  0  0  0
    8.9717   11.1289   20.2752 H   0  0  0  0  0  0  0  0  0  0  0  0
    9.1682   12.9089   20.2402 H   0  0  0  0  0  0  0  0  0  0  0  0
    8.0993   12.1492   21.4488 H   0  0  0  0  0  0  0  0  0  0  0  0
    5.7862   10.7265   26.4777 H   0  0  0  0  0  0  0  0  0  0  0  0
    6.1000    9.1148   25.8922 H   0  0  0  0  0  0  0  0  0  0  0  0
  1  2  2  0  0  0  0
  1  5  1  0  0  0  0
  2  6  1  0  0  0  0
  3  6  2  0  0  0  0
  3  7  1  0  0  0  0
  4  8  2  0  0  0  0
  4  9  1  0  0  0  0
  5  7  2  0  0  0  0
  5  8  1  0  0  0  0
  6 15  1  0  0  0  0
  7 16  1  0  0  0  0
  8 14  1  0  0  0  0
  9 12  2  0  0  0  0
  9 13  1  0  0  0  0
 10 15  1  0  0  0  0
 11 16  1  0  0  0  0
 12 14  1  0  0  0  0
  1 17  1  0  0  0  0
  2 18  1  0  0  0  0
  3 19  1  0  0  0  0
  4 20  1  0  0  0  0
 10 21  1  0  0  0  0
 10 22  1  0  0  0  0
 10 23  1  0  0  0  0
 11 24  1  0  0  0  0
 11 25  1  0  0  0  0
 11 26  1  0  0  0  0
 13 27  1  0  0  0  0
 13 28  1  0  0  0  0
M  END
> <id>
EN300-1850299

> <smiles>
COC=1C=CC(C2=CC(N)=NO2)=C(OC)C1

> <MDLNUMBER>
MFCD19318333

> <IUPAC Name>
5-(2,4-dimethoxyphenyl)-1,2-oxazol-3-amine

> <CAS>
1268113-51-4

> <URL>
https://www.enaminestore.com/catalog/EN300-1850299

> <ROCS_ShapeQuery>
_x1140_x0812_0A_x1140_0A_x1097_0A_x0365_0A_x1097_0A_x0310_0A

> <ROCS_TanimotoCombo>
0.616 

> <ROCS_ShapeTanimoto>
0.217 

> <ROCS_ColorTanimoto>
0.399 

> <ROCS_RefTversky>
0.200 

> <ROCS_RefColorTversky>
0.538 

> <ROCS_RefTverskyCombo>
0.738 

> <ROCS_FitTversky>
1.664 

> <ROCS_FitColorTversky>
0.607 

> <ROCS_FitTverskyCombo>
2.271 

> <ROCS_ColorScore>
-4.281

> <ROCS_Overlap>
2048.093

> <ROCS_Rank>
281                 

$$$$
untitled-dbase-449556_5
  -OEChem-02092423213D

 27 27  0     0  0  0  0  0  0999 V2000
    7.6880   12.0998   25.1496 C   0  0  0  0  0  0  0  0  0  0  0  0
    7.5995   10.7260   25.3057 C   0  0  0  0  0  0  0  0  0  0  0  0
    8.5796   12.5911   24.2024 C   0  0  0  0  0  0  0  0  0  0  0  0
    9.3445   11.7059   23.4510 C   0  0  0  0  0  0  0  0  0  0  0  0
    9.1819   10.3497   23.6833 C   0  0  0  0  0  0  0  0  0  0  0  0
    8.6935   14.0686   24.0153 C   0  0  0  0  0  0  0  0  0  0  0  0
   11.8931    8.0720   22.5410 C   0  0  0  0  0  0  0  0  0  0  0  0
   10.0875    7.3418   24.1387 C   0  0  0  0  0  0  0  0  0  0  0  0
   10.8734    8.5184   23.5787 C   0  0  0  0  0  0  0  0  0  0  0  0
    8.3260    9.8350   24.5945 N   0  0  0  0  0  0  0  0  0  0  0  0
   10.2529   12.1845   22.4854 N   0  0  0  0  0  0  0  0  0  0  0  0
    9.9272    9.4726   22.9509 N   0  0  0  0  0  0  0  0  0  0  0  0
    7.0759   12.7632   25.7511 H   0  0  0  0  0  0  0  0  0  0  0  0
    6.9194   10.2924   26.0315 H   0  0  0  0  0  0  0  0  0  0  0  0
    9.4621   14.4775   24.6812 H   0  0  0  0  0  0  0  0  0  0  0  0
    8.9588   14.3176   22.9805 H   0  0  0  0  0  0  0  0  0  0  0  0
    7.7416   14.5697   24.2304 H   0  0  0  0  0  0  0  0  0  0  0  0
   11.4035    7.5496   21.7127 H   0  0  0  0  0  0  0  0  0  0  0  0
   12.4438    8.9250   22.1287 H   0  0  0  0  0  0  0  0  0  0  0  0
   12.6268    7.3906   22.9853 H   0  0  0  0  0  0  0  0  0  0  0  0
    9.5666    6.8063   23.3374 H   0  0  0  0  0  0  0  0  0  0  0  0
    9.3388    7.6816   24.8617 H   0  0  0  0  0  0  0  0  0  0  0  0
   10.7454    6.6235   24.6407 H   0  0  0  0  0  0  0  0  0  0  0  0
   11.3849    9.0377   24.3965 H   0  0  0  0  0  0  0  0  0  0  0  0
   10.3086   13.1682   22.3118 H   0  0  0  0  0  0  0  0  0  0  0  0
   10.7586   11.5294   21.9233 H   0  0  0  0  0  0  0  0  0  0  0  0
    9.8660    9.4389   21.9574 H   0  0  0  0  0  0  0  0  0  0  0  0
  1  2  1  0  0  0  0
  1  3  2  0  0  0  0
  2 10  2  0  0  0  0
  3  4  1  0  0  0  0
  3  6  1  0  0  0  0
  4  5  2  0  0  0  0
  4 11  1  0  0  0  0
  5 10  1  0  0  0  0
  5 12  1  0  0  0  0
  7  9  1  0  0  0  0
  8  9  1  0  0  0  0
  9 12  1  0  0  0  0
  1 13  1  0  0  0  0
  2 14  1  0  0  0  0
  6 15  1  0  0  0  0
  6 16  1  0  0  0  0
  6 17  1  0  0  0  0
  7 18  1  0  0  0  0
  7 19  1  0  0  0  0
  7 20  1  0  0  0  0
  8 21  1  0  0  0  0
  8 22  1  0  0  0  0
  8 23  1  0  0  0  0
  9 24  1  0  0  0  0
 11 25  1  0  0  0  0
 11 26  1  0  0  0  0
 12 27  1  0  0  0  0
M  END
> <id>
EN300-3022223

> <smiles>
CC(C)NC=1N=CC=C(C)C1N

> <MDLNUMBER>
MFCD08692237

> <IUPAC Name>
4-methyl-N2-(propan-2-yl)pyridine-2,3-diamine

> <CAS>
1216005-88-7

> <Purity>
95

> <URL>
https://www.enaminestore.com/catalog/EN300-3022223

> <ROCS_ShapeQuery>
_x1140_x0812_0A_x1140_0A_x1097_0A_x0365_0A_x1097_0A_x0310_0A

> <ROCS_TanimotoCombo>
0.616 

> <ROCS_ShapeTanimoto>
0.206 

> <ROCS_ColorTanimoto>
0.410 

> <ROCS_RefTversky>
0.188 

> <ROCS_RefColorTversky>
0.516 

> <ROCS_RefTverskyCombo>
0.703 

> <ROCS_FitTversky>
1.872 

> <ROCS_FitColorTversky>
0.668 

> <ROCS_FitTverskyCombo>
2.540 

> <ROCS_ColorScore>
-4.073

> <ROCS_Overlap>
1923.811

> <ROCS_Rank>
282                 

$$$$
untitled-dbase-324726_2
  -OEChem-02092423213D

 26 26  0     0  0  0  0  0  0999 V2000
    7.6489   11.5283   25.5197 C   0  0  0  0  0  0  0  0  0  0  0  0
    7.9220   12.7520   25.0637 C   0  0  0  0  0  0  0  0  0  0  0  0
    8.2258   10.5698   24.5588 C   0  0  0  0  0  0  0  0  0  0  0  0
    9.5200   10.8649   22.4037 C   0  0  0  0  0  0  0  0  0  0  0  0
    8.6851   12.7423   23.7912 C   0  0  0  0  0  0  0  0  0  0  0  0
   11.8107    9.8155   23.1217 C   0  0  0  0  0  0  0  0  0  0  0  0
   10.7501    7.5411   23.0148 C   0  0  0  0  0  0  0  0  0  0  0  0
   11.3234    8.7547   20.8919 C   0  0  0  0  0  0  0  0  0  0  0  0
   10.8624    8.9068   22.3408 C   0  0  0  0  0  0  0  0  0  0  0  0
    8.8380   11.3258   23.5377 N   0  0  0  0  0  0  0  0  0  0  0  0
    8.1480    9.3591   24.6899 O   0  0  0  0  0  0  0  0  0  0  0  0
   10.0259   11.6013   21.5595 O   0  0  0  0  0  0  0  0  0  0  0  0
    9.5584    9.4983   22.3445 O   0  0  0  0  0  0  0  0  0  0  0  0
    7.1125   11.2607   26.4135 H   0  0  0  0  0  0  0  0  0  0  0  0
    7.6194   13.6596   25.5666 H   0  0  0  0  0  0  0  0  0  0  0  0
    8.1371   13.2075   22.9664 H   0  0  0  0  0  0  0  0  0  0  0  0
    9.6706   13.2077   23.8871 H   0  0  0  0  0  0  0  0  0  0  0  0
   11.8940   10.7969   22.6411 H   0  0  0  0  0  0  0  0  0  0  0  0
   11.4722    9.9609   24.1528 H   0  0  0  0  0  0  0  0  0  0  0  0
   12.8230    9.3961   23.1456 H   0  0  0  0  0  0  0  0  0  0  0  0
   10.0706    6.8859   22.4578 H   0  0  0  0  0  0  0  0  0  0  0  0
   10.3298    7.6366   24.0225 H   0  0  0  0  0  0  0  0  0  0  0  0
   11.7239    7.0467   23.0907 H   0  0  0  0  0  0  0  0  0  0  0  0
   10.6434    8.1030   20.3315 H   0  0  0  0  0  0  0  0  0  0  0  0
   11.3744    9.7218   20.3812 H   0  0  0  0  0  0  0  0  0  0  0  0
   12.3119    8.2836   20.8450 H   0  0  0  0  0  0  0  0  0  0  0  0
  1  2  2  0  0  0  0
  1  3  1  0  0  0  0
  2  5  1  0  0  0  0
  3 10  1  0  0  0  0
  3 11  2  0  0  0  0
  4 10  1  0  0  0  0
  4 12  2  0  0  0  0
  4 13  1  0  0  0  0
  5 10  1  0  0  0  0
  6  9  1  0  0  0  0
  7  9  1  0  0  0  0
  8  9  1  0  0  0  0
  9 13  1  0  0  0  0
  1 14  1  0  0  0  0
  2 15  1  0  0  0  0
  5 16  1  0  0  0  0
  5 17  1  0  0  0  0
  6 18  1  0  0  0  0
  6 19  1  0  0  0  0
  6 20  1  0  0  0  0
  7 21  1  0  0  0  0
  7 22  1  0  0  0  0
  7 23  1  0  0  0  0
  8 24  1  0  0  0  0
  8 25  1  0  0  0  0
  8 26  1  0  0  0  0
M  END
> <id>
EN300-196187

> <smiles>
CC(C)(C)OC(=O)N1CC=CC1=O

> <MDLNUMBER>
MFCD01318910

> <IUPAC Name>
tert-butyl 2-oxo-2,5-dihydro-1H-pyrrole-1-carboxylate

> <CAS>
141293-14-3

> <Purity>
95

> <URL>
https://www.enaminestore.com/catalog/EN300-196187

> <MP>
67-68

> <ROCS_ShapeQuery>
_x1140_x0812_0A_x1140_0A_x1097_0A_x0365_0A_x1097_0A_x0310_0A

> <ROCS_TanimotoCombo>
0.616 

> <ROCS_ShapeTanimoto>
0.202 

> <ROCS_ColorTanimoto>
0.414 

> <ROCS_RefTversky>
0.186 

> <ROCS_RefColorTversky>
0.450 

> <ROCS_RefTverskyCombo>
0.636 

> <ROCS_FitTversky>
1.760 

> <ROCS_FitColorTversky>
0.836 

> <ROCS_FitTverskyCombo>
2.596 

> <ROCS_ColorScore>
-3.512

> <ROCS_Overlap>
1906.493

> <ROCS_Rank>
283                 

$$$$
untitled-dbase-73763_0
  -OEChem-02092423213D

 21 21  0     0  0  0  0  0  0999 V2000
    8.7324   12.5442   24.6836 C   0  0  0  0  0  0  0  0  0  0  0  0
    7.6631   11.9386   25.3341 C   0  0  0  0  0  0  0  0  0  0  0  0
    9.5672   11.7830   23.8731 C   0  0  0  0  0  0  0  0  0  0  0  0
    9.2921   10.4309   23.7471 C   0  0  0  0  0  0  0  0  0  0  0  0
    7.4730   10.5796   25.1425 C   0  0  0  0  0  0  0  0  0  0  0  0
   10.7144   12.4262   23.1741 C   0  0  0  0  0  0  0  0  0  0  0  0
   10.1553    9.5639   22.8901 C   0  0  0  0  0  0  0  0  0  0  0  0
    8.2628    9.8073   24.3631 N   0  0  0  0  0  0  0  0  0  0  0  0
    5.3845   10.7304   26.3825 N   0  0  0  0  0  0  0  0  0  0  0  0
    6.3788    9.9772   25.8119 N   0  0  0  0  0  0  0  0  0  0  0  0
   10.8261   13.7661   23.4197 F   0  0  0  0  0  0  0  0  0  0  0  0
   11.9292   11.9011   23.5155 F   0  0  0  0  0  0  0  0  0  0  0  0
   10.6361   12.3102   21.8157 F   0  0  0  0  0  0  0  0  0  0  0  0
   11.1799   10.2377   22.2903 F   0  0  0  0  0  0  0  0  0  0  0  0
   10.7498    8.5426   23.5732 F   0  0  0  0  0  0  0  0  0  0  0  0
    9.4600    8.9731   21.8762 F   0  0  0  0  0  0  0  0  0  0  0  0
    8.9073   13.6086   24.8146 H   0  0  0  0  0  0  0  0  0  0  0  0
    7.0063   12.5253   25.9680 H   0  0  0  0  0  0  0  0  0  0  0  0
    5.1747   10.3351   27.2978 H   0  0  0  0  0  0  0  0  0  0  0  0
    4.5364   10.6208   25.8279 H   0  0  0  0  0  0  0  0  0  0  0  0
    6.2341    8.9898   25.6777 H   0  0  0  0  0  0  0  0  0  0  0  0
  1  2  2  0  0  0  0
  1  3  1  0  0  0  0
  2  5  1  0  0  0  0
  3  4  2  0  0  0  0
  3  6  1  0  0  0  0
  4  7  1  0  0  0  0
  4  8  1  0  0  0  0
  5  8  2  0  0  0  0
  5 10  1  0  0  0  0
  6 11  1  0  0  0  0
  6 12  1  0  0  0  0
  6 13  1  0  0  0  0
  7 14  1  0  0  0  0
  7 15  1  0  0  0  0
  7 16  1  0  0  0  0
  9 10  1  0  0  0  0
  1 17  1  0  0  0  0
  2 18  1  0  0  0  0
  9 19  1  0  0  0  0
  9 20  1  0  0  0  0
 10 21  1  0  0  0  0
M  END
> <id>
EN300-362627

> <smiles>
NNC=1C=CC(=C(N1)C(F)(F)F)C(F)(F)F

> <MDLNUMBER>
MFCD23382238

> <IUPAC Name>
6-hydrazinyl-2,3-bis(trifluoromethyl)pyridine

> <CAS>
1246466-27-2

> <URL>
https://www.enaminestore.com/catalog/EN300-362627

> <ROCS_ShapeQuery>
_x1140_x0812_0A_x1140_0A_x1097_0A_x0365_0A_x1097_0A_x0310_0A

> <ROCS_TanimotoCombo>
0.616 

> <ROCS_ShapeTanimoto>
0.279 

> <ROCS_ColorTanimoto>
0.337 

> <ROCS_RefTversky>
0.245 

> <ROCS_RefColorTversky>
0.397 

> <ROCS_RefTverskyCombo>
0.641 

> <ROCS_FitTversky>
2.014 

> <ROCS_FitColorTversky>
0.690 

> <ROCS_FitTverskyCombo>
2.705 

> <ROCS_ColorScore>
-3.100

> <ROCS_Overlap>
2510.802

> <ROCS_Rank>
284                 

$$$$
untitled-dbase-396497_3
  -OEChem-02092423213D

 25 25  0     0  0  0  0  0  0999 V2000
    8.0883   12.1416   23.9234 C   0  0  0  0  0  0  0  0  0  0  0  0
    8.5282   10.9129   23.4973 C   0  0  0  0  0  0  0  0  0  0  0  0
    7.2193   10.5893   25.1114 C   0  0  0  0  0  0  0  0  0  0  0  0
    9.4691   10.6435   22.3808 C   0  0  0  0  0  0  0  0  0  0  0  0
   11.5056    9.2518   23.8016 C   0  0  0  0  0  0  0  0  0  0  0  0
   11.0455    7.3543   22.2214 C   0  0  0  0  0  0  0  0  0  0  0  0
   11.8847    9.5478   21.3311 C   0  0  0  0  0  0  0  0  0  0  0  0
   11.0289    8.8708   22.4007 C   0  0  0  0  0  0  0  0  0  0  0  0
    7.9681    9.9221   24.2626 N   0  0  0  0  0  0  0  0  0  0  0  0
    6.4331   10.1155   26.1051 N   0  0  0  0  0  0  0  0  0  0  0  0
    9.9689   11.5246   21.6987 O   0  0  0  0  0  0  0  0  0  0  0  0
    7.2390   11.9430   24.9696 O   0  0  0  0  0  0  0  0  0  0  0  0
    9.6781    9.3076   22.2459 O   0  0  0  0  0  0  0  0  0  0  0  0
    8.2580   13.1664   23.6285 H   0  0  0  0  0  0  0  0  0  0  0  0
   11.4951   10.3396   23.9343 H   0  0  0  0  0  0  0  0  0  0  0  0
   10.8786    8.8008   24.5776 H   0  0  0  0  0  0  0  0  0  0  0  0
   12.5409    8.9307   23.9632 H   0  0  0  0  0  0  0  0  0  0  0  0
   10.7042    7.0764   21.2176 H   0  0  0  0  0  0  0  0  0  0  0  0
   10.3592    6.8705   22.9257 H   0  0  0  0  0  0  0  0  0  0  0  0
   12.0475    6.9404   22.3739 H   0  0  0  0  0  0  0  0  0  0  0  0
   11.5430    9.2747   20.3262 H   0  0  0  0  0  0  0  0  0  0  0  0
   11.8551   10.6385   21.4216 H   0  0  0  0  0  0  0  0  0  0  0  0
   12.9283    9.2206   21.4024 H   0  0  0  0  0  0  0  0  0  0  0  0
    6.3090    9.1069   26.2686 H   0  0  0  0  0  0  0  0  0  0  0  0
    5.8499   10.7369   26.6823 H   0  0  0  0  0  0  0  0  0  0  0  0
  1  2  2  0  0  0  0
  1 12  1  0  0  0  0
  2  4  1  0  0  0  0
  2  9  1  0  0  0  0
  3  9  2  0  0  0  0
  3 10  1  0  0  0  0
  3 12  1  0  0  0  0
  4 11  2  0  0  0  0
  4 13  1  0  0  0  0
  5  8  1  0  0  0  0
  6  8  1  0  0  0  0
  7  8  1  0  0  0  0
  8 13  1  0  0  0  0
  1 14  1  0  0  0  0
  5 15  1  0  0  0  0
  5 16  1  0  0  0  0
  5 17  1  0  0  0  0
  6 18  1  0  0  0  0
  6 19  1  0  0  0  0
  6 20  1  0  0  0  0
  7 21  1  0  0  0  0
  7 22  1  0  0  0  0
  7 23  1  0  0  0  0
 10 24  1  0  0  0  0
 10 25  1  0  0  0  0
M  END
> <id>
EN300-6510686

> <smiles>
CC(C)(C)OC(=O)C1=COC(N)=N1

> <IUPAC Name>
tert-butyl 2-amino-1,3-oxazole-4-carboxylate

> <CAS>
2248373-21-7

> <URL>
https://www.enaminestore.com/catalog/EN300-6510686

> <ROCS_ShapeQuery>
_x1140_x0812_0A_x1140_0A_x1097_0A_x0365_0A_x1097_0A_x0310_0A

> <ROCS_TanimotoCombo>
0.616 

> <ROCS_ShapeTanimoto>
0.197 

> <ROCS_ColorTanimoto>
0.419 

> <ROCS_RefTversky>
0.182 

> <ROCS_RefColorTversky>
0.523 

> <ROCS_RefTverskyCombo>
0.705 

> <ROCS_FitTversky>
1.717 

> <ROCS_FitColorTversky>
0.677 

> <ROCS_FitTverskyCombo>
2.394 

> <ROCS_ColorScore>
-4.133

> <ROCS_Overlap>
1868.519

> <ROCS_Rank>
285                 

$$$$
untitled-dbase-489563_1
  -OEChem-02092423213D

 22 22  0     0  0  0  0  0  0999 V2000
    7.5436   12.0937   25.1923 C   0  0  0  0  0  0  0  0  0  0  0  0
    9.2186   11.5872   23.5423 C   0  0  0  0  0  0  0  0  0  0  0  0
    8.4404   12.5199   24.2189 C   0  0  0  0  0  0  0  0  0  0  0  0
    9.0636   10.2507   23.8736 C   0  0  0  0  0  0  0  0  0  0  0  0
    7.4634   10.7345   25.4495 C   0  0  0  0  0  0  0  0  0  0  0  0
   10.1649   12.0182   22.5193 C   0  0  0  0  0  0  0  0  0  0  0  0
    8.5450   13.9800   23.9219 C   0  0  0  0  0  0  0  0  0  0  0  0
   12.0895   13.3651   22.1233 C   0  0  0  0  0  0  0  0  0  0  0  0
    8.2030    9.7988   24.8131 N   0  0  0  0  0  0  0  0  0  0  0  0
    9.8510    9.2919   23.1881 N   0  0  0  0  0  0  0  0  0  0  0  0
   10.1235   11.6594   21.3376 O   0  0  0  0  0  0  0  0  0  0  0  0
   11.1018   12.8698   23.0336 O   0  0  0  0  0  0  0  0  0  0  0  0
    6.3901   10.1175   26.6376 Cl  0  0  0  0  0  0  0  0  0  0  0  0
    6.9280   12.8064   25.7319 H   0  0  0  0  0  0  0  0  0  0  0  0
    9.3040   14.4442   24.5619 H   0  0  0  0  0  0  0  0  0  0  0  0
    8.8183   14.1524   22.8737 H   0  0  0  0  0  0  0  0  0  0  0  0
    7.5873   14.4880   24.0900 H   0  0  0  0  0  0  0  0  0  0  0  0
   12.7745   14.0307   22.6543 H   0  0  0  0  0  0  0  0  0  0  0  0
   11.5984   13.9043   21.3093 H   0  0  0  0  0  0  0  0  0  0  0  0
   12.6497   12.5215   21.7130 H   0  0  0  0  0  0  0  0  0  0  0  0
   10.4559    9.5995   22.4584 H   0  0  0  0  0  0  0  0  0  0  0  0
    9.7119    8.3253   23.3868 H   0  0  0  0  0  0  0  0  0  0  0  0
  1  3  2  0  0  0  0
  1  5  1  0  0  0  0
  2  3  1  0  0  0  0
  2  4  2  0  0  0  0
  2  6  1  0  0  0  0
  3  7  1  0  0  0  0
  4  9  1  0  0  0  0
  4 10  1  0  0  0  0
  5  9  2  0  0  0  0
  5 13  1  0  0  0  0
  6 11  2  0  0  0  0
  6 12  1  0  0  0  0
  8 12  1  0  0  0  0
  1 14  1  0  0  0  0
  7 15  1  0  0  0  0
  7 16  1  0  0  0  0
  7 17  1  0  0  0  0
  8 18  1  0  0  0  0
  8 19  1  0  0  0  0
  8 20  1  0  0  0  0
 10 21  1  0  0  0  0
 10 22  1  0  0  0  0
M  END
> <id>
EN300-28229025

> <smiles>
COC(=O)C=1C(C)=CC(Cl)=NC1N

> <IUPAC Name>
methyl 2-amino-6-chloro-4-methylpyridine-3-carboxylate

> <CAS>
2091530-41-3

> <URL>
https://www.enaminestore.com/catalog/EN300-28229025

> <ROCS_ShapeQuery>
_x1140_x0812_0A_x1140_0A_x1097_0A_x0365_0A_x1097_0A_x0310_0A

> <ROCS_TanimotoCombo>
0.616 

> <ROCS_ShapeTanimoto>
0.241 

> <ROCS_ColorTanimoto>
0.374 

> <ROCS_RefTversky>
0.215 

> <ROCS_RefColorTversky>
0.451 

> <ROCS_RefTverskyCombo>
0.666 

> <ROCS_FitTversky>
2.047 

> <ROCS_FitColorTversky>
0.687 

> <ROCS_FitTverskyCombo>
2.735 

> <ROCS_ColorScore>
-3.544

> <ROCS_Overlap>
2201.462

> <ROCS_Rank>
286                 

$$$$
untitled-dbase-353952_3
  -OEChem-02092423213D

 55 55  0     0  0  0  0  0  0999 V2000
    8.6487   14.3283   25.8853 C   0  0  0  0  0  0  0  0  0  0  0  0
    8.8381   15.4319   26.3184 C   0  0  0  0  0  0  0  0  0  0  0  0
    8.4244   13.0137   25.3675 C   0  0  0  0  0  0  0  0  0  0  0  0
    9.0098   11.2409   23.8341 C   0  0  0  0  0  0  0  0  0  0  0  0
    9.2285   12.5227   24.3390 C   0  0  0  0  0  0  0  0  0  0  0  0
    7.4017   12.2229   25.8913 C   0  0  0  0  0  0  0  0  0  0  0  0
    7.9871   10.4501   24.3579 C   0  0  0  0  0  0  0  0  0  0  0  0
    7.1830   10.9411   25.3865 C   0  0  0  0  0  0  0  0  0  0  0  0
    9.8503   10.7253   22.7574 C   0  0  0  0  0  0  0  0  0  0  0  0
   10.3289   13.3652   23.7681 C   0  0  0  0  0  0  0  0  0  0  0  0
    6.5314   12.7428   26.9958 C   0  0  0  0  0  0  0  0  0  0  0  0
    7.7513    9.0742   23.8153 C   0  0  0  0  0  0  0  0  0  0  0  0
   12.4467   10.0029   21.7771 C   0  0  0  0  0  0  0  0  0  0  0  0
   12.0017    7.7575   22.8112 C   0  0  0  0  0  0  0  0  0  0  0  0
   10.5308    8.5930   20.9548 C   0  0  0  0  0  0  0  0  0  0  0  0
    4.7740   10.5299   25.8899 C   0  0  0  0  0  0  0  0  0  0  0  0
   10.8667   17.7264   26.5453 C   0  0  0  0  0  0  0  0  0  0  0  0
    7.8861   18.3513   26.2600 C   0  0  0  0  0  0  0  0  0  0  0  0
    8.9543   17.1490   28.8621 C   0  0  0  0  0  0  0  0  0  0  0  0
   11.3710    8.9904   22.1676 C   0  0  0  0  0  0  0  0  0  0  0  0
    6.1467   10.1380   25.9183 N   0  0  0  0  0  0  0  0  0  0  0  0
    9.9509   11.2489   21.6434 O   0  0  0  0  0  0  0  0  0  0  0  0
   10.5106    9.5924   23.1407 O   0  0  0  0  0  0  0  0  0  0  0  0
    9.1355   17.1602   26.9949 Si  0  0  0  0  0  0  0  0  0  0  0  0
   11.2578   13.1920   24.3200 H   0  0  0  0  0  0  0  0  0  0  0  0
   10.4951   13.1283   22.7121 H   0  0  0  0  0  0  0  0  0  0  0  0
   10.0762   14.4293   23.8253 H   0  0  0  0  0  0  0  0  0  0  0  0
    5.6612   13.2565   26.5761 H   0  0  0  0  0  0  0  0  0  0  0  0
    6.1852   11.9262   27.6378 H   0  0  0  0  0  0  0  0  0  0  0  0
    7.0836   13.4429   27.6316 H   0  0  0  0  0  0  0  0  0  0  0  0
    8.3457    8.3434   24.3731 H   0  0  0  0  0  0  0  0  0  0  0  0
    6.6934    8.7993   23.8896 H   0  0  0  0  0  0  0  0  0  0  0  0
    8.0257    9.0180   22.7562 H   0  0  0  0  0  0  0  0  0  0  0  0
   11.9980   10.8893   21.3147 H   0  0  0  0  0  0  0  0  0  0  0  0
   13.0337   10.3224   22.6443 H   0  0  0  0  0  0  0  0  0  0  0  0
   13.1309    9.5791   21.0331 H   0  0  0  0  0  0  0  0  0  0  0  0
   11.2335    7.0283   23.0930 H   0  0  0  0  0  0  0  0  0  0  0  0
   12.5270    8.0251   23.7352 H   0  0  0  0  0  0  0  0  0  0  0  0
   12.7128    7.2689   22.1372 H   0  0  0  0  0  0  0  0  0  0  0  0
    9.7591    7.8668   21.2346 H   0  0  0  0  0  0  0  0  0  0  0  0
   10.0406    9.4609   20.5019 H   0  0  0  0  0  0  0  0  0  0  0  0
   11.1513    8.1068   20.1933 H   0  0  0  0  0  0  0  0  0  0  0  0
    4.6828   11.5129   25.4045 H   0  0  0  0  0  0  0  0  0  0  0  0
    4.1923    9.7868   25.3248 H   0  0  0  0  0  0  0  0  0  0  0  0
    4.3892   10.5919   26.9185 H   0  0  0  0  0  0  0  0  0  0  0  0
   11.0660   18.7320   26.9281 H   0  0  0  0  0  0  0  0  0  0  0  0
   11.6234   17.0554   26.9633 H   0  0  0  0  0  0  0  0  0  0  0  0
   11.0060   17.7499   25.4602 H   0  0  0  0  0  0  0  0  0  0  0  0
    8.0376   19.3669   26.6383 H   0  0  0  0  0  0  0  0  0  0  0  0
    7.9675   18.3871   25.1693 H   0  0  0  0  0  0  0  0  0  0  0  0
    6.8625   18.0535   26.5075 H   0  0  0  0  0  0  0  0  0  0  0  0
    9.1229   18.1454   29.2820 H   0  0  0  0  0  0  0  0  0  0  0  0
    7.9517   16.8277   29.1604 H   0  0  0  0  0  0  0  0  0  0  0  0
    9.6737   16.4668   29.3253 H   0  0  0  0  0  0  0  0  0  0  0  0
    6.4177    9.2653   26.3257 H   0  0  0  0  0  0  0  0  0  0  0  0
  1  2  3  0  0  0  0
  1  3  1  0  0  0  0
  2 24  1  0  0  0  0
  3  5  1  0  0  0  0
  3  6  2  0  0  0  0
  4  5  2  0  0  0  0
  4  7  1  0  0  0  0
  4  9  1  0  0  0  0
  5 10  1  0  0  0  0
  6  8  1  0  0  0  0
  6 11  1  0  0  0  0
  7  8  2  0  0  0  0
  7 12  1  0  0  0  0
  8 21  1  0  0  0  0
  9 22  2  0  0  0  0
  9 23  1  0  0  0  0
 13 20  1  0  0  0  0
 14 20  1  0  0  0  0
 15 20  1  0  0  0  0
 16 21  1  0  0  0  0
 17 24  1  0  0  0  0
 18 24  1  0  0  0  0
 19 24  1  0  0  0  0
 20 23  1  0  0  0  0
 10 25  1  0  0  0  0
 10 26  1  0  0  0  0
 10 27  1  0  0  0  0
 11 28  1  0  0  0  0
 11 29  1  0  0  0  0
 11 30  1  0  0  0  0
 12 31  1  0  0  0  0
 12 32  1  0  0  0  0
 12 33  1  0  0  0  0
 13 34  1  0  0  0  0
 13 35  1  0  0  0  0
 13 36  1  0  0  0  0
 14 37  1  0  0  0  0
 14 38  1  0  0  0  0
 14 39  1  0  0  0  0
 15 40  1  0  0  0  0
 15 41  1  0  0  0  0
 15 42  1  0  0  0  0
 16 43  1  0  0  0  0
 16 44  1  0  0  0  0
 16 45  1  0  0  0  0
 17 46  1  0  0  0  0
 17 47  1  0  0  0  0
 17 48  1  0  0  0  0
 18 49  1  0  0  0  0
 18 50  1  0  0  0  0
 18 51  1  0  0  0  0
 19 52  1  0  0  0  0
 19 53  1  0  0  0  0
 19 54  1  0  0  0  0
 21 55  1  0  0  0  0
M  END
> <id>
EN300-26631376

> <smiles>
CNC=1C(C)=C(C#C[Si](C)(C)C)C(C)=C(C(=O)OC(C)(C)C)C1C

> <IUPAC Name>
tert-butyl 2,4,6-trimethyl-3-(methylamino)-5-[2-(trimethylsilyl)ethynyl]benzoate

> <CAS>
2418705-42-5

> <URL>
https://www.enaminestore.com/catalog/EN300-26631376

> <ROCS_ShapeQuery>
_x1140_x0812_0A_x1140_0A_x1097_0A_x0365_0A_x1097_0A_x0310_0A

> <ROCS_TanimotoCombo>
0.616 

> <ROCS_ShapeTanimoto>
0.256 

> <ROCS_ColorTanimoto>
0.359 

> <ROCS_RefTversky>
0.234 

> <ROCS_RefColorTversky>
0.407 

> <ROCS_RefTverskyCombo>
0.640 

> <ROCS_FitTversky>
1.615 

> <ROCS_FitColorTversky>
0.755 

> <ROCS_FitTverskyCombo>
2.370 

> <ROCS_ColorScore>
-3.173

> <ROCS_Overlap>
2398.167

> <ROCS_Rank>
287                 

$$$$
untitled-dbase-450900_2
  -OEChem-02092423213D

 22 22  0     0  0  0  0  0  0999 V2000
    8.5200   12.5293   24.1351 C   0  0  0  0  0  0  0  0  0  0  0  0
    7.5386   12.0378   24.9888 C   0  0  0  0  0  0  0  0  0  0  0  0
    9.3133   11.6439   23.4140 C   0  0  0  0  0  0  0  0  0  0  0  0
    7.3918   10.6634   25.0851 C   0  0  0  0  0  0  0  0  0  0  0  0
    9.0872   10.2871   23.5810 C   0  0  0  0  0  0  0  0  0  0  0  0
    5.1891   10.9028   26.2324 C   0  0  0  0  0  0  0  0  0  0  0  0
    9.3588    8.9796   21.6131 C   0  0  0  0  0  0  0  0  0  0  0  0
    8.1435    9.7722   24.4007 N   0  0  0  0  0  0  0  0  0  0  0  0
   10.3100   12.1271   22.5480 N   0  0  0  0  0  0  0  0  0  0  0  0
    6.3870   10.1781   25.9583 N   0  0  0  0  0  0  0  0  0  0  0  0
    9.8462    9.3797   22.8879 O   0  0  0  0  0  0  0  0  0  0  0  0
    8.6572   13.6032   24.0400 H   0  0  0  0  0  0  0  0  0  0  0  0
    6.9152   12.7213   25.5561 H   0  0  0  0  0  0  0  0  0  0  0  0
    5.1952   11.8484   25.6703 H   0  0  0  0  0  0  0  0  0  0  0  0
    4.3194   10.3016   25.9288 H   0  0  0  0  0  0  0  0  0  0  0  0
    5.1287   11.1171   27.3096 H   0  0  0  0  0  0  0  0  0  0  0  0
   10.0496    8.2596   21.1676 H   0  0  0  0  0  0  0  0  0  0  0  0
    9.2627    9.8561   20.9673 H   0  0  0  0  0  0  0  0  0  0  0  0
    8.3792    8.5122   21.7377 H   0  0  0  0  0  0  0  0  0  0  0  0
   10.4128   13.1155   22.4187 H   0  0  0  0  0  0  0  0  0  0  0  0
   10.8420   11.4787   21.9996 H   0  0  0  0  0  0  0  0  0  0  0  0
    6.5550    9.2897   26.3845 H   0  0  0  0  0  0  0  0  0  0  0  0
  1  2  2  0  0  0  0
  1  3  1  0  0  0  0
  2  4  1  0  0  0  0
  3  5  2  0  0  0  0
  3  9  1  0  0  0  0
  4  8  2  0  0  0  0
  4 10  1  0  0  0  0
  5  8  1  0  0  0  0
  5 11  1  0  0  0  0
  6 10  1  0  0  0  0
  7 11  1  0  0  0  0
  1 12  1  0  0  0  0
  2 13  1  0  0  0  0
  6 14  1  0  0  0  0
  6 15  1  0  0  0  0
  6 16  1  0  0  0  0
  7 17  1  0  0  0  0
  7 18  1  0  0  0  0
  7 19  1  0  0  0  0
  9 20  1  0  0  0  0
  9 21  1  0  0  0  0
 10 22  1  0  0  0  0
M  END
> <id>
EN300-2963191

> <smiles>
CNC=1C=CC(N)=C(OC)N1

> <MDLNUMBER>
MFCD06738314

> <IUPAC Name>
6-methoxy-N2-methylpyridine-2,5-diamine

> <CAS>
471254-59-8

> <Purity>
95

> <URL>
https://www.enaminestore.com/catalog/EN300-2963191

> <ROCS_ShapeQuery>
_x1140_x0812_0A_x1140_0A_x1097_0A_x0365_0A_x1097_0A_x0310_0A

> <ROCS_TanimotoCombo>
0.616 

> <ROCS_ShapeTanimoto>
0.223 

> <ROCS_ColorTanimoto>
0.392 

> <ROCS_RefTversky>
0.200 

> <ROCS_RefColorTversky>
0.500 

> <ROCS_RefTverskyCombo>
0.700 

> <ROCS_FitTversky>
2.063 

> <ROCS_FitColorTversky>
0.646 

> <ROCS_FitTverskyCombo>
2.710 

> <ROCS_ColorScore>
-3.949

> <ROCS_Overlap>
2051.168

> <ROCS_Rank>
288                 

$$$$
untitled-dbase-363569_4
  -OEChem-02092423213D

 28 28  0     0  0  0  0  0  0999 V2000
    8.6828   12.5781   24.6952 C   0  0  0  0  0  0  0  0  0  0  0  0
    8.9743   10.4947   23.5857 C   0  0  0  0  0  0  0  0  0  0  0  0
    9.3404   11.8232   23.7304 C   0  0  0  0  0  0  0  0  0  0  0  0
    7.6931   11.9898   25.4748 C   0  0  0  0  0  0  0  0  0  0  0  0
    7.4006   10.6540   25.2519 C   0  0  0  0  0  0  0  0  0  0  0  0
   11.8310   13.0556   19.7182 C   0  0  0  0  0  0  0  0  0  0  0  0
   11.8282   12.8584   21.0465 C   0  0  0  0  0  0  0  0  0  0  0  0
   10.6952   12.0444   21.6203 C   0  0  0  0  0  0  0  0  0  0  0  0
   12.9094   13.4291   21.9146 C   0  0  0  0  0  0  0  0  0  0  0  0
    5.8649   13.4125   26.0127 C   0  0  0  0  0  0  0  0  0  0  0  0
    8.0180    9.8885   24.3242 N   0  0  0  0  0  0  0  0  0  0  0  0
    6.3908   10.0538   26.0453 N   0  0  0  0  0  0  0  0  0  0  0  0
   10.3546   12.3951   22.9202 N   0  0  0  0  0  0  0  0  0  0  0  0
   10.1642   11.1647   20.9466 O   0  0  0  0  0  0  0  0  0  0  0  0
    7.0490   12.7249   26.4181 O   0  0  0  0  0  0  0  0  0  0  0  0
    8.9389   13.6245   24.8419 H   0  0  0  0  0  0  0  0  0  0  0  0
    9.4516    9.8547   22.8493 H   0  0  0  0  0  0  0  0  0  0  0  0
   12.6180   13.6332   19.2428 H   0  0  0  0  0  0  0  0  0  0  0  0
   11.0657   12.6577   19.0605 H   0  0  0  0  0  0  0  0  0  0  0  0
   12.6370   14.4303   22.2643 H   0  0  0  0  0  0  0  0  0  0  0  0
   13.8591   13.5235   21.3764 H   0  0  0  0  0  0  0  0  0  0  0  0
   13.0922   12.7836   22.7799 H   0  0  0  0  0  0  0  0  0  0  0  0
    5.4515   13.9603   26.8631 H   0  0  0  0  0  0  0  0  0  0  0  0
    5.1333   12.6914   25.6397 H   0  0  0  0  0  0  0  0  0  0  0  0
    6.1178   14.1169   25.2167 H   0  0  0  0  0  0  0  0  0  0  0  0
    5.9600   10.5932   26.7640 H   0  0  0  0  0  0  0  0  0  0  0  0
    6.2023    9.0823   25.9289 H   0  0  0  0  0  0  0  0  0  0  0  0
   10.8935   13.1475   23.3387 H   0  0  0  0  0  0  0  0  0  0  0  0
  1  3  2  0  0  0  0
  1  4  1  0  0  0  0
  2  3  1  0  0  0  0
  2 11  2  0  0  0  0
  3 13  1  0  0  0  0
  4  5  2  0  0  0  0
  4 15  1  0  0  0  0
  5 11  1  0  0  0  0
  5 12  1  0  0  0  0
  6  7  2  0  0  0  0
  7  8  1  0  0  0  0
  7  9  1  0  0  0  0
  8 13  1  0  0  0  0
  8 14  2  0  0  0  0
 10 15  1  0  0  0  0
  1 16  1  0  0  0  0
  2 17  1  0  0  0  0
  6 18  1  0  0  0  0
  6 19  1  0  0  0  0
  9 20  1  0  0  0  0
  9 21  1  0  0  0  0
  9 22  1  0  0  0  0
 10 23  1  0  0  0  0
 10 24  1  0  0  0  0
 10 25  1  0  0  0  0
 12 26  1  0  0  0  0
 12 27  1  0  0  0  0
 13 28  1  0  0  0  0
M  END
> <id>
EN300-377712

> <smiles>
COC=1C=C(NC(=O)C(=C)C)C=NC1N

> <MDLNUMBER>
MFCD30733790

> <IUPAC Name>
N-(6-amino-5-methoxypyridin-3-yl)-2-methylprop-2-enamide

> <CAS>
2137654-91-0

> <URL>
https://www.enaminestore.com/catalog/EN300-377712

> <ROCS_ShapeQuery>
_x1140_x0812_0A_x1140_0A_x1097_0A_x0365_0A_x1097_0A_x0310_0A

> <ROCS_TanimotoCombo>
0.616 

> <ROCS_ShapeTanimoto>
0.226 

> <ROCS_ColorTanimoto>
0.390 

> <ROCS_RefTversky>
0.205 

> <ROCS_RefColorTversky>
0.530 

> <ROCS_RefTverskyCombo>
0.735 

> <ROCS_FitTversky>
1.809 

> <ROCS_FitColorTversky>
0.597 

> <ROCS_FitTverskyCombo>
2.406 

> <ROCS_ColorScore>
-4.211

> <ROCS_Overlap>
2101.167

> <ROCS_Rank>
289                 

$$$$
untitled-dbase-233211_0
  -OEChem-02092423213D

 23 23  0     0  0  0  0  0  0999 V2000
    8.5565   12.6036   24.0640 C   0  0  0  0  0  0  0  0  0  0  0  0
    7.6151   12.1970   25.0031 C   0  0  0  0  0  0  0  0  0  0  0  0
    9.3425   11.6545   23.4200 C   0  0  0  0  0  0  0  0  0  0  0  0
    7.4996   10.8405   25.2602 C   0  0  0  0  0  0  0  0  0  0  0  0
    9.1498   10.3222   23.7481 C   0  0  0  0  0  0  0  0  0  0  0  0
    5.7198   11.4324   26.8857 C   0  0  0  0  0  0  0  0  0  0  0  0
    6.3515    9.0407   26.5264 C   0  0  0  0  0  0  0  0  0  0  0  0
    8.2453    9.8892   24.6548 N   0  0  0  0  0  0  0  0  0  0  0  0
   10.2962   12.0645   22.4695 N   0  0  0  0  0  0  0  0  0  0  0  0
    9.9476    9.3474   23.0974 N   0  0  0  0  0  0  0  0  0  0  0  0
    6.5354   10.4418   26.2190 N   0  0  0  0  0  0  0  0  0  0  0  0
    8.6695   13.6619   23.8431 H   0  0  0  0  0  0  0  0  0  0  0  0
    6.9973   12.9303   25.5111 H   0  0  0  0  0  0  0  0  0  0  0  0
    5.0368   10.9330   27.5886 H   0  0  0  0  0  0  0  0  0  0  0  0
    6.3677   12.1297   27.4372 H   0  0  0  0  0  0  0  0  0  0  0  0
    5.1347   11.9886   26.1386 H   0  0  0  0  0  0  0  0  0  0  0  0
    5.5653    8.9320   27.2879 H   0  0  0  0  0  0  0  0  0  0  0  0
    6.0558    8.5011   25.6146 H   0  0  0  0  0  0  0  0  0  0  0  0
    7.2939    8.6229   26.9103 H   0  0  0  0  0  0  0  0  0  0  0  0
   10.3665   13.0348   22.2319 H   0  0  0  0  0  0  0  0  0  0  0  0
   10.8255   11.3726   21.9757 H   0  0  0  0  0  0  0  0  0  0  0  0
   10.5870    9.6425   22.3925 H   0  0  0  0  0  0  0  0  0  0  0  0
    9.7833    8.3842   23.2924 H   0  0  0  0  0  0  0  0  0  0  0  0
  1  2  2  0  0  0  0
  1  3  1  0  0  0  0
  2  4  1  0  0  0  0
  3  5  2  0  0  0  0
  3  9  1  0  0  0  0
  4  8  2  0  0  0  0
  4 11  1  0  0  0  0
  5  8  1  0  0  0  0
  5 10  1  0  0  0  0
  6 11  1  0  0  0  0
  7 11  1  0  0  0  0
  1 12  1  0  0  0  0
  2 13  1  0  0  0  0
  6 14  1  0  0  0  0
  6 15  1  0  0  0  0
  6 16  1  0  0  0  0
  7 17  1  0  0  0  0
  7 18  1  0  0  0  0
  7 19  1  0  0  0  0
  9 20  1  0  0  0  0
  9 21  1  0  0  0  0
 10 22  1  0  0  0  0
 10 23  1  0  0  0  0
M  END
> <id>
EN300-101822

> <smiles>
CN(C)C=1C=CC(N)=C(N)N1

> <MDLNUMBER>
MFCD20693681

> <IUPAC Name>
N6,N6-dimethylpyridine-2,3,6-triamine

> <CAS>
84770-84-3

> <Purity>
95

> <URL>
https://www.enaminestore.com/catalog/EN300-101822

> <ROCS_ShapeQuery>
_x1140_x0812_0A_x1140_0A_x1097_0A_x0365_0A_x1097_0A_x0310_0A

> <ROCS_TanimotoCombo>
0.616 

> <ROCS_ShapeTanimoto>
0.221 

> <ROCS_ColorTanimoto>
0.394 

> <ROCS_RefTversky>
0.199 

> <ROCS_RefColorTversky>
0.502 

> <ROCS_RefTverskyCombo>
0.700 

> <ROCS_FitTversky>
2.049 

> <ROCS_FitColorTversky>
0.649 

> <ROCS_FitTverskyCombo>
2.698 

> <ROCS_ColorScore>
-3.963

> <ROCS_Overlap>
2035.345

> <ROCS_Rank>
290                 

$$$$
untitled-dbase-369562_1
  -OEChem-02092423213D

 17 17  0     0  0  0  0  0  0999 V2000
    7.5557   12.0793   25.1855 C   0  0  0  0  0  0  0  0  0  0  0  0
    8.4606   12.5140   24.2234 C   0  0  0  0  0  0  0  0  0  0  0  0
    7.4714   10.7177   25.4282 C   0  0  0  0  0  0  0  0  0  0  0  0
    9.2424   11.5871   23.5431 C   0  0  0  0  0  0  0  0  0  0  0  0
    9.0827   10.2476   23.8595 C   0  0  0  0  0  0  0  0  0  0  0  0
   10.1906   12.0345   22.5347 C   0  0  0  0  0  0  0  0  0  0  0  0
   11.3207   12.9862   22.8977 C   0  0  0  0  0  0  0  0  0  0  0  0
    8.2143    9.7874   24.7878 N   0  0  0  0  0  0  0  0  0  0  0  0
   10.1030   11.6533   21.3502 O   0  0  0  0  0  0  0  0  0  0  0  0
    9.8340    9.3011   23.2120 O   0  0  0  0  0  0  0  0  0  0  0  0
   11.2954   13.3189   24.2133 F   0  0  0  0  0  0  0  0  0  0  0  0
   12.5380   12.4428   22.6432 F   0  0  0  0  0  0  0  0  0  0  0  0
   11.2688   14.1540   22.2049 F   0  0  0  0  0  0  0  0  0  0  0  0
    6.9367   12.7835   25.7295 H   0  0  0  0  0  0  0  0  0  0  0  0
    8.5480   13.5764   24.0119 H   0  0  0  0  0  0  0  0  0  0  0  0
    6.7820   10.3269   26.1693 H   0  0  0  0  0  0  0  0  0  0  0  0
    9.6068    8.4213   23.5432 H   0  0  0  0  0  0  0  0  0  0  0  0
  1  2  2  0  0  0  0
  1  3  1  0  0  0  0
  2  4  1  0  0  0  0
  3  8  2  0  0  0  0
  4  5  2  0  0  0  0
  4  6  1  0  0  0  0
  5  8  1  0  0  0  0
  5 10  1  0  0  0  0
  6  7  1  0  0  0  0
  6  9  2  0  0  0  0
  7 11  1  0  0  0  0
  7 12  1  0  0  0  0
  7 13  1  0  0  0  0
  1 14  1  0  0  0  0
  2 15  1  0  0  0  0
  3 16  1  0  0  0  0
 10 17  1  0  0  0  0
M  END
> <id>
EN300-26870847

> <smiles>
OC=1N=CC=CC1C(=O)C(F)(F)F

> <MDLNUMBER>
MFCD32692580

> <IUPAC Name>
2,2,2-trifluoro-1-(2-hydroxypyridin-3-yl)ethan-1-one

> <CAS>
2354530-66-6

> <Purity>
95

> <URL>
https://www.enaminestore.com/catalog/EN300-26870847

> <ROCS_ShapeQuery>
_x1140_x0812_0A_x1140_0A_x1097_0A_x0365_0A_x1097_0A_x0310_0A

> <ROCS_TanimotoCombo>
0.616 

> <ROCS_ShapeTanimoto>
0.235 

> <ROCS_ColorTanimoto>
0.380 

> <ROCS_RefTversky>
0.211 

> <ROCS_RefColorTversky>
0.457 

> <ROCS_RefTverskyCombo>
0.667 

> <ROCS_FitTversky>
1.973 

> <ROCS_FitColorTversky>
0.695 

> <ROCS_FitTverskyCombo>
2.667 

> <ROCS_ColorScore>
-3.584

> <ROCS_Overlap>
2162.326

> <ROCS_Rank>
291                 

$$$$
untitled-dbase-522004_1
  -OEChem-02092423213D

 22 23  0     0  0  0  0  0  0999 V2000
    8.7354   12.5149   24.6124 C   0  0  0  0  0  0  0  0  0  0  0  0
    7.6142   12.0229   25.2711 C   0  0  0  0  0  0  0  0  0  0  0  0
    9.5595   11.6408   23.9040 C   0  0  0  0  0  0  0  0  0  0  0  0
    9.2198   10.2891   23.8849 C   0  0  0  0  0  0  0  0  0  0  0  0
    7.3601   10.6642   25.1936 C   0  0  0  0  0  0  0  0  0  0  0  0
   10.7485   12.1010   23.1952 C   0  0  0  0  0  0  0  0  0  0  0  0
   11.5166   11.2347   22.5257 C   0  0  0  0  0  0  0  0  0  0  0  0
   11.1813    9.7860   22.4853 C   0  0  0  0  0  0  0  0  0  0  0  0
    5.7006   10.7901   27.0527 C   0  0  0  0  0  0  0  0  0  0  0  0
    8.1342    9.7859   24.5176 N   0  0  0  0  0  0  0  0  0  0  0  0
   10.0474    9.4002   23.1717 N   0  0  0  0  0  0  0  0  0  0  0  0
    6.2128   10.1794   25.8695 N   0  0  0  0  0  0  0  0  0  0  0  0
   11.9003    9.0068   21.8632 O   0  0  0  0  0  0  0  0  0  0  0  0
    8.9566   13.5781   24.6580 H   0  0  0  0  0  0  0  0  0  0  0  0
    6.9670   12.6959   25.8241 H   0  0  0  0  0  0  0  0  0  0  0  0
   10.9981   13.1561   23.2202 H   0  0  0  0  0  0  0  0  0  0  0  0
   12.4030   11.5631   21.9946 H   0  0  0  0  0  0  0  0  0  0  0  0
    6.3265   11.6542   27.3203 H   0  0  0  0  0  0  0  0  0  0  0  0
    4.6686   11.1263   26.8744 H   0  0  0  0  0  0  0  0  0  0  0  0
    5.7116   10.0606   27.8759 H   0  0  0  0  0  0  0  0  0  0  0  0
    9.7949    8.4167   23.1617 H   0  0  0  0  0  0  0  0  0  0  0  0
    5.7682    9.3751   25.4766 H   0  0  0  0  0  0  0  0  0  0  0  0
  1  2  2  0  0  0  0
  1  3  1  0  0  0  0
  2  5  1  0  0  0  0
  3  4  2  0  0  0  0
  3  6  1  0  0  0  0
  4 10  1  0  0  0  0
  4 11  1  0  0  0  0
  5 10  2  0  0  0  0
  5 12  1  0  0  0  0
  6  7  2  0  0  0  0
  7  8  1  0  0  0  0
  8 11  1  0  0  0  0
  8 13  2  0  0  0  0
  9 12  1  0  0  0  0
  1 14  1  0  0  0  0
  2 15  1  0  0  0  0
  6 16  1  0  0  0  0
  7 17  1  0  0  0  0
  9 18  1  0  0  0  0
  9 19  1  0  0  0  0
  9 20  1  0  0  0  0
 11 21  1  0  0  0  0
 12 22  1  0  0  0  0
M  END
> <id>
EN300-33051270

> <smiles>
CNC=1C=CC=2C=CC(=O)NC2N1

> <IUPAC Name>
7-(methylamino)-1,2-dihydro-1,8-naphthyridin-2-one

> <CAS>
2694746-36-4

> <URL>
https://www.enaminestore.com/catalog/EN300-33051270

> <ROCS_ShapeQuery>
_x1140_x0812_0A_x1140_0A_x1097_0A_x0365_0A_x1097_0A_x0310_0A

> <ROCS_TanimotoCombo>
0.616 

> <ROCS_ShapeTanimoto>
0.235 

> <ROCS_ColorTanimoto>
0.381 

> <ROCS_RefTversky>
0.211 

> <ROCS_RefColorTversky>
0.489 

> <ROCS_RefTverskyCombo>
0.699 

> <ROCS_FitTversky>
1.962 

> <ROCS_FitColorTversky>
0.632 

> <ROCS_FitTverskyCombo>
2.595 

> <ROCS_ColorScore>
-3.861

> <ROCS_Overlap>
2160.436

> <ROCS_Rank>
292                 

$$$$
untitled-dbase-371129_8
  -OEChem-02092423213D

 18 18  0     0  0  0  0  0  0999 V2000
   11.8841   15.1992   22.3200 C   0  0  0  0  0  0  0  0  0  0  0  0
    7.6017   11.8653   25.4944 C   0  0  0  0  0  0  0  0  0  0  0  0
    8.3786   12.4248   24.4952 C   0  0  0  0  0  0  0  0  0  0  0  0
    7.5035   10.4893   25.5422 C   0  0  0  0  0  0  0  0  0  0  0  0
    9.0062   11.5713   23.6103 C   0  0  0  0  0  0  0  0  0  0  0  0
    9.8352   12.0865   22.5362 C   0  0  0  0  0  0  0  0  0  0  0  0
   11.3367   13.9526   21.7879 C   0  0  0  0  0  0  0  0  0  0  0  0
   12.3207   16.1891   22.7395 N   0  0  0  0  0  0  0  0  0  0  0  0
    8.1288    9.6781   24.6628 N   0  0  0  0  0  0  0  0  0  0  0  0
    8.8926   10.2281   23.6811 N   0  0  0  0  0  0  0  0  0  0  0  0
   10.4957   13.3006   22.7658 N   0  0  0  0  0  0  0  0  0  0  0  0
    9.9273   11.4735   21.4562 O   0  0  0  0  0  0  0  0  0  0  0  0
    7.0881   12.4888   26.2171 H   0  0  0  0  0  0  0  0  0  0  0  0
    8.4846   13.5019   24.4194 H   0  0  0  0  0  0  0  0  0  0  0  0
    6.9102    9.9909   26.2998 H   0  0  0  0  0  0  0  0  0  0  0  0
   10.7276   14.1375   20.8985 H   0  0  0  0  0  0  0  0  0  0  0  0
   12.1349   13.2545   21.5201 H   0  0  0  0  0  0  0  0  0  0  0  0
   10.3375   13.7920   23.6395 H   0  0  0  0  0  0  0  0  0  0  0  0
  1  7  1  0  0  0  0
  1  8  3  0  0  0  0
  2  3  2  0  0  0  0
  2  4  1  0  0  0  0
  3  5  1  0  0  0  0
  4  9  2  0  0  0  0
  5  6  1  0  0  0  0
  5 10  2  0  0  0  0
  6 11  1  0  0  0  0
  6 12  2  0  0  0  0
  7 11  1  0  0  0  0
  9 10  1  0  0  0  0
  2 13  1  0  0  0  0
  3 14  1  0  0  0  0
  4 15  1  0  0  0  0
  7 16  1  0  0  0  0
  7 17  1  0  0  0  0
 11 18  1  0  0  0  0
M  END
> <id>
EN300-3481483

> <smiles>
O=C(NCC#N)C=1C=CC=NN1

> <MDLNUMBER>
MFCD30661530

> <IUPAC Name>
N-(cyanomethyl)pyridazine-3-carboxamide

> <CAS>
2107285-18-5

> <URL>
https://www.enaminestore.com/catalog/EN300-3481483

> <ROCS_ShapeQuery>
_x1140_x0812_0A_x1140_0A_x1097_0A_x0365_0A_x1097_0A_x0310_0A

> <ROCS_TanimotoCombo>
0.616 

> <ROCS_ShapeTanimoto>
0.204 

> <ROCS_ColorTanimoto>
0.412 

> <ROCS_RefTversky>
0.186 

> <ROCS_RefColorTversky>
0.528 

> <ROCS_RefTverskyCombo>
0.714 

> <ROCS_FitTversky>
1.844 

> <ROCS_FitColorTversky>
0.653 

> <ROCS_FitTverskyCombo>
2.496 

> <ROCS_ColorScore>
-4.176

> <ROCS_Overlap>
1909.353

> <ROCS_Rank>
293                 

$$$$
untitled-dbase-516745_5
  -OEChem-02092423213D

 27 27  0     0  0  0  0  0  0999 V2000
    7.7463   10.6974   25.4424 C   0  0  0  0  0  0  0  0  0  0  0  0
    8.4168   12.2730   24.0682 C   0  0  0  0  0  0  0  0  0  0  0  0
    7.7502   12.0880   25.2548 C   0  0  0  0  0  0  0  0  0  0  0  0
    9.4600   10.6595   22.4616 C   0  0  0  0  0  0  0  0  0  0  0  0
    7.1715   13.1196   26.1298 C   0  0  0  0  0  0  0  0  0  0  0  0
   11.6478    9.3056   23.6491 C   0  0  0  0  0  0  0  0  0  0  0  0
   10.8859    7.3087   22.3296 C   0  0  0  0  0  0  0  0  0  0  0  0
   11.6254    9.3898   21.1337 C   0  0  0  0  0  0  0  0  0  0  0  0
   10.9386    8.8341   22.3804 C   0  0  0  0  0  0  0  0  0  0  0  0
    8.3605   10.0410   24.4566 N   0  0  0  0  0  0  0  0  0  0  0  0
    8.7703   11.0216   23.6153 N   0  0  0  0  0  0  0  0  0  0  0  0
    9.8501   11.5050   21.6726 O   0  0  0  0  0  0  0  0  0  0  0  0
    9.5903    9.3112   22.4085 O   0  0  0  0  0  0  0  0  0  0  0  0
    7.3211   10.1283   26.2570 H   0  0  0  0  0  0  0  0  0  0  0  0
    8.6638   13.1727   23.5208 H   0  0  0  0  0  0  0  0  0  0  0  0
    7.9035   13.4678   26.8793 H   0  0  0  0  0  0  0  0  0  0  0  0
    6.8304   14.0054   25.5637 H   0  0  0  0  0  0  0  0  0  0  0  0
    6.2845   12.7536   26.6783 H   0  0  0  0  0  0  0  0  0  0  0  0
   11.6877   10.4001   23.6893 H   0  0  0  0  0  0  0  0  0  0  0  0
   11.1445    8.9427   24.5511 H   0  0  0  0  0  0  0  0  0  0  0  0
   12.6869    8.9575   23.6686 H   0  0  0  0  0  0  0  0  0  0  0  0
   10.3778    6.9659   21.4210 H   0  0  0  0  0  0  0  0  0  0  0  0
   10.3116    6.9097   23.1736 H   0  0  0  0  0  0  0  0  0  0  0  0
   11.8881    6.8688   22.3534 H   0  0  0  0  0  0  0  0  0  0  0  0
   11.1169    9.0517   20.2236 H   0  0  0  0  0  0  0  0  0  0  0  0
   11.6396   10.4845   21.1352 H   0  0  0  0  0  0  0  0  0  0  0  0
   12.6577    9.0282   21.0636 H   0  0  0  0  0  0  0  0  0  0  0  0
  1  3  1  0  0  0  0
  1 10  2  0  0  0  0
  2  3  2  0  0  0  0
  2 11  1  0  0  0  0
  3  5  1  0  0  0  0
  4 11  1  0  0  0  0
  4 12  2  0  0  0  0
  4 13  1  0  0  0  0
  6  9  1  0  0  0  0
  7  9  1  0  0  0  0
  8  9  1  0  0  0  0
  9 13  1  0  0  0  0
 10 11  1  0  0  0  0
  1 14  1  0  0  0  0
  2 15  1  0  0  0  0
  5 16  1  0  0  0  0
  5 17  1  0  0  0  0
  5 18  1  0  0  0  0
  6 19  1  0  0  0  0
  6 20  1  0  0  0  0
  6 21  1  0  0  0  0
  7 22  1  0  0  0  0
  7 23  1  0  0  0  0
  7 24  1  0  0  0  0
  8 25  1  0  0  0  0
  8 26  1  0  0  0  0
  8 27  1  0  0  0  0
M  END
> <id>
EN300-136408

> <smiles>
CC=1C=NN(C1)C(=O)OC(C)(C)C

> <MDLNUMBER>
MFCD24466467

> <IUPAC Name>
tert-butyl 4-methyl-1H-pyrazole-1-carboxylate

> <CAS>
121669-69-0

> <URL>
https://www.enaminestore.com/catalog/EN300-136408

> <ROCS_ShapeQuery>
_x1140_x0812_0A_x1140_0A_x1097_0A_x0365_0A_x1097_0A_x0310_0A

> <ROCS_TanimotoCombo>
0.616 

> <ROCS_ShapeTanimoto>
0.203 

> <ROCS_ColorTanimoto>
0.413 

> <ROCS_RefTversky>
0.186 

> <ROCS_RefColorTversky>
0.450 

> <ROCS_RefTverskyCombo>
0.636 

> <ROCS_FitTversky>
1.758 

> <ROCS_FitColorTversky>
0.835 

> <ROCS_FitTverskyCombo>
2.593 

> <ROCS_ColorScore>
-3.508

> <ROCS_Overlap>
1909.146

> <ROCS_Rank>
294                 

$$$$
untitled-dbase-99119_2
  -OEChem-02092423213D

 17 17  0     0  0  0  0  0  0999 V2000
   11.2254    8.5818   22.5711 C   0  0  0  0  0  0  0  0  0  0  0  0
   10.5782    9.5933   22.5617 C   0  0  0  0  0  0  0  0  0  0  0  0
    8.5965   12.7719   25.4868 C   0  0  0  0  0  0  0  0  0  0  0  0
    9.3286   12.4362   24.3534 C   0  0  0  0  0  0  0  0  0  0  0  0
    7.6257   11.8985   25.9644 C   0  0  0  0  0  0  0  0  0  0  0  0
    9.0540   11.2251   23.7391 C   0  0  0  0  0  0  0  0  0  0  0  0
    7.4272   10.7115   25.2779 C   0  0  0  0  0  0  0  0  0  0  0  0
    9.7905   10.8224   22.5535 C   0  0  0  0  0  0  0  0  0  0  0  0
    8.1188   10.3509   24.1736 N   0  0  0  0  0  0  0  0  0  0  0  0
    6.4345    9.8319   25.7767 N   0  0  0  0  0  0  0  0  0  0  0  0
    9.7958   11.4759   21.4997 O   0  0  0  0  0  0  0  0  0  0  0  0
   11.7989    7.6846   22.5806 H   0  0  0  0  0  0  0  0  0  0  0  0
    8.7811   13.7127   25.9965 H   0  0  0  0  0  0  0  0  0  0  0  0
   10.0890   13.1097   23.9724 H   0  0  0  0  0  0  0  0  0  0  0  0
    7.0502   12.1519   26.8487 H   0  0  0  0  0  0  0  0  0  0  0  0
    5.9561   10.0730   26.6172 H   0  0  0  0  0  0  0  0  0  0  0  0
    6.3041    8.9506   25.3295 H   0  0  0  0  0  0  0  0  0  0  0  0
  1  2  3  0  0  0  0
  2  8  1  0  0  0  0
  3  4  1  0  0  0  0
  3  5  2  0  0  0  0
  4  6  2  0  0  0  0
  5  7  1  0  0  0  0
  6  8  1  0  0  0  0
  6  9  1  0  0  0  0
  7  9  2  0  0  0  0
  7 10  1  0  0  0  0
  8 11  2  0  0  0  0
  1 12  1  0  0  0  0
  3 13  1  0  0  0  0
  4 14  1  0  0  0  0
  5 15  1  0  0  0  0
 10 16  1  0  0  0  0
 10 17  1  0  0  0  0
M  END
> <id>
EN300-795708

> <smiles>
NC=1C=CC=C(N1)C(=O)C#C

> <MDLNUMBER>
MFCD31467477

> <IUPAC Name>
1-(6-aminopyridin-2-yl)prop-2-yn-1-one

> <CAS>
1879086-53-9

> <URL>
https://www.enaminestore.com/catalog/EN300-795708

> <ROCS_ShapeQuery>
_x1140_x0812_0A_x1140_0A_x1097_0A_x0365_0A_x1097_0A_x0310_0A

> <ROCS_TanimotoCombo>
0.615 

> <ROCS_ShapeTanimoto>
0.198 

> <ROCS_ColorTanimoto>
0.417 

> <ROCS_RefTversky>
0.182 

> <ROCS_RefColorTversky>
0.522 

> <ROCS_RefTverskyCombo>
0.703 

> <ROCS_FitTversky>
1.868 

> <ROCS_FitColorTversky>
0.675 

> <ROCS_FitTverskyCombo>
2.543 

> <ROCS_ColorScore>
-4.122

> <ROCS_Overlap>
1861.455

> <ROCS_Rank>
295                 

$$$$
untitled-dbase-146847_3
  -OEChem-02092423213D

 26 26  0     0  0  0  0  0  0999 V2000
    8.8558   11.9822   24.8253 C   0  0  0  0  0  0  0  0  0  0  0  0
    9.1065   11.5241   23.5550 C   0  0  0  0  0  0  0  0  0  0  0  0
    8.2138   10.9063   25.4671 C   0  0  0  0  0  0  0  0  0  0  0  0
    9.7423   12.2024   22.4704 C   0  0  0  0  0  0  0  0  0  0  0  0
    7.7222   10.8538   26.8542 C   0  0  0  0  0  0  0  0  0  0  0  0
   10.2255   13.6192   22.6924 C   0  0  0  0  0  0  0  0  0  0  0  0
   11.1134    8.9168   22.6215 C   0  0  0  0  0  0  0  0  0  0  0  0
    9.7374    8.2805   22.5143 C   0  0  0  0  0  0  0  0  0  0  0  0
    8.6447    9.3383   22.3767 C   0  0  0  0  0  0  0  0  0  0  0  0
    8.0658    9.8446   24.6703 N   0  0  0  0  0  0  0  0  0  0  0  0
    8.6182   10.2512   23.5146 N   0  0  0  0  0  0  0  0  0  0  0  0
    9.9402   11.7359   21.3302 O   0  0  0  0  0  0  0  0  0  0  0  0
    9.1018   12.9541   25.2290 H   0  0  0  0  0  0  0  0  0  0  0  0
    6.6762   11.1990   26.9221 H   0  0  0  0  0  0  0  0  0  0  0  0
    7.7626    9.8323   27.2729 H   0  0  0  0  0  0  0  0  0  0  0  0
    8.3244   11.4826   27.5344 H   0  0  0  0  0  0  0  0  0  0  0  0
   11.2619   13.6750   23.0611 H   0  0  0  0  0  0  0  0  0  0  0  0
    9.5935   14.1815   23.3972 H   0  0  0  0  0  0  0  0  0  0  0  0
   10.2383   14.2393   21.7784 H   0  0  0  0  0  0  0  0  0  0  0  0
   11.1645    9.5987   23.4763 H   0  0  0  0  0  0  0  0  0  0  0  0
   11.3382    9.4892   21.7161 H   0  0  0  0  0  0  0  0  0  0  0  0
   11.8896    8.1543   22.7429 H   0  0  0  0  0  0  0  0  0  0  0  0
    9.7182    7.6047   21.6509 H   0  0  0  0  0  0  0  0  0  0  0  0
    9.5544    7.6630   23.4019 H   0  0  0  0  0  0  0  0  0  0  0  0
    7.6546    8.8734   22.2998 H   0  0  0  0  0  0  0  0  0  0  0  0
    8.7904    9.9392   21.4711 H   0  0  0  0  0  0  0  0  0  0  0  0
  1  2  2  0  0  0  0
  1  3  1  0  0  0  0
  2  4  1  0  0  0  0
  2 11  1  0  0  0  0
  3  5  1  0  0  0  0
  3 10  2  0  0  0  0
  4  6  1  0  0  0  0
  4 12  2  0  0  0  0
  7  8  1  0  0  0  0
  8  9  1  0  0  0  0
  9 11  1  0  0  0  0
 10 11  1  0  0  0  0
  1 13  1  0  0  0  0
  5 14  1  0  0  0  0
  5 15  1  0  0  0  0
  5 16  1  0  0  0  0
  6 17  1  0  0  0  0
  6 18  1  0  0  0  0
  6 19  1  0  0  0  0
  7 20  1  0  0  0  0
  7 21  1  0  0  0  0
  7 22  1  0  0  0  0
  8 23  1  0  0  0  0
  8 24  1  0  0  0  0
  9 25  1  0  0  0  0
  9 26  1  0  0  0  0
M  END
> <id>
EN300-1617484

> <smiles>
CCCN1N=C(C)C=C1C(=O)C

> <IUPAC Name>
1-(3-methyl-1-propyl-1H-pyrazol-5-yl)ethan-1-one

> <CAS>
2090154-11-1

> <URL>
https://www.enaminestore.com/catalog/EN300-1617484

> <ROCS_ShapeQuery>
_x1140_x0812_0A_x1140_0A_x1097_0A_x0365_0A_x1097_0A_x0310_0A

> <ROCS_TanimotoCombo>
0.615 

> <ROCS_ShapeTanimoto>
0.198 

> <ROCS_ColorTanimoto>
0.418 

> <ROCS_RefTversky>
0.182 

> <ROCS_RefColorTversky>
0.453 

> <ROCS_RefTverskyCombo>
0.635 

> <ROCS_FitTversky>
1.809 

> <ROCS_FitColorTversky>
0.842 

> <ROCS_FitTverskyCombo>
2.651 

> <ROCS_ColorScore>
-3.536

> <ROCS_Overlap>
1861.189

> <ROCS_Rank>
296                 

$$$$
untitled-dbase-531789_0
  -OEChem-02092423213D

 33 34  0     0  0  0  0  0  0999 V2000
   11.9234   12.8272   21.1048 C   0  0  0  0  0  0  0  0  0  0  0  0
   10.9313   12.1716   21.8337 C   0  0  0  0  0  0  0  0  0  0  0  0
   12.3280   14.1100   21.4746 C   0  0  0  0  0  0  0  0  0  0  0  0
    8.3098   12.8302   24.3354 C   0  0  0  0  0  0  0  0  0  0  0  0
   10.7480   14.0814   23.3021 C   0  0  0  0  0  0  0  0  0  0  0  0
    9.3020   10.7376   23.7941 C   0  0  0  0  0  0  0  0  0  0  0  0
   10.3435   12.7986   22.9324 C   0  0  0  0  0  0  0  0  0  0  0  0
    9.3148   12.1191   23.6892 C   0  0  0  0  0  0  0  0  0  0  0  0
    7.3365   12.1477   25.0566 C   0  0  0  0  0  0  0  0  0  0  0  0
   11.7402   14.7370   22.5732 C   0  0  0  0  0  0  0  0  0  0  0  0
    7.4121   10.7649   25.1001 C   0  0  0  0  0  0  0  0  0  0  0  0
    6.4043    8.6421   25.9390 C   0  0  0  0  0  0  0  0  0  0  0  0
   13.1544   16.6005   22.1448 C   0  0  0  0  0  0  0  0  0  0  0  0
    6.2607   12.9132   25.7492 C   0  0  0  0  0  0  0  0  0  0  0  0
    8.3733   10.0397   24.4854 N   0  0  0  0  0  0  0  0  0  0  0  0
    6.4206   10.0644   25.8316 N   0  0  0  0  0  0  0  0  0  0  0  0
   12.1352   15.9886   22.9339 O   0  0  0  0  0  0  0  0  0  0  0  0
    6.3598   14.2662   25.5875 F   0  0  0  0  0  0  0  0  0  0  0  0
    5.0021   12.5956   25.3234 F   0  0  0  0  0  0  0  0  0  0  0  0
    6.2534   12.7059   27.0984 F   0  0  0  0  0  0  0  0  0  0  0  0
   12.3808   12.3391   20.2492 H   0  0  0  0  0  0  0  0  0  0  0  0
   10.6268   11.1718   21.5330 H   0  0  0  0  0  0  0  0  0  0  0  0
   13.1014   14.6160   20.9032 H   0  0  0  0  0  0  0  0  0  0  0  0
    8.2813   13.9164   24.2803 H   0  0  0  0  0  0  0  0  0  0  0  0
   10.2945   14.5787   24.1572 H   0  0  0  0  0  0  0  0  0  0  0  0
   10.0585   10.1246   23.3125 H   0  0  0  0  0  0  0  0  0  0  0  0
    7.2551    8.2221   25.3824 H   0  0  0  0  0  0  0  0  0  0  0  0
    6.4806    8.3536   26.9978 H   0  0  0  0  0  0  0  0  0  0  0  0
    5.4644    8.2536   25.5199 H   0  0  0  0  0  0  0  0  0  0  0  0
   13.3748   17.5949   22.5405 H   0  0  0  0  0  0  0  0  0  0  0  0
   12.8177   16.6756   21.1078 H   0  0  0  0  0  0  0  0  0  0  0  0
   14.0560   15.9850   22.1894 H   0  0  0  0  0  0  0  0  0  0  0  0
    5.7182   10.6184   26.2771 H   0  0  0  0  0  0  0  0  0  0  0  0
  1  2  2  0  0  0  0
  1  3  1  0  0  0  0
  2  7  1  0  0  0  0
  3 10  2  0  0  0  0
  4  8  2  0  0  0  0
  4  9  1  0  0  0  0
  5  7  2  0  0  0  0
  5 10  1  0  0  0  0
  6  8  1  0  0  0  0
  6 15  2  0  0  0  0
  7  8  1  0  0  0  0
  9 11  2  0  0  0  0
  9 14  1  0  0  0  0
 10 17  1  0  0  0  0
 11 15  1  0  0  0  0
 11 16  1  0  0  0  0
 12 16  1  0  0  0  0
 13 17  1  0  0  0  0
 14 18  1  0  0  0  0
 14 19  1  0  0  0  0
 14 20  1  0  0  0  0
  1 21  1  0  0  0  0
  2 22  1  0  0  0  0
  3 23  1  0  0  0  0
  4 24  1  0  0  0  0
  5 25  1  0  0  0  0
  6 26  1  0  0  0  0
 12 27  1  0  0  0  0
 12 28  1  0  0  0  0
 12 29  1  0  0  0  0
 13 30  1  0  0  0  0
 13 31  1  0  0  0  0
 13 32  1  0  0  0  0
 16 33  1  0  0  0  0
M  END
> <id>
EN300-359504

> <smiles>
CNC=1N=CC(=CC1C(F)(F)F)C=2C=CC=C(OC)C2

> <MDLNUMBER>
MFCD30538101

> <IUPAC Name>
5-(3-methoxyphenyl)-N-methyl-3-(trifluoromethyl)pyridin-2-amine

> <CAS>
2138286-68-5

> <URL>
https://www.enaminestore.com/catalog/EN300-359504

> <ROCS_ShapeQuery>
_x1140_x0812_0A_x1140_0A_x1097_0A_x0365_0A_x1097_0A_x0310_0A

> <ROCS_TanimotoCombo>
0.615 

> <ROCS_ShapeTanimoto>
0.260 

> <ROCS_ColorTanimoto>
0.356 

> <ROCS_RefTversky>
0.234 

> <ROCS_RefColorTversky>
0.435 

> <ROCS_RefTverskyCombo>
0.669 

> <ROCS_FitTversky>
1.712 

> <ROCS_FitColorTversky>
0.662 

> <ROCS_FitTverskyCombo>
2.375 

> <ROCS_ColorScore>
-3.412

> <ROCS_Overlap>
2405.550

> <ROCS_Rank>
297                 

$$$$
untitled-dbase-103657_5
  -OEChem-02092423213D

 31 32  0     0  0  0  0  0  0999 V2000
    6.5911   12.4063   27.3301 C   0  0  0  0  0  0  0  0  0  0  0  0
    7.4540   12.8803   26.3461 C   0  0  0  0  0  0  0  0  0  0  0  0
    6.2581   11.0578   27.3584 C   0  0  0  0  0  0  0  0  0  0  0  0
    8.8577   12.4544   24.3840 C   0  0  0  0  0  0  0  0  0  0  0  0
    7.9869   12.0041   25.3855 C   0  0  0  0  0  0  0  0  0  0  0  0
    7.6530   10.6337   25.4081 C   0  0  0  0  0  0  0  0  0  0  0  0
    9.3670   11.5640   23.4499 C   0  0  0  0  0  0  0  0  0  0  0  0
    6.7881   10.1868   26.4033 C   0  0  0  0  0  0  0  0  0  0  0  0
    8.9830   10.2424   23.5526 C   0  0  0  0  0  0  0  0  0  0  0  0
   11.0163    9.1525   22.5704 C   0  0  0  0  0  0  0  0  0  0  0  0
    5.5483    8.4858   27.5102 C   0  0  0  0  0  0  0  0  0  0  0  0
    9.4928    9.2283   22.5806 C   0  0  0  0  0  0  0  0  0  0  0  0
    8.1458    9.7672   24.5029 N   0  0  0  0  0  0  0  0  0  0  0  0
   11.2745   12.8827   22.7116 N   0  0  0  0  0  0  0  0  0  0  0  0
   10.2404   12.0123   22.4442 N   0  0  0  0  0  0  0  0  0  0  0  0
    6.4366    8.8671   26.4645 O   0  0  0  0  0  0  0  0  0  0  0  0
    6.1814   13.0863   28.0706 H   0  0  0  0  0  0  0  0  0  0  0  0
    7.7083   13.9379   26.3331 H   0  0  0  0  0  0  0  0  0  0  0  0
    5.5846   10.6860   28.1260 H   0  0  0  0  0  0  0  0  0  0  0  0
    9.1373   13.5054   24.3360 H   0  0  0  0  0  0  0  0  0  0  0  0
   11.4575   10.1278   22.3383 H   0  0  0  0  0  0  0  0  0  0  0  0
   11.3618    8.4364   21.8182 H   0  0  0  0  0  0  0  0  0  0  0  0
   11.4010    8.8331   23.5449 H   0  0  0  0  0  0  0  0  0  0  0  0
    5.3490    7.4132   27.4470 H   0  0  0  0  0  0  0  0  0  0  0  0
    4.6147    9.0467   27.4190 H   0  0  0  0  0  0  0  0  0  0  0  0
    6.0141    8.7114   28.4723 H   0  0  0  0  0  0  0  0  0  0  0  0
    9.0826    8.2343   22.8164 H   0  0  0  0  0  0  0  0  0  0  0  0
    9.1351    9.4598   21.5655 H   0  0  0  0  0  0  0  0  0  0  0  0
   11.2976   13.5902   21.9788 H   0  0  0  0  0  0  0  0  0  0  0  0
   12.1541   12.3732   22.6383 H   0  0  0  0  0  0  0  0  0  0  0  0
   10.2380   11.5274   21.5554 H   0  0  0  0  0  0  0  0  0  0  0  0
  1  2  2  0  0  0  0
  1  3  1  0  0  0  0
  2  5  1  0  0  0  0
  3  8  2  0  0  0  0
  4  5  2  0  0  0  0
  4  7  1  0  0  0  0
  5  6  1  0  0  0  0
  6  8  1  0  0  0  0
  6 13  2  0  0  0  0
  7  9  2  0  0  0  0
  7 15  1  0  0  0  0
  8 16  1  0  0  0  0
  9 12  1  0  0  0  0
  9 13  1  0  0  0  0
 10 12  1  0  0  0  0
 11 16  1  0  0  0  0
 14 15  1  0  0  0  0
  1 17  1  0  0  0  0
  2 18  1  0  0  0  0
  3 19  1  0  0  0  0
  4 20  1  0  0  0  0
 10 21  1  0  0  0  0
 10 22  1  0  0  0  0
 10 23  1  0  0  0  0
 11 24  1  0  0  0  0
 11 25  1  0  0  0  0
 11 26  1  0  0  0  0
 12 27  1  0  0  0  0
 12 28  1  0  0  0  0
 14 29  1  0  0  0  0
 14 30  1  0  0  0  0
 15 31  1  0  0  0  0
M  END
> <id>
EN300-801858

> <smiles>
CCC=1N=C2C(OC)=CC=CC2=CC1NN

> <MDLNUMBER>
MFCD31472087

> <IUPAC Name>
2-ethyl-3-hydrazinyl-8-methoxyquinoline

> <CAS>
2137572-04-2

> <URL>
https://www.enaminestore.com/catalog/EN300-801858

> <ROCS_ShapeQuery>
_x1140_x0812_0A_x1140_0A_x1097_0A_x0365_0A_x1097_0A_x0310_0A

> <ROCS_TanimotoCombo>
0.615 

> <ROCS_ShapeTanimoto>
0.256 

> <ROCS_ColorTanimoto>
0.359 

> <ROCS_RefTversky>
0.228 

> <ROCS_RefColorTversky>
0.508 

> <ROCS_RefTverskyCombo>
0.736 

> <ROCS_FitTversky>
1.916 

> <ROCS_FitColorTversky>
0.551 

> <ROCS_FitTverskyCombo>
2.467 

> <ROCS_ColorScore>
-4.043

> <ROCS_Overlap>
2342.756

> <ROCS_Rank>
298                 

$$$$
untitled-dbase-515105_3
  -OEChem-02092423213D

 26 26  0     0  0  0  0  0  0999 V2000
    8.0483   12.0986   24.3336 C   0  0  0  0  0  0  0  0  0  0  0  0
    8.9704   11.5362   23.4851 C   0  0  0  0  0  0  0  0  0  0  0  0
    9.0263   10.1839   23.8724 C   0  0  0  0  0  0  0  0  0  0  0  0
    9.6800   12.2351   22.4550 C   0  0  0  0  0  0  0  0  0  0  0  0
   12.0647   14.3095   22.1079 C   0  0  0  0  0  0  0  0  0  0  0  0
    6.6506   11.1930   26.2060 C   0  0  0  0  0  0  0  0  0  0  0  0
    9.9504    7.8820   23.6032 C   0  0  0  0  0  0  0  0  0  0  0  0
   10.5815   14.3675   21.8102 C   0  0  0  0  0  0  0  0  0  0  0  0
    8.2052    9.9042   24.8881 N   0  0  0  0  0  0  0  0  0  0  0  0
    7.6247   11.0884   25.1462 N   0  0  0  0  0  0  0  0  0  0  0  0
    9.8433    9.2935   23.2509 N   0  0  0  0  0  0  0  0  0  0  0  0
   10.0826   11.7288   21.3849 O   0  0  0  0  0  0  0  0  0  0  0  0
    9.8825   13.5608   22.7643 O   0  0  0  0  0  0  0  0  0  0  0  0
    7.6661   13.1062   24.4273 H   0  0  0  0  0  0  0  0  0  0  0  0
   12.2767   14.6919   23.1102 H   0  0  0  0  0  0  0  0  0  0  0  0
   12.4327   13.2807   22.0368 H   0  0  0  0  0  0  0  0  0  0  0  0
   12.6281   14.9001   21.3779 H   0  0  0  0  0  0  0  0  0  0  0  0
    5.6645   10.9925   25.7788 H   0  0  0  0  0  0  0  0  0  0  0  0
    6.8836   10.4649   26.9880 H   0  0  0  0  0  0  0  0  0  0  0  0
    6.6865   12.1996   26.6318 H   0  0  0  0  0  0  0  0  0  0  0  0
    9.2715    7.6598   24.4397 H   0  0  0  0  0  0  0  0  0  0  0  0
    9.6758    7.2655   22.7345 H   0  0  0  0  0  0  0  0  0  0  0  0
   10.9850    7.6559   23.9008 H   0  0  0  0  0  0  0  0  0  0  0  0
   10.3763   13.9836   20.8064 H   0  0  0  0  0  0  0  0  0  0  0  0
   10.2153   15.3959   21.8824 H   0  0  0  0  0  0  0  0  0  0  0  0
   10.4392    9.6089   22.4764 H   0  0  0  0  0  0  0  0  0  0  0  0
  1  2  2  0  0  0  0
  1 10  1  0  0  0  0
  2  3  1  0  0  0  0
  2  4  1  0  0  0  0
  3  9  2  0  0  0  0
  3 11  1  0  0  0  0
  4 12  2  0  0  0  0
  4 13  1  0  0  0  0
  5  8  1  0  0  0  0
  6 10  1  0  0  0  0
  7 11  1  0  0  0  0
  8 13  1  0  0  0  0
  9 10  1  0  0  0  0
  1 14  1  0  0  0  0
  5 15  1  0  0  0  0
  5 16  1  0  0  0  0
  5 17  1  0  0  0  0
  6 18  1  0  0  0  0
  6 19  1  0  0  0  0
  6 20  1  0  0  0  0
  7 21  1  0  0  0  0
  7 22  1  0  0  0  0
  7 23  1  0  0  0  0
  8 24  1  0  0  0  0
  8 25  1  0  0  0  0
 11 26  1  0  0  0  0
M  END
> <id>
EN300-25100522

> <smiles>
CCOC(=O)C1=CN(C)N=C1NC

> <MDLNUMBER>
MFCD24618523

> <IUPAC Name>
ethyl 1-methyl-3-(methylamino)-1H-pyrazole-4-carboxylate

> <CAS>
1329991-50-5

> <URL>
https://www.enaminestore.com/catalog/EN300-25100522

> <ROCS_ShapeQuery>
_x1140_x0812_0A_x1140_0A_x1097_0A_x0365_0A_x1097_0A_x0310_0A

> <ROCS_TanimotoCombo>
0.615 

> <ROCS_ShapeTanimoto>
0.228 

> <ROCS_ColorTanimoto>
0.387 

> <ROCS_RefTversky>
0.205 

> <ROCS_RefColorTversky>
0.429 

> <ROCS_RefTverskyCombo>
0.635 

> <ROCS_FitTversky>
1.949 

> <ROCS_FitColorTversky>
0.798 

> <ROCS_FitTverskyCombo>
2.747 

> <ROCS_ColorScore>
-3.350

> <ROCS_Overlap>
2103.835

> <ROCS_Rank>
299                 

$$$$
untitled-dbase-315183_2
  -OEChem-02092423213D

 26 26  0     0  0  0  0  0  0999 V2000
    8.9395   12.5330   24.4963 C   0  0  0  0  0  0  0  0  0  0  0  0
    8.1504   11.9558   25.4850 C   0  0  0  0  0  0  0  0  0  0  0  0
    9.3986   11.7555   23.4389 C   0  0  0  0  0  0  0  0  0  0  0  0
    9.0433   10.4165   23.4164 C   0  0  0  0  0  0  0  0  0  0  0  0
    7.8508   10.6078   25.3708 C   0  0  0  0  0  0  0  0  0  0  0  0
   11.2739    9.3388   23.9575 C   0  0  0  0  0  0  0  0  0  0  0  0
   10.4632    7.4505   22.5131 C   0  0  0  0  0  0  0  0  0  0  0  0
   11.6790    9.3870   21.4739 C   0  0  0  0  0  0  0  0  0  0  0  0
   10.7238    8.9535   22.5850 C   0  0  0  0  0  0  0  0  0  0  0  0
    8.2785    9.8205   24.3585 N   0  0  0  0  0  0  0  0  0  0  0  0
   10.1980   12.3261   22.4326 N   0  0  0  0  0  0  0  0  0  0  0  0
    9.4735    9.6166   22.3941 O   0  0  0  0  0  0  0  0  0  0  0  0
    7.0897   10.0386   26.3182 F   0  0  0  0  0  0  0  0  0  0  0  0
    9.1910   13.5884   24.5603 H   0  0  0  0  0  0  0  0  0  0  0  0
    7.7813   12.5437   26.3175 H   0  0  0  0  0  0  0  0  0  0  0  0
   11.4623   10.4169   24.0131 H   0  0  0  0  0  0  0  0  0  0  0  0
   10.5822    9.0647   24.7607 H   0  0  0  0  0  0  0  0  0  0  0  0
   12.2351    8.8469   24.1456 H   0  0  0  0  0  0  0  0  0  0  0  0
   10.0684    7.1696   21.5300 H   0  0  0  0  0  0  0  0  0  0  0  0
    9.7065    7.1500   23.2469 H   0  0  0  0  0  0  0  0  0  0  0  0
   11.3746    6.8730   22.6986 H   0  0  0  0  0  0  0  0  0  0  0  0
   11.2847    9.1107   20.4893 H   0  0  0  0  0  0  0  0  0  0  0  0
   11.8488   10.4685   21.4871 H   0  0  0  0  0  0  0  0  0  0  0  0
   12.6464    8.8813   21.5725 H   0  0  0  0  0  0  0  0  0  0  0  0
   10.3952   13.3082   22.4584 H   0  0  0  0  0  0  0  0  0  0  0  0
   10.4819   11.7647   21.6526 H   0  0  0  0  0  0  0  0  0  0  0  0
  1  2  2  0  0  0  0
  1  3  1  0  0  0  0
  2  5  1  0  0  0  0
  3  4  2  0  0  0  0
  3 11  1  0  0  0  0
  4 10  1  0  0  0  0
  4 12  1  0  0  0  0
  5 10  2  0  0  0  0
  5 13  1  0  0  0  0
  6  9  1  0  0  0  0
  7  9  1  0  0  0  0
  8  9  1  0  0  0  0
  9 12  1  0  0  0  0
  1 14  1  0  0  0  0
  2 15  1  0  0  0  0
  6 16  1  0  0  0  0
  6 17  1  0  0  0  0
  6 18  1  0  0  0  0
  7 19  1  0  0  0  0
  7 20  1  0  0  0  0
  7 21  1  0  0  0  0
  8 22  1  0  0  0  0
  8 23  1  0  0  0  0
  8 24  1  0  0  0  0
 11 25  1  0  0  0  0
 11 26  1  0  0  0  0
M  END
> <id>
EN300-1294866

> <smiles>
CC(C)(C)OC=1N=C(F)C=CC1N

> <IUPAC Name>
2-(tert-butoxy)-6-fluoropyridin-3-amine

> <CAS>
2169032-18-0

> <URL>
https://www.enaminestore.com/catalog/EN300-1294866

> <ROCS_ShapeQuery>
_x1140_x0812_0A_x1140_0A_x1097_0A_x0365_0A_x1097_0A_x0310_0A

> <ROCS_TanimotoCombo>
0.615 

> <ROCS_ShapeTanimoto>
0.216 

> <ROCS_ColorTanimoto>
0.399 

> <ROCS_RefTversky>
0.196 

> <ROCS_RefColorTversky>
0.506 

> <ROCS_RefTverskyCombo>
0.702 

> <ROCS_FitTversky>
1.863 

> <ROCS_FitColorTversky>
0.654 

> <ROCS_FitTverskyCombo>
2.517 

> <ROCS_ColorScore>
-3.997

> <ROCS_Overlap>
2013.487

> <ROCS_Rank>
300                 

$$$$
untitled-dbase-482845_1
  -OEChem-02092423213D

 33 34  0     0  0  0  0  0  0999 V2000
    9.3398   14.3223   23.0649 C   0  0  0  0  0  0  0  0  0  0  0  0
   11.1801   13.2681   24.2220 C   0  0  0  0  0  0  0  0  0  0  0  0
   10.1641   15.3977   22.7336 C   0  0  0  0  0  0  0  0  0  0  0  0
   12.0044   14.3434   23.8907 C   0  0  0  0  0  0  0  0  0  0  0  0
    9.8478   13.2575   23.8091 C   0  0  0  0  0  0  0  0  0  0  0  0
   11.4964   15.4082   23.1465 C   0  0  0  0  0  0  0  0  0  0  0  0
    8.9953   12.1455   24.1517 C   0  0  0  0  0  0  0  0  0  0  0  0
    8.7370   10.9650   23.4870 C   0  0  0  0  0  0  0  0  0  0  0  0
    7.4547   10.6453   25.2373 C   0  0  0  0  0  0  0  0  0  0  0  0
    9.3204   10.5987   22.2251 C   0  0  0  0  0  0  0  0  0  0  0  0
    8.8067    7.5289   20.2533 C   0  0  0  0  0  0  0  0  0  0  0  0
   11.7167   17.5126   22.0606 C   0  0  0  0  0  0  0  0  0  0  0  0
    9.4027    8.8900   20.5428 C   0  0  0  0  0  0  0  0  0  0  0  0
    7.8541   10.1033   24.1082 N   0  0  0  0  0  0  0  0  0  0  0  0
    6.5800   10.0623   26.0991 N   0  0  0  0  0  0  0  0  0  0  0  0
   10.1269   11.2973   21.5785 O   0  0  0  0  0  0  0  0  0  0  0  0
   12.3007   16.4576   22.8233 O   0  0  0  0  0  0  0  0  0  0  0  0
    8.8898    9.3677   21.7912 O   0  0  0  0  0  0  0  0  0  0  0  0
    8.1004   12.1900   25.6141 S   0  0  0  0  0  0  0  0  0  0  0  0
    8.3034   14.3289   22.7356 H   0  0  0  0  0  0  0  0  0  0  0  0
   11.5910   12.4456   24.8027 H   0  0  0  0  0  0  0  0  0  0  0  0
    9.7627   16.2243   22.1537 H   0  0  0  0  0  0  0  0  0  0  0  0
   13.0415   14.3460   24.2152 H   0  0  0  0  0  0  0  0  0  0  0  0
    9.0711    6.8126   21.0362 H   0  0  0  0  0  0  0  0  0  0  0  0
    7.7156    7.5917   20.1855 H   0  0  0  0  0  0  0  0  0  0  0  0
    9.1640    7.1480   19.2908 H   0  0  0  0  0  0  0  0  0  0  0  0
   12.4662   18.2850   21.8722 H   0  0  0  0  0  0  0  0  0  0  0  0
   10.8719   17.9358   22.6098 H   0  0  0  0  0  0  0  0  0  0  0  0
   11.3645   17.1097   21.1081 H   0  0  0  0  0  0  0  0  0  0  0  0
    9.1344    9.6015   19.7561 H   0  0  0  0  0  0  0  0  0  0  0  0
   10.4927    8.8253   20.6111 H   0  0  0  0  0  0  0  0  0  0  0  0
    6.1350    9.1622   25.8886 H   0  0  0  0  0  0  0  0  0  0  0  0
    6.2588   10.5418   26.9472 H   0  0  0  0  0  0  0  0  0  0  0  0
  1  3  2  0  0  0  0
  1  5  1  0  0  0  0
  2  4  1  0  0  0  0
  2  5  2  0  0  0  0
  3  6  1  0  0  0  0
  4  6  2  0  0  0  0
  5  7  1  0  0  0  0
  6 17  1  0  0  0  0
  7  8  2  0  0  0  0
  7 19  1  0  0  0  0
  8 10  1  0  0  0  0
  8 14  1  0  0  0  0
  9 14  2  0  0  0  0
  9 15  1  0  0  0  0
  9 19  1  0  0  0  0
 10 16  2  0  0  0  0
 10 18  1  0  0  0  0
 11 13  1  0  0  0  0
 12 17  1  0  0  0  0
 13 18  1  0  0  0  0
  1 20  1  0  0  0  0
  2 21  1  0  0  0  0
  3 22  1  0  0  0  0
  4 23  1  0  0  0  0
 11 24  1  0  0  0  0
 11 25  1  0  0  0  0
 11 26  1  0  0  0  0
 12 27  1  0  0  0  0
 12 28  1  0  0  0  0
 12 29  1  0  0  0  0
 13 30  1  0  0  0  0
 13 31  1  0  0  0  0
 15 32  1  0  0  0  0
 15 33  1  0  0  0  0
M  END
> <id>
EN300-18890071

> <smiles>
CCOC(=O)C=1N=C(N)SC1C=2C=CC(OC)=CC2

> <MDLNUMBER>
MFCD18455192

> <IUPAC Name>
ethyl 2-amino-5-(4-methoxyphenyl)-1,3-thiazole-4-carboxylate

> <CAS>
1269469-26-2

> <URL>
https://www.enaminestore.com/catalog/EN300-18890071

> <ROCS_ShapeQuery>
_x1140_x0812_0A_x1140_0A_x1097_0A_x0365_0A_x1097_0A_x0310_0A

> <ROCS_TanimotoCombo>
0.615 

> <ROCS_ShapeTanimoto>
0.218 

> <ROCS_ColorTanimoto>
0.397 

> <ROCS_RefTversky>
0.202 

> <ROCS_RefColorTversky>
0.536 

> <ROCS_RefTverskyCombo>
0.739 

> <ROCS_FitTversky>
1.558 

> <ROCS_FitColorTversky>
0.604 

> <ROCS_FitTverskyCombo>
2.162 

> <ROCS_ColorScore>
-4.265

> <ROCS_Overlap>
2076.183

> <ROCS_Rank>
301                 

$$$$
untitled-dbase-506816_8
  -OEChem-02092423213D

 31 31  0     0  0  0  0  0  0999 V2000
    7.5733   11.8857   25.1234 C   0  0  0  0  0  0  0  0  0  0  0  0
    8.5382   12.5014   24.3339 C   0  0  0  0  0  0  0  0  0  0  0  0
    9.4556   11.7248   23.6350 C   0  0  0  0  0  0  0  0  0  0  0  0
    7.5683   10.5013   25.1798 C   0  0  0  0  0  0  0  0  0  0  0  0
    9.3665   10.3476   23.7582 C   0  0  0  0  0  0  0  0  0  0  0  0
   10.6390   12.2104   21.4729 C   0  0  0  0  0  0  0  0  0  0  0  0
    8.5623   13.9934   24.2582 C   0  0  0  0  0  0  0  0  0  0  0  0
    9.9700   14.4548   20.2940 C   0  0  0  0  0  0  0  0  0  0  0  0
   12.3751   15.1720   20.3952 C   0  0  0  0  0  0  0  0  0  0  0  0
   11.6594   13.4262   18.7374 C   0  0  0  0  0  0  0  0  0  0  0  0
   11.4222   14.0085   20.1301 C   0  0  0  0  0  0  0  0  0  0  0  0
    8.4431    9.7135   24.5153 N   0  0  0  0  0  0  0  0  0  0  0  0
   10.4368   12.3500   22.8322 N   0  0  0  0  0  0  0  0  0  0  0  0
   10.0066   11.5139   20.6884 O   0  0  0  0  0  0  0  0  0  0  0  0
   11.6987   12.9965   21.0991 O   0  0  0  0  0  0  0  0  0  0  0  0
    6.4149    9.6556   26.1275 Cl  0  0  0  0  0  0  0  0  0  0  0  0
   10.7043    9.0665   22.7450 I   0  0  0  0  0  0  0  0  0  0  0  0
    6.8482   12.4745   25.6766 H   0  0  0  0  0  0  0  0  0  0  0  0
    9.2074   14.4026   25.0439 H   0  0  0  0  0  0  0  0  0  0  0  0
    8.9362   14.3342   23.2851 H   0  0  0  0  0  0  0  0  0  0  0  0
    7.5555   14.4119   24.3783 H   0  0  0  0  0  0  0  0  0  0  0  0
    9.2828   13.6224   20.1045 H   0  0  0  0  0  0  0  0  0  0  0  0
    9.7781   14.8421   21.2999 H   0  0  0  0  0  0  0  0  0  0  0  0
    9.7168   15.2360   19.5682 H   0  0  0  0  0  0  0  0  0  0  0  0
   13.4182   14.8563   20.2788 H   0  0  0  0  0  0  0  0  0  0  0  0
   12.2747   15.5317   21.4256 H   0  0  0  0  0  0  0  0  0  0  0  0
   12.1886   16.0099   19.7157 H   0  0  0  0  0  0  0  0  0  0  0  0
   12.7010   13.1061   18.6196 H   0  0  0  0  0  0  0  0  0  0  0  0
   11.0096   12.5667   18.5436 H   0  0  0  0  0  0  0  0  0  0  0  0
   11.4786   14.1810   17.9636 H   0  0  0  0  0  0  0  0  0  0  0  0
   11.0724   12.9805   23.3151 H   0  0  0  0  0  0  0  0  0  0  0  0
  1  2  1  0  0  0  0
  1  4  2  0  0  0  0
  2  3  2  0  0  0  0
  2  7  1  0  0  0  0
  3  5  1  0  0  0  0
  3 13  1  0  0  0  0
  4 12  1  0  0  0  0
  4 16  1  0  0  0  0
  5 12  2  0  0  0  0
  5 17  1  0  0  0  0
  6 13  1  0  0  0  0
  6 14  2  0  0  0  0
  6 15  1  0  0  0  0
  8 11  1  0  0  0  0
  9 11  1  0  0  0  0
 10 11  1  0  0  0  0
 11 15  1  0  0  0  0
  1 18  1  0  0  0  0
  7 19  1  0  0  0  0
  7 20  1  0  0  0  0
  7 21  1  0  0  0  0
  8 22  1  0  0  0  0
  8 23  1  0  0  0  0
  8 24  1  0  0  0  0
  9 25  1  0  0  0  0
  9 26  1  0  0  0  0
  9 27  1  0  0  0  0
 10 28  1  0  0  0  0
 10 29  1  0  0  0  0
 10 30  1  0  0  0  0
 13 31  1  0  0  0  0
M  END
> <id>
EN300-28300713

> <smiles>
CC=1C=C(Cl)N=C(I)C1NC(=O)OC(C)(C)C

> <IUPAC Name>
tert-butyl N-(6-chloro-2-iodo-4-methylpyridin-3-yl)carbamate

> <CAS>
2680677-90-9

> <URL>
https://www.enaminestore.com/catalog/EN300-28300713

> <ROCS_ShapeQuery>
_x1140_x0812_0A_x1140_0A_x1097_0A_x0365_0A_x1097_0A_x0310_0A

> <ROCS_TanimotoCombo>
0.615 

> <ROCS_ShapeTanimoto>
0.224 

> <ROCS_ColorTanimoto>
0.391 

> <ROCS_RefTversky>
0.205 

> <ROCS_RefColorTversky>
0.498 

> <ROCS_RefTverskyCombo>
0.703 

> <ROCS_FitTversky>
1.719 

> <ROCS_FitColorTversky>
0.645 

> <ROCS_FitTverskyCombo>
2.364 

> <ROCS_ColorScore>
-3.933

> <ROCS_Overlap>
2104.749

> <ROCS_Rank>
302                 

$$$$
untitled-dbase-347437_8
  -OEChem-02092423213D

 27 28  0     0  0  0  0  0  0999 V2000
   11.8596   15.2107   22.3273 C   0  0  0  0  0  0  0  0  0  0  0  0
    8.4664   11.9625   24.4679 C   0  0  0  0  0  0  0  0  0  0  0  0
    9.1795   11.3809   23.4492 C   0  0  0  0  0  0  0  0  0  0  0  0
    7.9201   10.8726   25.1860 C   0  0  0  0  0  0  0  0  0  0  0  0
    9.9503   11.9856   22.4119 C   0  0  0  0  0  0  0  0  0  0  0  0
    8.2637   13.3828   24.8459 C   0  0  0  0  0  0  0  0  0  0  0  0
    7.0410   11.0253   26.3739 C   0  0  0  0  0  0  0  0  0  0  0  0
    7.0923   13.5254   25.8364 C   0  0  0  0  0  0  0  0  0  0  0  0
    7.1323   12.4542   26.9428 C   0  0  0  0  0  0  0  0  0  0  0  0
   11.3621   13.9717   21.7323 C   0  0  0  0  0  0  0  0  0  0  0  0
   12.2566   16.1949   22.7967 N   0  0  0  0  0  0  0  0  0  0  0  0
    8.2522    9.6906   24.6616 N   0  0  0  0  0  0  0  0  0  0  0  0
    9.0195   10.0332   23.6091 N   0  0  0  0  0  0  0  0  0  0  0  0
   10.5700   13.2255   22.6834 N   0  0  0  0  0  0  0  0  0  0  0  0
   10.0649   11.4509   21.2790 O   0  0  0  0  0  0  0  0  0  0  0  0
    9.1809   13.7591   25.3150 H   0  0  0  0  0  0  0  0  0  0  0  0
    8.0705   13.9979   23.9601 H   0  0  0  0  0  0  0  0  0  0  0  0
    6.0055   10.8202   26.0763 H   0  0  0  0  0  0  0  0  0  0  0  0
    7.3095   10.3024   27.1523 H   0  0  0  0  0  0  0  0  0  0  0  0
    7.1137   14.5256   26.2836 H   0  0  0  0  0  0  0  0  0  0  0  0
    6.1426   13.4383   25.2928 H   0  0  0  0  0  0  0  0  0  0  0  0
    6.3108   12.6172   27.6497 H   0  0  0  0  0  0  0  0  0  0  0  0
    8.0672   12.5630   27.5077 H   0  0  0  0  0  0  0  0  0  0  0  0
   10.7293   14.1777   20.8643 H   0  0  0  0  0  0  0  0  0  0  0  0
   12.1873   13.3290   21.4128 H   0  0  0  0  0  0  0  0  0  0  0  0
    9.4055    9.2906   23.0393 H   0  0  0  0  0  0  0  0  0  0  0  0
   10.4043   13.6582   23.5862 H   0  0  0  0  0  0  0  0  0  0  0  0
  1 10  1  0  0  0  0
  1 11  3  0  0  0  0
  2  3  2  0  0  0  0
  2  4  1  0  0  0  0
  2  6  1  0  0  0  0
  3  5  1  0  0  0  0
  3 13  1  0  0  0  0
  4  7  1  0  0  0  0
  4 12  2  0  0  0  0
  5 14  1  0  0  0  0
  5 15  2  0  0  0  0
  6  8  1  0  0  0  0
  7  9  1  0  0  0  0
  8  9  1  0  0  0  0
 10 14  1  0  0  0  0
 12 13  1  0  0  0  0
  6 16  1  0  0  0  0
  6 17  1  0  0  0  0
  7 18  1  0  0  0  0
  7 19  1  0  0  0  0
  8 20  1  0  0  0  0
  8 21  1  0  0  0  0
  9 22  1  0  0  0  0
  9 23  1  0  0  0  0
 10 24  1  0  0  0  0
 10 25  1  0  0  0  0
 13 26  1  0  0  0  0
 14 27  1  0  0  0  0
M  END
> <id>
EN300-26687480

> <smiles>
O=C(NCC#N)C=1NN=C2CCCCC12

> <IUPAC Name>
N-(cyanomethyl)-4,5,6,7-tetrahydro-2H-indazole-3-carboxamide

> <CAS>
2158700-75-3

> <URL>
https://www.enaminestore.com/catalog/EN300-26687480

> <ROCS_ShapeQuery>
_x1140_x0812_0A_x1140_0A_x1097_0A_x0365_0A_x1097_0A_x0310_0A

> <ROCS_TanimotoCombo>
0.615 

> <ROCS_ShapeTanimoto>
0.241 

> <ROCS_ColorTanimoto>
0.374 

> <ROCS_RefTversky>
0.216 

> <ROCS_RefColorTversky>
0.514 

> <ROCS_RefTverskyCombo>
0.731 

> <ROCS_FitTversky>
1.896 

> <ROCS_FitColorTversky>
0.579 

> <ROCS_FitTverskyCombo>
2.474 

> <ROCS_ColorScore>
-4.090

> <ROCS_Overlap>
2218.253

> <ROCS_Rank>
303                 

$$$$
untitled-dbase-170730_7
  -OEChem-02092423213D

 28 29  0     0  0  0  0  0  0999 V2000
    5.8428   12.5729   26.8466 C   0  0  0  0  0  0  0  0  0  0  0  0
    5.7464   11.2153   27.1257 C   0  0  0  0  0  0  0  0  0  0  0  0
    6.7379   13.0128   25.8757 C   0  0  0  0  0  0  0  0  0  0  0  0
    6.5446   10.3012   26.4337 C   0  0  0  0  0  0  0  0  0  0  0  0
    8.4499   12.5085   24.1975 C   0  0  0  0  0  0  0  0  0  0  0  0
    7.5407   12.0931   25.1797 C   0  0  0  0  0  0  0  0  0  0  0  0
    9.2284   11.5755   23.5279 C   0  0  0  0  0  0  0  0  0  0  0  0
    7.4479   10.7132   25.4577 C   0  0  0  0  0  0  0  0  0  0  0  0
    9.0674   10.2478   23.8685 C   0  0  0  0  0  0  0  0  0  0  0  0
   10.1683   12.0237   22.5099 C   0  0  0  0  0  0  0  0  0  0  0  0
   12.8512   13.3198   21.4523 C   0  0  0  0  0  0  0  0  0  0  0  0
   11.6234   13.8762   22.1414 C   0  0  0  0  0  0  0  0  0  0  0  0
    8.2021    9.8055   24.8096 N   0  0  0  0  0  0  0  0  0  0  0  0
    9.8553    9.2814   23.1943 N   0  0  0  0  0  0  0  0  0  0  0  0
   10.1330   11.6731   21.3240 O   0  0  0  0  0  0  0  0  0  0  0  0
   11.0966   12.8836   23.0285 O   0  0  0  0  0  0  0  0  0  0  0  0
    5.2242   13.2865   27.3823 H   0  0  0  0  0  0  0  0  0  0  0  0
    5.0507   10.8633   27.8819 H   0  0  0  0  0  0  0  0  0  0  0  0
    6.8056   14.0779   25.6650 H   0  0  0  0  0  0  0  0  0  0  0  0
    6.4500    9.2430   26.6710 H   0  0  0  0  0  0  0  0  0  0  0  0
    8.5476   13.5658   23.9574 H   0  0  0  0  0  0  0  0  0  0  0  0
   13.6231   13.0585   22.1814 H   0  0  0  0  0  0  0  0  0  0  0  0
   12.5967   12.4272   20.8715 H   0  0  0  0  0  0  0  0  0  0  0  0
   13.2630   14.0507   20.7485 H   0  0  0  0  0  0  0  0  0  0  0  0
   10.8554   14.1355   21.4066 H   0  0  0  0  0  0  0  0  0  0  0  0
   11.8796   14.7675   22.7219 H   0  0  0  0  0  0  0  0  0  0  0  0
   10.4646    9.5817   22.4651 H   0  0  0  0  0  0  0  0  0  0  0  0
    9.7125    8.3168   23.3998 H   0  0  0  0  0  0  0  0  0  0  0  0
  1  2  1  0  0  0  0
  1  3  2  0  0  0  0
  2  4  2  0  0  0  0
  3  6  1  0  0  0  0
  4  8  1  0  0  0  0
  5  6  2  0  0  0  0
  5  7  1  0  0  0  0
  6  8  1  0  0  0  0
  7  9  2  0  0  0  0
  7 10  1  0  0  0  0
  8 13  2  0  0  0  0
  9 13  1  0  0  0  0
  9 14  1  0  0  0  0
 10 15  2  0  0  0  0
 10 16  1  0  0  0  0
 11 12  1  0  0  0  0
 12 16  1  0  0  0  0
  1 17  1  0  0  0  0
  2 18  1  0  0  0  0
  3 19  1  0  0  0  0
  4 20  1  0  0  0  0
  5 21  1  0  0  0  0
 11 22  1  0  0  0  0
 11 23  1  0  0  0  0
 11 24  1  0  0  0  0
 12 25  1  0  0  0  0
 12 26  1  0  0  0  0
 14 27  1  0  0  0  0
 14 28  1  0  0  0  0
M  END
> <id>
EN300-1081173

> <smiles>
CCOC(=O)C=1C=C2C=CC=CC2=NC1N

> <MDLNUMBER>
MFCD01110555

> <IUPAC Name>
ethyl 2-aminoquinoline-3-carboxylate

> <CAS>
36926-83-7

> <Purity>
95

> <URL>
https://www.enaminestore.com/catalog/EN300-1081173

> <ROCS_ShapeQuery>
_x1140_x0812_0A_x1140_0A_x1097_0A_x0365_0A_x1097_0A_x0310_0A

> <ROCS_TanimotoCombo>
0.615 

> <ROCS_ShapeTanimoto>
0.279 

> <ROCS_ColorTanimoto>
0.336 

> <ROCS_RefTversky>
0.244 

> <ROCS_RefColorTversky>
0.447 

> <ROCS_RefTverskyCombo>
0.691 

> <ROCS_FitTversky>
2.036 

> <ROCS_FitColorTversky>
0.577 

> <ROCS_FitTverskyCombo>
2.613 

> <ROCS_ColorScore>
-3.528

> <ROCS_Overlap>
2503.184

> <ROCS_Rank>
304                 

$$$$
untitled-dbase-538682_4
  -OEChem-02092423213D

 34 35  0     0  0  0  0  0  0999 V2000
   10.0329   10.7238   22.4251 C   0  0  0  0  0  0  0  0  0  0  0  0
    6.2760   11.0030   24.9632 C   0  0  0  0  0  0  0  0  0  0  0  0
    7.3089   10.5088   26.7005 C   0  0  0  0  0  0  0  0  0  0  0  0
    8.6742   10.1286   24.4837 C   0  0  0  0  0  0  0  0  0  0  0  0
    9.0452   12.4607   23.8928 C   0  0  0  0  0  0  0  0  0  0  0  0
    7.7885   11.0471   25.3295 C   0  0  0  0  0  0  0  0  0  0  0  0
    8.4635   12.4017   25.2827 C   0  0  0  0  0  0  0  0  0  0  0  0
    9.7949    8.2806   22.7486 C   0  0  0  0  0  0  0  0  0  0  0  0
   11.7806    9.4914   23.6898 C   0  0  0  0  0  0  0  0  0  0  0  0
   11.5616    9.1849   21.2136 C   0  0  0  0  0  0  0  0  0  0  0  0
   10.7910    9.4237   22.5190 C   0  0  0  0  0  0  0  0  0  0  0  0
    6.0990    9.9920   26.0276 N   0  0  0  0  0  0  0  0  0  0  0  0
    9.2887   11.0665   23.5428 N   0  0  0  0  0  0  0  0  0  0  0  0
   10.0924   11.4064   21.4009 O   0  0  0  0  0  0  0  0  0  0  0  0
    7.6048   13.4125   25.5201 F   0  0  0  0  0  0  0  0  0  0  0  0
    9.4467   12.4570   26.2108 F   0  0  0  0  0  0  0  0  0  0  0  0
    5.7228   11.9303   25.1547 H   0  0  0  0  0  0  0  0  0  0  0  0
    6.0267   10.6539   23.9569 H   0  0  0  0  0  0  0  0  0  0  0  0
    7.9351    9.7418   27.1647 H   0  0  0  0  0  0  0  0  0  0  0  0
    7.0963   11.2867   27.4441 H   0  0  0  0  0  0  0  0  0  0  0  0
    9.4782    9.6811   25.0777 H   0  0  0  0  0  0  0  0  0  0  0  0
    8.1283    9.3435   23.9533 H   0  0  0  0  0  0  0  0  0  0  0  0
    8.3337   12.8687   23.1671 H   0  0  0  0  0  0  0  0  0  0  0  0
    9.9765   13.0324   23.8405 H   0  0  0  0  0  0  0  0  0  0  0  0
   10.3053    7.3130   22.8232 H   0  0  0  0  0  0  0  0  0  0  0  0
    9.2318    8.4304   23.6768 H   0  0  0  0  0  0  0  0  0  0  0  0
    9.0700    8.2098   21.9290 H   0  0  0  0  0  0  0  0  0  0  0  0
   12.3509    8.5602   23.7883 H   0  0  0  0  0  0  0  0  0  0  0  0
   11.2638    9.6654   24.6411 H   0  0  0  0  0  0  0  0  0  0  0  0
   12.5005   10.3060   23.5494 H   0  0  0  0  0  0  0  0  0  0  0  0
   12.1255    8.2453   21.2479 H   0  0  0  0  0  0  0  0  0  0  0  0
   12.2761    9.9927   21.0152 H   0  0  0  0  0  0  0  0  0  0  0  0
   10.8786    9.1312   20.3580 H   0  0  0  0  0  0  0  0  0  0  0  0
    5.2381   10.0800   26.5644 H   0  0  0  0  0  0  0  0  0  0  0  0
  1 11  1  0  0  0  0
  1 13  1  0  0  0  0
  1 14  2  0  0  0  0
  2  6  1  0  0  0  0
  2 12  1  0  0  0  0
  3  6  1  0  0  0  0
  3 12  1  0  0  0  0
  4  6  1  0  0  0  0
  4 13  1  0  0  0  0
  5  7  1  0  0  0  0
  5 13  1  0  0  0  0
  6  7  1  0  0  0  0
  7 15  1  0  0  0  0
  7 16  1  0  0  0  0
  8 11  1  0  0  0  0
  9 11  1  0  0  0  0
 10 11  1  0  0  0  0
  2 17  1  0  0  0  0
  2 18  1  0  0  0  0
  3 19  1  0  0  0  0
  3 20  1  0  0  0  0
  4 21  1  0  0  0  0
  4 22  1  0  0  0  0
  5 23  1  0  0  0  0
  5 24  1  0  0  0  0
  8 25  1  0  0  0  0
  8 26  1  0  0  0  0
  8 27  1  0  0  0  0
  9 28  1  0  0  0  0
  9 29  1  0  0  0  0
  9 30  1  0  0  0  0
 10 31  1  0  0  0  0
 10 32  1  0  0  0  0
 10 33  1  0  0  0  0
 12 34  1  0  0  0  0
M  END
> <id>
EN300-766959

> <smiles>
CC(C)(C)C(=O)N1CC2(CNC2)C(F)(F)C1

> <MDLNUMBER>
MFCD31459449

> <IUPAC Name>
1-{8,8-difluoro-2,6-diazaspiro[3.4]octan-6-yl}-2,2-dimethylpropan-1-one

> <CAS>
2137758-28-0

> <URL>
https://www.enaminestore.com/catalog/EN300-766959

> <ROCS_ShapeQuery>
_x1140_x0812_0A_x1140_0A_x1097_0A_x0365_0A_x1097_0A_x0310_0A

> <ROCS_TanimotoCombo>
0.615 

> <ROCS_ShapeTanimoto>
0.239 

> <ROCS_ColorTanimoto>
0.376 

> <ROCS_RefTversky>
0.215 

> <ROCS_RefColorTversky>
0.485 

> <ROCS_RefTverskyCombo>
0.700 

> <ROCS_FitTversky>
1.816 

> <ROCS_FitColorTversky>
0.627 

> <ROCS_FitTverskyCombo>
2.443 

> <ROCS_ColorScore>
-3.832

> <ROCS_Overlap>
2209.478

> <ROCS_Rank>
305                 

$$$$
untitled-dbase-289248_2
  -OEChem-02092423213D

 19 19  0     0  0  0  0  0  0999 V2000
    7.5421   12.0897   25.2020 C   0  0  0  0  0  0  0  0  0  0  0  0
    9.2168   11.5944   23.5484 C   0  0  0  0  0  0  0  0  0  0  0  0
    8.4380   12.5224   24.2307 C   0  0  0  0  0  0  0  0  0  0  0  0
    9.0630   10.2559   23.8718 C   0  0  0  0  0  0  0  0  0  0  0  0
    7.4632   10.7290   25.4512 C   0  0  0  0  0  0  0  0  0  0  0  0
   10.1675   12.0137   22.5220 C   0  0  0  0  0  0  0  0  0  0  0  0
   12.1015   13.3429   22.1207 C   0  0  0  0  0  0  0  0  0  0  0  0
    8.2033    9.7977   24.8090 N   0  0  0  0  0  0  0  0  0  0  0  0
    9.8514    9.3001   23.1829 N   0  0  0  0  0  0  0  0  0  0  0  0
   10.1219   11.6492   21.3432 O   0  0  0  0  0  0  0  0  0  0  0  0
   11.1101   12.8597   23.0335 O   0  0  0  0  0  0  0  0  0  0  0  0
    8.5488   14.2150   23.9064 Cl  0  0  0  0  0  0  0  0  0  0  0  0
    6.3860   10.1039   26.6319 Cl  0  0  0  0  0  0  0  0  0  0  0  0
    6.9224   12.7939   25.7488 H   0  0  0  0  0  0  0  0  0  0  0  0
   12.7918   14.0054   22.6486 H   0  0  0  0  0  0  0  0  0  0  0  0
   11.6145   13.8822   21.3044 H   0  0  0  0  0  0  0  0  0  0  0  0
   12.6549   12.4930   21.7143 H   0  0  0  0  0  0  0  0  0  0  0  0
   10.4572    9.6112   22.4554 H   0  0  0  0  0  0  0  0  0  0  0  0
    9.7121    8.3327   23.3771 H   0  0  0  0  0  0  0  0  0  0  0  0
  1  3  1  0  0  0  0
  1  5  2  0  0  0  0
  2  3  2  0  0  0  0
  2  4  1  0  0  0  0
  2  6  1  0  0  0  0
  3 12  1  0  0  0  0
  4  8  2  0  0  0  0
  4  9  1  0  0  0  0
  5  8  1  0  0  0  0
  5 13  1  0  0  0  0
  6 10  2  0  0  0  0
  6 11  1  0  0  0  0
  7 11  1  0  0  0  0
  1 14  1  0  0  0  0
  7 15  1  0  0  0  0
  7 16  1  0  0  0  0
  7 17  1  0  0  0  0
  9 18  1  0  0  0  0
  9 19  1  0  0  0  0
M  END
> <id>
EN300-2008361

> <smiles>
COC(=O)C=1C(N)=NC(Cl)=CC1Cl

> <MDLNUMBER>
MFCD16660199

> <IUPAC Name>
methyl 2-amino-4,6-dichloropyridine-3-carboxylate

> <CAS>
1044872-40-3

> <URL>
https://www.enaminestore.com/catalog/EN300-2008361

> <ROCS_ShapeQuery>
_x1140_x0812_0A_x1140_0A_x1097_0A_x0365_0A_x1097_0A_x0310_0A

> <ROCS_TanimotoCombo>
0.615 

> <ROCS_ShapeTanimoto>
0.239 

> <ROCS_ColorTanimoto>
0.376 

> <ROCS_RefTversky>
0.213 

> <ROCS_RefColorTversky>
0.453 

> <ROCS_RefTverskyCombo>
0.666 

> <ROCS_FitTversky>
2.043 

> <ROCS_FitColorTversky>
0.689 

> <ROCS_FitTverskyCombo>
2.732 

> <ROCS_ColorScore>
-3.554

> <ROCS_Overlap>
2183.492

> <ROCS_Rank>
306                 

$$$$
untitled-dbase-103960_0
  -OEChem-02092423213D

 30 31  0     0  0  0  0  0  0999 V2000
    5.7708   12.1630   26.4322 C   0  0  0  0  0  0  0  0  0  0  0  0
    5.7897   10.7905   26.6470 C   0  0  0  0  0  0  0  0  0  0  0  0
    6.6811   12.7323   25.5464 C   0  0  0  0  0  0  0  0  0  0  0  0
    6.7182    9.9908   25.9760 C   0  0  0  0  0  0  0  0  0  0  0  0
    8.5425   12.4746   23.9746 C   0  0  0  0  0  0  0  0  0  0  0  0
    7.6149   11.9277   24.8716 C   0  0  0  0  0  0  0  0  0  0  0  0
    7.6397   10.5335   25.0847 C   0  0  0  0  0  0  0  0  0  0  0  0
    9.4517   11.6532   23.3238 C   0  0  0  0  0  0  0  0  0  0  0  0
    9.3995   10.3013   23.5966 C   0  0  0  0  0  0  0  0  0  0  0  0
   11.8302    9.7302   23.2630 C   0  0  0  0  0  0  0  0  0  0  0  0
   10.1940    9.4145   21.3765 C   0  0  0  0  0  0  0  0  0  0  0  0
   10.1941    7.8589   23.3159 C   0  0  0  0  0  0  0  0  0  0  0  0
   10.3517    9.3655   22.9272 C   0  0  0  0  0  0  0  0  0  0  0  0
    8.5210    9.7339   24.4546 N   0  0  0  0  0  0  0  0  0  0  0  0
   10.3513   12.1785   22.4547 O   0  0  0  0  0  0  0  0  0  0  0  0
    5.0507   12.7877   26.9515 H   0  0  0  0  0  0  0  0  0  0  0  0
    5.0831   10.3377   27.3365 H   0  0  0  0  0  0  0  0  0  0  0  0
    6.6579   13.8080   25.3849 H   0  0  0  0  0  0  0  0  0  0  0  0
    6.7125    8.9183   26.1621 H   0  0  0  0  0  0  0  0  0  0  0  0
    8.5558   13.5455   23.7824 H   0  0  0  0  0  0  0  0  0  0  0  0
   12.5507    9.0575   22.7833 H   0  0  0  0  0  0  0  0  0  0  0  0
   12.0770   10.7471   22.9386 H   0  0  0  0  0  0  0  0  0  0  0  0
   11.9972    9.6807   24.3456 H   0  0  0  0  0  0  0  0  0  0  0  0
   10.8902    8.7298   20.8799 H   0  0  0  0  0  0  0  0  0  0  0  0
    9.1852    9.1409   21.0456 H   0  0  0  0  0  0  0  0  0  0  0  0
   10.4045   10.4243   21.0050 H   0  0  0  0  0  0  0  0  0  0  0  0
   10.9142    7.2129   22.7993 H   0  0  0  0  0  0  0  0  0  0  0  0
   10.3472    7.7149   24.3919 H   0  0  0  0  0  0  0  0  0  0  0  0
    9.1927    7.4926   23.0612 H   0  0  0  0  0  0  0  0  0  0  0  0
   10.2396   13.1419   22.3895 H   0  0  0  0  0  0  0  0  0  0  0  0
  1  2  1  0  0  0  0
  1  3  2  0  0  0  0
  2  4  2  0  0  0  0
  3  6  1  0  0  0  0
  4  7  1  0  0  0  0
  5  6  2  0  0  0  0
  5  8  1  0  0  0  0
  6  7  1  0  0  0  0
  7 14  2  0  0  0  0
  8  9  2  0  0  0  0
  8 15  1  0  0  0  0
  9 13  1  0  0  0  0
  9 14  1  0  0  0  0
 10 13  1  0  0  0  0
 11 13  1  0  0  0  0
 12 13  1  0  0  0  0
  1 16  1  0  0  0  0
  2 17  1  0  0  0  0
  3 18  1  0  0  0  0
  4 19  1  0  0  0  0
  5 20  1  0  0  0  0
 10 21  1  0  0  0  0
 10 22  1  0  0  0  0
 10 23  1  0  0  0  0
 11 24  1  0  0  0  0
 11 25  1  0  0  0  0
 11 26  1  0  0  0  0
 12 27  1  0  0  0  0
 12 28  1  0  0  0  0
 12 29  1  0  0  0  0
 15 30  1  0  0  0  0
M  END
> <id>
EN300-801013

> <smiles>
CC(C)(C)C=1N=C2C=CC=CC2=CC1O

> <MDLNUMBER>
MFCD29081228

> <IUPAC Name>
2-tert-butylquinolin-3-ol

> <CAS>
1446492-66-5

> <URL>
https://www.enaminestore.com/catalog/EN300-801013

> <ROCS_ShapeQuery>
_x1140_x0812_0A_x1140_0A_x1097_0A_x0365_0A_x1097_0A_x0310_0A

> <ROCS_TanimotoCombo>
0.615 

> <ROCS_ShapeTanimoto>
0.267 

> <ROCS_ColorTanimoto>
0.347 

> <ROCS_RefTversky>
0.235 

> <ROCS_RefColorTversky>
0.457 

> <ROCS_RefTverskyCombo>
0.692 

> <ROCS_FitTversky>
2.044 

> <ROCS_FitColorTversky>
0.591 

> <ROCS_FitTverskyCombo>
2.635 

> <ROCS_ColorScore>
-3.612

> <ROCS_Overlap>
2413.280

> <ROCS_Rank>
307                 

$$$$
untitled-dbase-377802_9
  -OEChem-02092423213D

 24 24  0     0  0  0  0  0  0999 V2000
    7.9568   10.9506   25.3494 C   0  0  0  0  0  0  0  0  0  0  0  0
    9.0898   11.5690   23.5300 C   0  0  0  0  0  0  0  0  0  0  0  0
    8.4959   12.0493   24.7216 C   0  0  0  0  0  0  0  0  0  0  0  0
    8.8714   10.2111   23.5148 C   0  0  0  0  0  0  0  0  0  0  0  0
    9.7868   12.3053   22.5159 C   0  0  0  0  0  0  0  0  0  0  0  0
   12.5830   13.7346   22.0234 C   0  0  0  0  0  0  0  0  0  0  0  0
    9.2257    9.1393   22.5717 C   0  0  0  0  0  0  0  0  0  0  0  0
   11.1564   14.2350   22.1023 C   0  0  0  0  0  0  0  0  0  0  0  0
    8.4562   13.4422   25.2039 C   0  0  0  0  0  0  0  0  0  0  0  0
    9.8284   12.0007   21.3045 O   0  0  0  0  0  0  0  0  0  0  0  0
    8.1814    9.8261   24.6203 O   0  0  0  0  0  0  0  0  0  0  0  0
   10.4248   13.4152   23.0199 O   0  0  0  0  0  0  0  0  0  0  0  0
    7.7788   13.5439   26.3846 F   0  0  0  0  0  0  0  0  0  0  0  0
    7.7985   14.2560   24.3273 F   0  0  0  0  0  0  0  0  0  0  0  0
   11.1320    8.7372   22.6977 Br  0  0  0  0  0  0  0  0  0  0  0  0
    7.4113   10.8067   26.2710 H   0  0  0  0  0  0  0  0  0  0  0  0
   13.0693   13.7861   23.0015 H   0  0  0  0  0  0  0  0  0  0  0  0
   12.6097   12.6988   21.6694 H   0  0  0  0  0  0  0  0  0  0  0  0
   13.1618   14.3300   21.3094 H   0  0  0  0  0  0  0  0  0  0  0  0
    9.0339    9.4051   21.5177 H   0  0  0  0  0  0  0  0  0  0  0  0
    8.6954    8.1915   22.7698 H   0  0  0  0  0  0  0  0  0  0  0  0
   10.6759   14.1809   21.1209 H   0  0  0  0  0  0  0  0  0  0  0  0
   11.1315   15.2697   22.4569 H   0  0  0  0  0  0  0  0  0  0  0  0
    9.4520   13.8769   25.3639 H   0  0  0  0  0  0  0  0  0  0  0  0
  1  3  2  0  0  0  0
  1 11  1  0  0  0  0
  2  3  1  0  0  0  0
  2  4  2  0  0  0  0
  2  5  1  0  0  0  0
  3  9  1  0  0  0  0
  4  7  1  0  0  0  0
  4 11  1  0  0  0  0
  5 10  2  0  0  0  0
  5 12  1  0  0  0  0
  6  8  1  0  0  0  0
  7 15  1  0  0  0  0
  8 12  1  0  0  0  0
  9 13  1  0  0  0  0
  9 14  1  0  0  0  0
  1 16  1  0  0  0  0
  6 17  1  0  0  0  0
  6 18  1  0  0  0  0
  6 19  1  0  0  0  0
  7 20  1  0  0  0  0
  7 21  1  0  0  0  0
  8 22  1  0  0  0  0
  8 23  1  0  0  0  0
  9 24  1  0  0  0  0
M  END
> <id>
EN300-703233

> <smiles>
CCOC(=O)C1=C(CBr)OC=C1C(F)F

> <MDLNUMBER>
MFCD31434160

> <IUPAC Name>
ethyl 2-(bromomethyl)-4-(difluoromethyl)furan-3-carboxylate

> <CAS>
2137675-11-5

> <URL>
https://www.enaminestore.com/catalog/EN300-703233

> <ROCS_ShapeQuery>
_x1140_x0812_0A_x1140_0A_x1097_0A_x0365_0A_x1097_0A_x0310_0A

> <ROCS_TanimotoCombo>
0.615 

> <ROCS_ShapeTanimoto>
0.234 

> <ROCS_ColorTanimoto>
0.381 

> <ROCS_RefTversky>
0.211 

> <ROCS_RefColorTversky>
0.425 

> <ROCS_RefTverskyCombo>
0.635 

> <ROCS_FitTversky>
1.870 

> <ROCS_FitColorTversky>
0.789 

> <ROCS_FitTverskyCombo>
2.659 

> <ROCS_ColorScore>
-3.312

> <ROCS_Overlap>
2160.281

> <ROCS_Rank>
308                 

$$$$
untitled-dbase-16509_0
  -OEChem-02092423213D

 19 20  0     0  0  0  0  0  0999 V2000
    7.5638   12.1565   25.0702 C   0  0  0  0  0  0  0  0  0  0  0  0
    8.5520   12.6159   24.2103 C   0  0  0  0  0  0  0  0  0  0  0  0
    7.4487   10.7916   25.2441 C   0  0  0  0  0  0  0  0  0  0  0  0
    9.3960   11.7120   23.5583 C   0  0  0  0  0  0  0  0  0  0  0  0
    9.1856   10.3399   23.7726 C   0  0  0  0  0  0  0  0  0  0  0  0
   11.3939   11.2208   22.2421 C   0  0  0  0  0  0  0  0  0  0  0  0
   10.7739    9.8553   21.9685 C   0  0  0  0  0  0  0  0  0  0  0  0
    8.2300    9.8818   24.6212 N   0  0  0  0  0  0  0  0  0  0  0  0
   10.3874   12.1611   22.6960 N   0  0  0  0  0  0  0  0  0  0  0  0
    9.9828    9.4169   23.1009 N   0  0  0  0  0  0  0  0  0  0  0  0
    6.9080   12.8461   25.5887 H   0  0  0  0  0  0  0  0  0  0  0  0
    8.6682   13.6861   24.0573 H   0  0  0  0  0  0  0  0  0  0  0  0
    6.6977   10.3766   25.9081 H   0  0  0  0  0  0  0  0  0  0  0  0
   12.1767   11.1320   23.0053 H   0  0  0  0  0  0  0  0  0  0  0  0
   11.8692   11.6060   21.3338 H   0  0  0  0  0  0  0  0  0  0  0  0
   10.1368    9.9027   21.0769 H   0  0  0  0  0  0  0  0  0  0  0  0
   11.5599    9.1201   21.7663 H   0  0  0  0  0  0  0  0  0  0  0  0
   10.5614   13.1557   22.6137 H   0  0  0  0  0  0  0  0  0  0  0  0
    9.8086    8.4307   23.2491 H   0  0  0  0  0  0  0  0  0  0  0  0
  1  2  2  0  0  0  0
  1  3  1  0  0  0  0
  2  4  1  0  0  0  0
  3  8  2  0  0  0  0
  4  5  2  0  0  0  0
  4  9  1  0  0  0  0
  5  8  1  0  0  0  0
  5 10  1  0  0  0  0
  6  7  1  0  0  0  0
  6  9  1  0  0  0  0
  7 10  1  0  0  0  0
  1 11  1  0  0  0  0
  2 12  1  0  0  0  0
  3 13  1  0  0  0  0
  6 14  1  0  0  0  0
  6 15  1  0  0  0  0
  7 16  1  0  0  0  0
  7 17  1  0  0  0  0
  9 18  1  0  0  0  0
 10 19  1  0  0  0  0
M  END
> <id>
EN300-99377

> <smiles>
C1CNC=2N=CC=CC2N1

> <MDLNUMBER>
MFCD08062758

> <IUPAC Name>
1H,2H,3H,4H-pyrido[2,3-b]pyrazine

> <CAS>
35808-40-3

> <Purity>
95

> <URL>
https://www.enaminestore.com/catalog/EN300-99377

> <MP>
128-129

> <ROCS_ShapeQuery>
_x1140_x0812_0A_x1140_0A_x1097_0A_x0365_0A_x1097_0A_x0310_0A

> <ROCS_TanimotoCombo>
0.615 

> <ROCS_ShapeTanimoto>
0.208 

> <ROCS_ColorTanimoto>
0.407 

> <ROCS_RefTversky>
0.189 

> <ROCS_RefColorTversky>
0.479 

> <ROCS_RefTverskyCombo>
0.668 

> <ROCS_FitTversky>
1.995 

> <ROCS_FitColorTversky>
0.729 

> <ROCS_FitTverskyCombo>
2.724 

> <ROCS_ColorScore>
-3.760

> <ROCS_Overlap>
1932.129

> <ROCS_Rank>
309                 

$$$$
untitled-dbase-514861_5
  -OEChem-02092423213D

 22 22  0     0  0  0  0  0  0999 V2000
    8.4403   12.5110   24.2066 C   0  0  0  0  0  0  0  0  0  0  0  0
    7.4649   10.7294   25.4440 C   0  0  0  0  0  0  0  0  0  0  0  0
    9.2210   11.5767   23.5351 C   0  0  0  0  0  0  0  0  0  0  0  0
    7.5430   12.0874   25.1807 C   0  0  0  0  0  0  0  0  0  0  0  0
    9.0679   10.2415   23.8722 C   0  0  0  0  0  0  0  0  0  0  0  0
   10.1575   12.0293   22.5154 C   0  0  0  0  0  0  0  0  0  0  0  0
   11.2856    9.2999   23.2236 C   0  0  0  0  0  0  0  0  0  0  0  0
   12.0619   13.4093   22.1251 C   0  0  0  0  0  0  0  0  0  0  0  0
    8.2069    9.7921   24.8126 N   0  0  0  0  0  0  0  0  0  0  0  0
    9.8596    9.2830   23.1917 N   0  0  0  0  0  0  0  0  0  0  0  0
   10.1210   11.6795   21.3295 O   0  0  0  0  0  0  0  0  0  0  0  0
   11.0835   12.8920   23.0332 O   0  0  0  0  0  0  0  0  0  0  0  0
    6.4681   13.3209   26.1136 Br  0  0  0  0  0  0  0  0  0  0  0  0
    8.5342   13.5681   23.9680 H   0  0  0  0  0  0  0  0  0  0  0  0
    6.7847   10.3333   26.1921 H   0  0  0  0  0  0  0  0  0  0  0  0
   11.6292   10.1441   23.8394 H   0  0  0  0  0  0  0  0  0  0  0  0
   11.6537    8.3575   23.6555 H   0  0  0  0  0  0  0  0  0  0  0  0
   11.6739    9.4106   22.2004 H   0  0  0  0  0  0  0  0  0  0  0  0
   12.7374   14.0812   22.6601 H   0  0  0  0  0  0  0  0  0  0  0  0
   11.5612   13.9470   21.3160 H   0  0  0  0  0  0  0  0  0  0  0  0
   12.6342   12.5775   21.7075 H   0  0  0  0  0  0  0  0  0  0  0  0
    9.3685    8.5811   22.6769 H   0  0  0  0  0  0  0  0  0  0  0  0
  1  3  1  0  0  0  0
  1  4  2  0  0  0  0
  2  4  1  0  0  0  0
  2  9  2  0  0  0  0
  3  5  2  0  0  0  0
  3  6  1  0  0  0  0
  4 13  1  0  0  0  0
  5  9  1  0  0  0  0
  5 10  1  0  0  0  0
  6 11  2  0  0  0  0
  6 12  1  0  0  0  0
  7 10  1  0  0  0  0
  8 12  1  0  0  0  0
  1 14  1  0  0  0  0
  2 15  1  0  0  0  0
  7 16  1  0  0  0  0
  7 17  1  0  0  0  0
  7 18  1  0  0  0  0
  8 19  1  0  0  0  0
  8 20  1  0  0  0  0
  8 21  1  0  0  0  0
 10 22  1  0  0  0  0
M  END
> <id>
EN300-8162713

> <smiles>
CNC=1N=CC(Br)=CC1C(=O)OC

> <MDLNUMBER>
MFCD19687423

> <IUPAC Name>
methyl 5-bromo-2-(methylamino)pyridine-3-carboxylate

> <CAS>
1220419-53-3

> <URL>
https://www.enaminestore.com/catalog/EN300-8162713

> <ROCS_ShapeQuery>
_x1140_x0812_0A_x1140_0A_x1097_0A_x0365_0A_x1097_0A_x0310_0A

> <ROCS_TanimotoCombo>
0.615 

> <ROCS_ShapeTanimoto>
0.243 

> <ROCS_ColorTanimoto>
0.372 

> <ROCS_RefTversky>
0.216 

> <ROCS_RefColorTversky>
0.449 

> <ROCS_RefTverskyCombo>
0.665 

> <ROCS_FitTversky>
2.067 

> <ROCS_FitColorTversky>
0.684 

> <ROCS_FitTverskyCombo>
2.751 

> <ROCS_ColorScore>
-3.525

> <ROCS_Overlap>
2211.117

> <ROCS_Rank>
310                 

$$$$
untitled-dbase-515123_2
  -OEChem-02092423213D

 31 31  0     1  0  0  0  0  0999 V2000
    8.2320   10.5745   24.5770 C   0  0  0  0  0  0  0  0  0  0  0  0
    9.5242   10.8775   22.4202 C   0  0  0  0  0  0  0  0  0  0  0  0
    7.6211   11.5368   25.5659 C   0  0  0  0  0  0  0  0  0  0  0  0
    7.5320   12.8390   24.7857 C   0  0  0  0  0  0  0  0  0  0  0  0
    8.7069   12.7707   23.8215 C   0  0  1  0  0  0  0  0  0  0  0  0
    9.9820   13.3572   24.4264 C   0  0  0  0  0  0  0  0  0  0  0  0
   11.8018    9.7872   23.1211 C   0  0  0  0  0  0  0  0  0  0  0  0
   10.7049    7.5306   23.0043 C   0  0  0  0  0  0  0  0  0  0  0  0
   11.2881    8.7489   20.8867 C   0  0  0  0  0  0  0  0  0  0  0  0
   10.8359    8.8988   22.3386 C   0  0  0  0  0  0  0  0  0  0  0  0
    8.8510   11.3432   23.5594 N   0  0  0  0  0  0  0  0  0  0  0  0
    8.2048    9.3584   24.7011 O   0  0  0  0  0  0  0  0  0  0  0  0
   10.0390   11.6081   21.5762 O   0  0  0  0  0  0  0  0  0  0  0  0
    9.5413    9.5108   22.3520 O   0  0  0  0  0  0  0  0  0  0  0  0
    6.6366   11.1905   25.8899 H   0  0  0  0  0  0  0  0  0  0  0  0
    8.2872   11.6263   26.4296 H   0  0  0  0  0  0  0  0  0  0  0  0
    6.5919   12.8615   24.2203 H   0  0  0  0  0  0  0  0  0  0  0  0
    7.5505   13.7145   25.4417 H   0  0  0  0  0  0  0  0  0  0  0  0
    8.4819   13.2975   22.8870 H   0  0  0  0  0  0  0  0  0  0  0  0
   10.2184   12.8433   25.3563 H   0  0  0  0  0  0  0  0  0  0  0  0
    9.8391   14.4168   24.6300 H   0  0  0  0  0  0  0  0  0  0  0  0
   10.8096   13.2352   23.7300 H   0  0  0  0  0  0  0  0  0  0  0  0
   11.8986   10.7703   22.6465 H   0  0  0  0  0  0  0  0  0  0  0  0
   11.4702    9.9312   24.1546 H   0  0  0  0  0  0  0  0  0  0  0  0
   12.8075    9.3517   23.1378 H   0  0  0  0  0  0  0  0  0  0  0  0
   10.0128    6.8898   22.4461 H   0  0  0  0  0  0  0  0  0  0  0  0
   10.2906    7.6261   24.0145 H   0  0  0  0  0  0  0  0  0  0  0  0
   11.6712    7.0204   23.0726 H   0  0  0  0  0  0  0  0  0  0  0  0
   10.5954    8.1116   20.3252 H   0  0  0  0  0  0  0  0  0  0  0  0
   11.3521    9.7184   20.3821 H   0  0  0  0  0  0  0  0  0  0  0  0
   12.2688    8.2626   20.8323 H   0  0  0  0  0  0  0  0  0  0  0  0
  1  3  1  0  0  0  0
  1 11  1  0  0  0  0
  1 12  2  0  0  0  0
  2 11  1  0  0  0  0
  2 13  2  0  0  0  0
  2 14  1  0  0  0  0
  3  4  1  0  0  0  0
  4  5  1  0  0  0  0
  5  6  1  6  0  0  0
  5 11  1  0  0  0  0
  7 10  1  0  0  0  0
  8 10  1  0  0  0  0
  9 10  1  0  0  0  0
 10 14  1  0  0  0  0
  3 15  1  0  0  0  0
  3 16  1  0  0  0  0
  4 17  1  0  0  0  0
  4 18  1  0  0  0  0
  5 19  1  0  0  0  0
  6 20  1  0  0  0  0
  6 21  1  0  0  0  0
  6 22  1  0  0  0  0
  7 23  1  0  0  0  0
  7 24  1  0  0  0  0
  7 25  1  0  0  0  0
  8 26  1  0  0  0  0
  8 27  1  0  0  0  0
  8 28  1  0  0  0  0
  9 29  1  0  0  0  0
  9 30  1  0  0  0  0
  9 31  1  0  0  0  0
M  END
> <id>
EN300-8755692

> <smiles>
C[C@@H]1CCC(=O)N1C(=O)OC(C)(C)C

> <MDLNUMBER>
MFCD34474778

> <IUPAC Name>
tert-butyl (2R)-2-methyl-5-oxopyrrolidine-1-carboxylate

> <CAS>
402955-77-5

> <Purity>
95

> <URL>
https://www.enaminestore.com/catalog/EN300-8755692

> <ROCS_ShapeQuery>
_x1140_x0812_0A_x1140_0A_x1097_0A_x0365_0A_x1097_0A_x0310_0A

> <ROCS_TanimotoCombo>
0.615 

> <ROCS_ShapeTanimoto>
0.215 

> <ROCS_ColorTanimoto>
0.400 

> <ROCS_RefTversky>
0.196 

> <ROCS_RefColorTversky>
0.439 

> <ROCS_RefTverskyCombo>
0.636 

> <ROCS_FitTversky>
1.801 

> <ROCS_FitColorTversky>
0.816 

> <ROCS_FitTverskyCombo>
2.617 

> <ROCS_ColorScore>
-3.427

> <ROCS_Overlap>
2010.826

> <ROCS_Rank>
311                 

$$$$
untitled-dbase-276621_4
  -OEChem-02092423213D

 31 32  0     0  0  0  0  0  0999 V2000
    8.6804   12.5768   24.6871 C   0  0  0  0  0  0  0  0  0  0  0  0
    8.9747   10.4889   23.5868 C   0  0  0  0  0  0  0  0  0  0  0  0
    9.3395   11.8183   23.7261 C   0  0  0  0  0  0  0  0  0  0  0  0
    7.6906   11.9911   25.4685 C   0  0  0  0  0  0  0  0  0  0  0  0
    7.3995   10.6540   25.2511 C   0  0  0  0  0  0  0  0  0  0  0  0
   10.6932   12.0312   21.6174 C   0  0  0  0  0  0  0  0  0  0  0  0
   11.5788   14.3614   21.0544 C   0  0  0  0  0  0  0  0  0  0  0  0
   11.5975   13.5652   19.7852 C   0  0  0  0  0  0  0  0  0  0  0  0
   11.8102   12.8655   21.1118 C   0  0  0  0  0  0  0  0  0  0  0  0
   13.2099   12.4002   21.4246 C   0  0  0  0  0  0  0  0  0  0  0  0
    5.8608   13.4145   25.9988 C   0  0  0  0  0  0  0  0  0  0  0  0
    8.0183    9.8850   24.3273 N   0  0  0  0  0  0  0  0  0  0  0  0
    6.3896   10.0564   26.0463 N   0  0  0  0  0  0  0  0  0  0  0  0
   10.3513   12.3863   22.9161 N   0  0  0  0  0  0  0  0  0  0  0  0
   10.1894   11.1623   20.9130 O   0  0  0  0  0  0  0  0  0  0  0  0
    7.0451   12.7296   26.4081 O   0  0  0  0  0  0  0  0  0  0  0  0
    8.9355   13.6240   24.8295 H   0  0  0  0  0  0  0  0  0  0  0  0
    9.4531    9.8461   22.8536 H   0  0  0  0  0  0  0  0  0  0  0  0
   12.4141   15.0248   21.2453 H   0  0  0  0  0  0  0  0  0  0  0  0
   10.6249   14.7528   21.3889 H   0  0  0  0  0  0  0  0  0  0  0  0
   10.6560   13.4228   19.2674 H   0  0  0  0  0  0  0  0  0  0  0  0
   12.4459   13.6919   19.1230 H   0  0  0  0  0  0  0  0  0  0  0  0
   13.9513   13.0888   21.0046 H   0  0  0  0  0  0  0  0  0  0  0  0
   13.3917   11.4053   21.0037 H   0  0  0  0  0  0  0  0  0  0  0  0
   13.3688   12.3468   22.5073 H   0  0  0  0  0  0  0  0  0  0  0  0
    5.4462   13.9655   26.8465 H   0  0  0  0  0  0  0  0  0  0  0  0
    5.1301   12.6910   25.6283 H   0  0  0  0  0  0  0  0  0  0  0  0
    6.1136   14.1156   25.1999 H   0  0  0  0  0  0  0  0  0  0  0  0
    5.9578   10.5985   26.7623 H   0  0  0  0  0  0  0  0  0  0  0  0
    6.2020    9.0841   25.9340 H   0  0  0  0  0  0  0  0  0  0  0  0
   10.8816   13.1411   23.3463 H   0  0  0  0  0  0  0  0  0  0  0  0
  1  3  2  0  0  0  0
  1  4  1  0  0  0  0
  2  3  1  0  0  0  0
  2 12  2  0  0  0  0
  3 14  1  0  0  0  0
  4  5  2  0  0  0  0
  4 16  1  0  0  0  0
  5 12  1  0  0  0  0
  5 13  1  0  0  0  0
  6  9  1  0  0  0  0
  6 14  1  0  0  0  0
  6 15  2  0  0  0  0
  7  8  1  0  0  0  0
  7  9  1  0  0  0  0
  8  9  1  0  0  0  0
  9 10  1  0  0  0  0
 11 16  1  0  0  0  0
  1 17  1  0  0  0  0
  2 18  1  0  0  0  0
  7 19  1  0  0  0  0
  7 20  1  0  0  0  0
  8 21  1  0  0  0  0
  8 22  1  0  0  0  0
 10 23  1  0  0  0  0
 10 24  1  0  0  0  0
 10 25  1  0  0  0  0
 11 26  1  0  0  0  0
 11 27  1  0  0  0  0
 11 28  1  0  0  0  0
 13 29  1  0  0  0  0
 13 30  1  0  0  0  0
 14 31  1  0  0  0  0
M  END
> <id>
EN300-377768

> <smiles>
COC=1C=C(NC(=O)C2(C)CC2)C=NC1N

> <MDLNUMBER>
MFCD30733833

> <IUPAC Name>
N-(6-amino-5-methoxypyridin-3-yl)-1-methylcyclopropane-1-carboxamide

> <CAS>
2137748-34-4

> <URL>
https://www.enaminestore.com/catalog/EN300-377768

> <ROCS_ShapeQuery>
_x1140_x0812_0A_x1140_0A_x1097_0A_x0365_0A_x1097_0A_x0310_0A

> <ROCS_TanimotoCombo>
0.615 

> <ROCS_ShapeTanimoto>
0.228 

> <ROCS_ColorTanimoto>
0.387 

> <ROCS_RefTversky>
0.208 

> <ROCS_RefColorTversky>
0.526 

> <ROCS_RefTverskyCombo>
0.734 

> <ROCS_FitTversky>
1.758 

> <ROCS_FitColorTversky>
0.593 

> <ROCS_FitTverskyCombo>
2.351 

> <ROCS_ColorScore>
-4.184

> <ROCS_Overlap>
2130.648

> <ROCS_Rank>
312                 

$$$$
untitled-dbase-281733_3
  -OEChem-02092423213D

 28 28  0     0  0  0  0  0  0999 V2000
    7.4645   11.9612   25.0762 C   0  0  0  0  0  0  0  0  0  0  0  0
    9.2073   11.4983   23.4848 C   0  0  0  0  0  0  0  0  0  0  0  0
    8.4420   12.4146   24.1974 C   0  0  0  0  0  0  0  0  0  0  0  0
    8.9580   10.1501   23.6852 C   0  0  0  0  0  0  0  0  0  0  0  0
    7.2931   10.5923   25.2052 C   0  0  0  0  0  0  0  0  0  0  0  0
   10.2401   11.9456   22.5589 C   0  0  0  0  0  0  0  0  0  0  0  0
    8.6475   13.8857   24.0398 C   0  0  0  0  0  0  0  0  0  0  0  0
    9.7468    9.1157   22.9497 C   0  0  0  0  0  0  0  0  0  0  0  0
   11.8848   14.5501   21.8501 C   0  0  0  0  0  0  0  0  0  0  0  0
   12.2669   13.1880   22.3889 C   0  0  0  0  0  0  0  0  0  0  0  0
    8.0172    9.6718   24.5300 N   0  0  0  0  0  0  0  0  0  0  0  0
    6.2938   10.1457   26.1055 N   0  0  0  0  0  0  0  0  0  0  0  0
   10.2516   11.6877   21.3497 O   0  0  0  0  0  0  0  0  0  0  0  0
   11.1951   12.6882   23.1958 O   0  0  0  0  0  0  0  0  0  0  0  0
    6.8572   12.6622   25.6414 H   0  0  0  0  0  0  0  0  0  0  0  0
    9.3909   14.2445   24.7608 H   0  0  0  0  0  0  0  0  0  0  0  0
    8.9941   14.1311   23.0285 H   0  0  0  0  0  0  0  0  0  0  0  0
    7.7117   14.4357   24.1990 H   0  0  0  0  0  0  0  0  0  0  0  0
   10.6376    8.8387   23.5246 H   0  0  0  0  0  0  0  0  0  0  0  0
    9.1488    8.2134   22.7739 H   0  0  0  0  0  0  0  0  0  0  0  0
   10.0646    9.4853   21.9672 H   0  0  0  0  0  0  0  0  0  0  0  0
   10.9839   14.4870   21.2334 H   0  0  0  0  0  0  0  0  0  0  0  0
   11.7035   15.2526   22.6701 H   0  0  0  0  0  0  0  0  0  0  0  0
   12.6974   14.9681   21.2466 H   0  0  0  0  0  0  0  0  0  0  0  0
   13.1685   13.2580   23.0048 H   0  0  0  0  0  0  0  0  0  0  0  0
   12.4469   12.4870   21.5684 H   0  0  0  0  0  0  0  0  0  0  0  0
    5.7916   10.8205   26.6401 H   0  0  0  0  0  0  0  0  0  0  0  0
    6.1819    9.1663   26.2523 H   0  0  0  0  0  0  0  0  0  0  0  0
  1  3  2  0  0  0  0
  1  5  1  0  0  0  0
  2  3  1  0  0  0  0
  2  4  2  0  0  0  0
  2  6  1  0  0  0  0
  3  7  1  0  0  0  0
  4  8  1  0  0  0  0
  4 11  1  0  0  0  0
  5 11  2  0  0  0  0
  5 12  1  0  0  0  0
  6 13  2  0  0  0  0
  6 14  1  0  0  0  0
  9 10  1  0  0  0  0
 10 14  1  0  0  0  0
  1 15  1  0  0  0  0
  7 16  1  0  0  0  0
  7 17  1  0  0  0  0
  7 18  1  0  0  0  0
  8 19  1  0  0  0  0
  8 20  1  0  0  0  0
  8 21  1  0  0  0  0
  9 22  1  0  0  0  0
  9 23  1  0  0  0  0
  9 24  1  0  0  0  0
 10 25  1  0  0  0  0
 10 26  1  0  0  0  0
 12 27  1  0  0  0  0
 12 28  1  0  0  0  0
M  END
> <id>
EN300-6509965

> <smiles>
CCOC(=O)C=1C(C)=CC(N)=NC1C

> <IUPAC Name>
ethyl 6-amino-2,4-dimethylpyridine-3-carboxylate

> <CAS>
2248317-08-8

> <URL>
https://www.enaminestore.com/catalog/EN300-6509965

> <ROCS_ShapeQuery>
_x1140_x0812_0A_x1140_0A_x1097_0A_x0365_0A_x1097_0A_x0310_0A

> <ROCS_TanimotoCombo>
0.615 

> <ROCS_ShapeTanimoto>
0.253 

> <ROCS_ColorTanimoto>
0.362 

> <ROCS_RefTversky>
0.224 

> <ROCS_RefColorTversky>
0.440 

> <ROCS_RefTverskyCombo>
0.664 

> <ROCS_FitTversky>
2.053 

> <ROCS_FitColorTversky>
0.671 

> <ROCS_FitTverskyCombo>
2.723 

> <ROCS_ColorScore>
-3.458

> <ROCS_Overlap>
2292.318

> <ROCS_Rank>
313                 

$$$$
untitled-dbase-453774_1
  -OEChem-02092423213D

 16 16  0     0  0  0  0  0  0999 V2000
    8.4922   12.4331   24.6439 C   0  0  0  0  0  0  0  0  0  0  0  0
    9.3621   11.6482   23.9149 C   0  0  0  0  0  0  0  0  0  0  0  0
    9.0970   10.2940   23.9263 C   0  0  0  0  0  0  0  0  0  0  0  0
    7.2886   10.6083   25.2672 C   0  0  0  0  0  0  0  0  0  0  0  0
   10.5036   12.2418   23.1738 C   0  0  0  0  0  0  0  0  0  0  0  0
    7.4411   11.9446   25.3345 N   0  0  0  0  0  0  0  0  0  0  0  0
    8.0651    9.7378   24.5944 N   0  0  0  0  0  0  0  0  0  0  0  0
    9.9088    9.4356   23.2325 O   0  0  0  0  0  0  0  0  0  0  0  0
    6.2256   10.0757   25.9587 O   0  0  0  0  0  0  0  0  0  0  0  0
   10.3800   11.9450   21.7860 O   0  0  0  0  0  0  0  0  0  0  0  0
    8.6123   13.5105   24.6980 H   0  0  0  0  0  0  0  0  0  0  0  0
   10.5413   13.3359   23.2918 H   0  0  0  0  0  0  0  0  0  0  0  0
   11.4665   11.8447   23.5305 H   0  0  0  0  0  0  0  0  0  0  0  0
    9.5924    8.5277   23.3393 H   0  0  0  0  0  0  0  0  0  0  0  0
    5.7407   10.7847   26.3999 H   0  0  0  0  0  0  0  0  0  0  0  0
   11.1436   12.3511   21.3469 H   0  0  0  0  0  0  0  0  0  0  0  0
  1  2  1  0  0  0  0
  1  6  2  0  0  0  0
  2  3  2  0  0  0  0
  2  5  1  0  0  0  0
  3  7  1  0  0  0  0
  3  8  1  0  0  0  0
  4  6  1  0  0  0  0
  4  7  2  0  0  0  0
  4  9  1  0  0  0  0
  5 10  1  0  0  0  0
  1 11  1  0  0  0  0
  5 12  1  0  0  0  0
  5 13  1  0  0  0  0
  8 14  1  0  0  0  0
  9 15  1  0  0  0  0
 10 16  1  0  0  0  0
M  END
> <id>
EN300-1601108

> <smiles>
OCC=1C=NC(O)=NC1O

> <MDLNUMBER>
MFCD00006070

> <IUPAC Name>
5-(hydroxymethyl)pyrimidine-2,4-diol

> <CAS>
4433-40-3

> <Purity>
95

> <URL>
https://www.enaminestore.com/catalog/EN300-1601108

> <ROCS_ShapeQuery>
_x1140_x0812_0A_x1140_0A_x1097_0A_x0365_0A_x1097_0A_x0310_0A

> <ROCS_TanimotoCombo>
0.615 

> <ROCS_ShapeTanimoto>
0.215 

> <ROCS_ColorTanimoto>
0.400 

> <ROCS_RefTversky>
0.193 

> <ROCS_RefColorTversky>
0.605 

> <ROCS_RefTverskyCombo>
0.798 

> <ROCS_FitTversky>
2.067 

> <ROCS_FitColorTversky>
0.542 

> <ROCS_FitTverskyCombo>
2.609 

> <ROCS_ColorScore>
-4.869

> <ROCS_Overlap>
1978.206

> <ROCS_Rank>
314                 

$$$$
untitled-dbase-315968_1
  -OEChem-02092423213D

 19 20  0     0  0  0  0  0  0999 V2000
    9.3827   12.5176   24.9064 C   0  0  0  0  0  0  0  0  0  0  0  0
    8.6149   11.8093   25.8274 C   0  0  0  0  0  0  0  0  0  0  0  0
    9.3181   10.4302   22.0335 C   0  0  0  0  0  0  0  0  0  0  0  0
    8.9471   10.6963   23.3635 C   0  0  0  0  0  0  0  0  0  0  0  0
    9.5313   11.9197   23.6586 C   0  0  0  0  0  0  0  0  0  0  0  0
    8.0630   10.5886   25.4540 C   0  0  0  0  0  0  0  0  0  0  0  0
    7.2420    9.8444   26.4580 C   0  0  0  0  0  0  0  0  0  0  0  0
   10.0775   11.3985   21.5127 N   0  0  0  0  0  0  0  0  0  0  0  0
    8.1973    9.9927   24.2454 N   0  0  0  0  0  0  0  0  0  0  0  0
   10.1893   12.2857   22.5189 N   0  0  0  0  0  0  0  0  0  0  0  0
    5.8320    9.9361   26.1831 N   0  0  0  0  0  0  0  0  0  0  0  0
    9.8338   13.4721   25.1486 H   0  0  0  0  0  0  0  0  0  0  0  0
    8.4557   12.2149   26.8222 H   0  0  0  0  0  0  0  0  0  0  0  0
    9.0698    9.5752   21.4210 H   0  0  0  0  0  0  0  0  0  0  0  0
    7.5097    8.7800   26.4721 H   0  0  0  0  0  0  0  0  0  0  0  0
    7.4065   10.2294   27.4723 H   0  0  0  0  0  0  0  0  0  0  0  0
   10.7328   13.1245   22.3580 H   0  0  0  0  0  0  0  0  0  0  0  0
    5.3756   10.3987   26.9423 H   0  0  0  0  0  0  0  0  0  0  0  0
    5.6920   10.4560   25.3413 H   0  0  0  0  0  0  0  0  0  0  0  0
  1  2  2  0  0  0  0
  1  5  1  0  0  0  0
  2  6  1  0  0  0  0
  3  4  1  0  0  0  0
  3  8  2  0  0  0  0
  4  5  2  0  0  0  0
  4  9  1  0  0  0  0
  5 10  1  0  0  0  0
  6  7  1  0  0  0  0
  6  9  2  0  0  0  0
  7 11  1  0  0  0  0
  8 10  1  0  0  0  0
  1 12  1  0  0  0  0
  2 13  1  0  0  0  0
  3 14  1  0  0  0  0
  7 15  1  0  0  0  0
  7 16  1  0  0  0  0
 10 17  1  0  0  0  0
 11 18  1  0  0  0  0
 11 19  1  0  0  0  0
M  END
> <id>
EN300-1652942

> <smiles>
NCC=1C=CC=2NN=CC2N1

> <MDLNUMBER>
MFCD18250818

> <IUPAC Name>
{1H-pyrazolo[4,3-b]pyridin-5-yl}methanamine

> <CAS>
1260666-18-9

> <URL>
https://www.enaminestore.com/catalog/EN300-1652942

> <ROCS_ShapeQuery>
_x1140_x0812_0A_x1140_0A_x1097_0A_x0365_0A_x1097_0A_x0310_0A

> <ROCS_TanimotoCombo>
0.615 

> <ROCS_ShapeTanimoto>
0.192 

> <ROCS_ColorTanimoto>
0.423 

> <ROCS_RefTversky>
0.177 

> <ROCS_RefColorTversky>
0.561 

> <ROCS_RefTverskyCombo>
0.738 

> <ROCS_FitTversky>
1.777 

> <ROCS_FitColorTversky>
0.631 

> <ROCS_FitTverskyCombo>
2.408 

> <ROCS_ColorScore>
-4.464

> <ROCS_Overlap>
1812.343

> <ROCS_Rank>
315                 

$$$$
untitled-dbase-412209_5
  -OEChem-02092423213D

 29 29  0     0  0  0  0  0  0999 V2000
    7.3899   10.7054   25.1991 C   0  0  0  0  0  0  0  0  0  0  0  0
    9.1176   10.1352   23.8851 C   0  0  0  0  0  0  0  0  0  0  0  0
    8.8630   12.2660   24.5421 C   0  0  0  0  0  0  0  0  0  0  0  0
    4.2879   10.6294   27.3159 C   0  0  0  0  0  0  0  0  0  0  0  0
   11.2743    8.4227   21.3833 C   0  0  0  0  0  0  0  0  0  0  0  0
   12.2111    9.6276   23.3875 C   0  0  0  0  0  0  0  0  0  0  0  0
    5.4526   11.2889   26.6592 C   0  0  0  0  0  0  0  0  0  0  0  0
   11.0401    9.5090   22.4231 C   0  0  0  0  0  0  0  0  0  0  0  0
    8.0227    9.7199   24.5420 N   0  0  0  0  0  0  0  0  0  0  0  0
    7.7504   11.9981   25.2445 N   0  0  0  0  0  0  0  0  0  0  0  0
    9.5974   11.3884   23.8396 N   0  0  0  0  0  0  0  0  0  0  0  0
    6.2270   10.3460   25.9148 N   0  0  0  0  0  0  0  0  0  0  0  0
    9.8141    9.1877   23.1935 N   0  0  0  0  0  0  0  0  0  0  0  0
    9.4205   13.9573   24.5424 S   0  0  0  0  0  0  0  0  0  0  0  0
    4.6470    9.8464   28.0000 H   0  0  0  0  0  0  0  0  0  0  0  0
    3.7151   11.3775   27.8834 H   0  0  0  0  0  0  0  0  0  0  0  0
    3.6420   10.1777   26.5486 H   0  0  0  0  0  0  0  0  0  0  0  0
   11.4349    7.4518   21.8631 H   0  0  0  0  0  0  0  0  0  0  0  0
   10.4208    8.3300   20.7024 H   0  0  0  0  0  0  0  0  0  0  0  0
   12.1567    8.6506   20.7754 H   0  0  0  0  0  0  0  0  0  0  0  0
   12.3881    8.6767   23.9021 H   0  0  0  0  0  0  0  0  0  0  0  0
   12.0155   10.3923   24.1463 H   0  0  0  0  0  0  0  0  0  0  0  0
   13.1357    9.8952   22.8638 H   0  0  0  0  0  0  0  0  0  0  0  0
    5.0854   12.0700   25.9773 H   0  0  0  0  0  0  0  0  0  0  0  0
    6.0888   11.7459   27.4315 H   0  0  0  0  0  0  0  0  0  0  0  0
   10.8822   10.4698   21.9211 H   0  0  0  0  0  0  0  0  0  0  0  0
    5.9561    9.3820   25.8838 H   0  0  0  0  0  0  0  0  0  0  0  0
    9.5237    8.2351   23.1773 H   0  0  0  0  0  0  0  0  0  0  0  0
   10.4990   13.7832   23.7633 H   0  0  0  0  0  0  0  0  0  0  0  0
  1  9  2  0  0  0  0
  1 10  1  0  0  0  0
  1 12  1  0  0  0  0
  2  9  1  0  0  0  0
  2 11  2  0  0  0  0
  2 13  1  0  0  0  0
  3 10  2  0  0  0  0
  3 11  1  0  0  0  0
  3 14  1  0  0  0  0
  4  7  1  0  0  0  0
  5  8  1  0  0  0  0
  6  8  1  0  0  0  0
  7 12  1  0  0  0  0
  8 13  1  0  0  0  0
  4 15  1  0  0  0  0
  4 16  1  0  0  0  0
  4 17  1  0  0  0  0
  5 18  1  0  0  0  0
  5 19  1  0  0  0  0
  5 20  1  0  0  0  0
  6 21  1  0  0  0  0
  6 22  1  0  0  0  0
  6 23  1  0  0  0  0
  7 24  1  0  0  0  0
  7 25  1  0  0  0  0
  8 26  1  0  0  0  0
 12 27  1  0  0  0  0
 13 28  1  0  0  0  0
 14 29  1  0  0  0  0
M  END
> <id>
EN300-265759

> <smiles>
CCNC=1N=C(S)N=C(NC(C)C)N1

> <MDLNUMBER>
MFCD01419463

> <IUPAC Name>
4-(ethylamino)-6-[(propan-2-yl)amino]-1,3,5-triazine-2-thiol

> <CAS>
5498-17-9

> <URL>
https://www.enaminestore.com/catalog/EN300-265759

> <ROCS_ShapeQuery>
_x1140_x0812_0A_x1140_0A_x1097_0A_x0365_0A_x1097_0A_x0310_0A

> <ROCS_TanimotoCombo>
0.615 

> <ROCS_ShapeTanimoto>
0.220 

> <ROCS_ColorTanimoto>
0.395 

> <ROCS_RefTversky>
0.200 

> <ROCS_RefColorTversky>
0.567 

> <ROCS_RefTverskyCombo>
0.766 

> <ROCS_FitTversky>
1.852 

> <ROCS_FitColorTversky>
0.565 

> <ROCS_FitTverskyCombo>
2.417 

> <ROCS_ColorScore>
-4.533

> <ROCS_Overlap>
2046.777

> <ROCS_Rank>
316                 

$$$$
untitled-dbase-478479_7
  -OEChem-02092423213D

 21 21  0     0  0  0  0  0  0999 V2000
    8.4505   12.3755   24.3104 C   0  0  0  0  0  0  0  0  0  0  0  0
    7.4704   11.9403   25.1850 C   0  0  0  0  0  0  0  0  0  0  0  0
    9.1377   11.4235   23.5846 C   0  0  0  0  0  0  0  0  0  0  0  0
    7.2421   10.5819   25.2756 C   0  0  0  0  0  0  0  0  0  0  0  0
   10.1788   11.8063   22.6488 C   0  0  0  0  0  0  0  0  0  0  0  0
    5.0897   10.9203   26.4914 C   0  0  0  0  0  0  0  0  0  0  0  0
   12.2851   12.9144   22.4495 C   0  0  0  0  0  0  0  0  0  0  0  0
    8.8934   10.1004   23.6935 N   0  0  0  0  0  0  0  0  0  0  0  0
    7.9298    9.6727   24.5528 N   0  0  0  0  0  0  0  0  0  0  0  0
    6.2401   10.1378   26.1695 N   0  0  0  0  0  0  0  0  0  0  0  0
   10.1585   11.5584   21.4341 O   0  0  0  0  0  0  0  0  0  0  0  0
   11.1953   12.4811   23.2706 O   0  0  0  0  0  0  0  0  0  0  0  0
    8.6638   13.4341   24.2065 H   0  0  0  0  0  0  0  0  0  0  0  0
    6.9066   12.6560   25.7746 H   0  0  0  0  0  0  0  0  0  0  0  0
    5.1293   11.8737   25.9441 H   0  0  0  0  0  0  0  0  0  0  0  0
    4.1808   10.3708   26.2052 H   0  0  0  0  0  0  0  0  0  0  0  0
    5.0727   11.1192   27.5732 H   0  0  0  0  0  0  0  0  0  0  0  0
   13.0217   13.4357   23.0657 H   0  0  0  0  0  0  0  0  0  0  0  0
   11.9112   13.5806   21.6680 H   0  0  0  0  0  0  0  0  0  0  0  0
   12.7519   12.0408   21.9883 H   0  0  0  0  0  0  0  0  0  0  0  0
    6.3703    9.2341   26.5791 H   0  0  0  0  0  0  0  0  0  0  0  0
  1  2  2  0  0  0  0
  1  3  1  0  0  0  0
  2  4  1  0  0  0  0
  3  5  1  0  0  0  0
  3  8  2  0  0  0  0
  4  9  2  0  0  0  0
  4 10  1  0  0  0  0
  5 11  2  0  0  0  0
  5 12  1  0  0  0  0
  6 10  1  0  0  0  0
  7 12  1  0  0  0  0
  8  9  1  0  0  0  0
  1 13  1  0  0  0  0
  2 14  1  0  0  0  0
  6 15  1  0  0  0  0
  6 16  1  0  0  0  0
  6 17  1  0  0  0  0
  7 18  1  0  0  0  0
  7 19  1  0  0  0  0
  7 20  1  0  0  0  0
 10 21  1  0  0  0  0
M  END
> <id>
EN300-27694344

> <smiles>
Cl.CNC=1C=CC(=NN1)C(=O)OC

> <MDLNUMBER>
MFCD32879274

> <IUPAC Name>
methyl 6-(methylamino)pyridazine-3-carboxylate hydrochloride

> <CAS>
2567502-55-8

> <Purity>
95

> <URL>
https://www.enaminestore.com/catalog/EN300-27694344

> <ROCS_ShapeQuery>
_x1140_x0812_0A_x1140_0A_x1097_0A_x0365_0A_x1097_0A_x0310_0A

> <ROCS_TanimotoCombo>
0.614 

> <ROCS_ShapeTanimoto>
0.225 

> <ROCS_ColorTanimoto>
0.390 

> <ROCS_RefTversky>
0.202 

> <ROCS_RefColorTversky>
0.475 

> <ROCS_RefTverskyCombo>
0.677 

> <ROCS_FitTversky>
1.992 

> <ROCS_FitColorTversky>
0.685 

> <ROCS_FitTverskyCombo>
2.677 

> <ROCS_ColorScore>
-3.734

> <ROCS_Overlap>
2071.095

> <ROCS_Rank>
317                 

$$$$
untitled-dbase-35086_7
  -OEChem-02092423213D

 21 21  0     0  0  0  0  0  0999 V2000
    8.4505   12.3755   24.3104 C   0  0  0  0  0  0  0  0  0  0  0  0
    7.4704   11.9403   25.1850 C   0  0  0  0  0  0  0  0  0  0  0  0
    9.1377   11.4235   23.5846 C   0  0  0  0  0  0  0  0  0  0  0  0
    7.2421   10.5819   25.2756 C   0  0  0  0  0  0  0  0  0  0  0  0
   10.1788   11.8063   22.6488 C   0  0  0  0  0  0  0  0  0  0  0  0
    5.0897   10.9203   26.4914 C   0  0  0  0  0  0  0  0  0  0  0  0
   12.2851   12.9144   22.4495 C   0  0  0  0  0  0  0  0  0  0  0  0
    8.8934   10.1004   23.6935 N   0  0  0  0  0  0  0  0  0  0  0  0
    7.9298    9.6727   24.5528 N   0  0  0  0  0  0  0  0  0  0  0  0
    6.2401   10.1378   26.1695 N   0  0  0  0  0  0  0  0  0  0  0  0
   10.1585   11.5584   21.4341 O   0  0  0  0  0  0  0  0  0  0  0  0
   11.1953   12.4811   23.2706 O   0  0  0  0  0  0  0  0  0  0  0  0
    8.6638   13.4341   24.2065 H   0  0  0  0  0  0  0  0  0  0  0  0
    6.9066   12.6560   25.7746 H   0  0  0  0  0  0  0  0  0  0  0  0
    5.1293   11.8737   25.9441 H   0  0  0  0  0  0  0  0  0  0  0  0
    4.1808   10.3708   26.2052 H   0  0  0  0  0  0  0  0  0  0  0  0
    5.0727   11.1192   27.5732 H   0  0  0  0  0  0  0  0  0  0  0  0
   13.0217   13.4357   23.0657 H   0  0  0  0  0  0  0  0  0  0  0  0
   11.9112   13.5806   21.6680 H   0  0  0  0  0  0  0  0  0  0  0  0
   12.7519   12.0408   21.9883 H   0  0  0  0  0  0  0  0  0  0  0  0
    6.3703    9.2341   26.5791 H   0  0  0  0  0  0  0  0  0  0  0  0
  1  2  2  0  0  0  0
  1  3  1  0  0  0  0
  2  4  1  0  0  0  0
  3  5  1  0  0  0  0
  3  8  2  0  0  0  0
  4  9  2  0  0  0  0
  4 10  1  0  0  0  0
  5 11  2  0  0  0  0
  5 12  1  0  0  0  0
  6 10  1  0  0  0  0
  7 12  1  0  0  0  0
  8  9  1  0  0  0  0
  1 13  1  0  0  0  0
  2 14  1  0  0  0  0
  6 15  1  0  0  0  0
  6 16  1  0  0  0  0
  6 17  1  0  0  0  0
  7 18  1  0  0  0  0
  7 19  1  0  0  0  0
  7 20  1  0  0  0  0
 10 21  1  0  0  0  0
M  END
> <id>
EN300-172663

> <smiles>
CNC=1C=CC(=NN1)C(=O)OC

> <MDLNUMBER>
MFCD12152730

> <IUPAC Name>
methyl 6-(methylamino)pyridazine-3-carboxylate

> <CAS>
1183150-47-1

> <Purity>
95

> <URL>
https://www.enaminestore.com/catalog/EN300-172663

> <ROCS_ShapeQuery>
_x1140_x0812_0A_x1140_0A_x1097_0A_x0365_0A_x1097_0A_x0310_0A

> <ROCS_TanimotoCombo>
0.614 

> <ROCS_ShapeTanimoto>
0.225 

> <ROCS_ColorTanimoto>
0.390 

> <ROCS_RefTversky>
0.202 

> <ROCS_RefColorTversky>
0.475 

> <ROCS_RefTverskyCombo>
0.677 

> <ROCS_FitTversky>
1.992 

> <ROCS_FitColorTversky>
0.685 

> <ROCS_FitTverskyCombo>
2.677 

> <ROCS_ColorScore>
-3.734

> <ROCS_Overlap>
2071.095

> <ROCS_Rank>
318                 

$$$$
untitled-dbase-28152_2
  -OEChem-02092423213D

 28 28  0     0  0  0  0  0  0999 V2000
    8.1966   10.5618   24.5513 C   0  0  0  0  0  0  0  0  0  0  0  0
    9.5098   10.8628   22.4015 C   0  0  0  0  0  0  0  0  0  0  0  0
    7.5280   11.5351   25.4936 C   0  0  0  0  0  0  0  0  0  0  0  0
    8.2420   12.8448   25.2054 C   0  0  0  0  0  0  0  0  0  0  0  0
    8.5860   12.7400   23.7371 C   0  0  0  0  0  0  0  0  0  0  0  0
   11.8012    9.8231   23.1330 C   0  0  0  0  0  0  0  0  0  0  0  0
   10.7490    7.5447   23.0270 C   0  0  0  0  0  0  0  0  0  0  0  0
   11.3280    8.7549   20.9037 C   0  0  0  0  0  0  0  0  0  0  0  0
   10.8597    8.9091   22.3500 C   0  0  0  0  0  0  0  0  0  0  0  0
    8.8140   11.3238   23.5270 N   0  0  0  0  0  0  0  0  0  0  0  0
    8.1479    9.3463   24.6712 O   0  0  0  0  0  0  0  0  0  0  0  0
   10.0176   11.5974   21.5567 O   0  0  0  0  0  0  0  0  0  0  0  0
    9.5536    9.4961   22.3461 O   0  0  0  0  0  0  0  0  0  0  0  0
    6.4639   11.5919   25.2441 H   0  0  0  0  0  0  0  0  0  0  0  0
    7.6537   11.2235   26.5333 H   0  0  0  0  0  0  0  0  0  0  0  0
    7.6205   13.7155   25.4326 H   0  0  0  0  0  0  0  0  0  0  0  0
    9.1588   12.9120   25.8036 H   0  0  0  0  0  0  0  0  0  0  0  0
    7.7469   13.0427   23.1005 H   0  0  0  0  0  0  0  0  0  0  0  0
    9.4665   13.3282   23.4615 H   0  0  0  0  0  0  0  0  0  0  0  0
   11.8833   10.8035   22.6502 H   0  0  0  0  0  0  0  0  0  0  0  0
   11.4574    9.9700   24.1620 H   0  0  0  0  0  0  0  0  0  0  0  0
   12.8148    9.4073   23.1627 H   0  0  0  0  0  0  0  0  0  0  0  0
   10.0744    6.8857   22.4686 H   0  0  0  0  0  0  0  0  0  0  0  0
   10.3237    7.6414   24.0325 H   0  0  0  0  0  0  0  0  0  0  0  0
   11.7242    7.0539   23.1088 H   0  0  0  0  0  0  0  0  0  0  0  0
   10.6529    8.0993   20.3418 H   0  0  0  0  0  0  0  0  0  0  0  0
   11.3780    9.7208   20.3907 H   0  0  0  0  0  0  0  0  0  0  0  0
   12.3184    8.2871   20.8626 H   0  0  0  0  0  0  0  0  0  0  0  0
  1  3  1  0  0  0  0
  1 10  1  0  0  0  0
  1 11  2  0  0  0  0
  2 10  1  0  0  0  0
  2 12  2  0  0  0  0
  2 13  1  0  0  0  0
  3  4  1  0  0  0  0
  4  5  1  0  0  0  0
  5 10  1  0  0  0  0
  6  9  1  0  0  0  0
  7  9  1  0  0  0  0
  8  9  1  0  0  0  0
  9 13  1  0  0  0  0
  3 14  1  0  0  0  0
  3 15  1  0  0  0  0
  4 16  1  0  0  0  0
  4 17  1  0  0  0  0
  5 18  1  0  0  0  0
  5 19  1  0  0  0  0
  6 20  1  0  0  0  0
  6 21  1  0  0  0  0
  6 22  1  0  0  0  0
  7 23  1  0  0  0  0
  7 24  1  0  0  0  0
  7 25  1  0  0  0  0
  8 26  1  0  0  0  0
  8 27  1  0  0  0  0
  8 28  1  0  0  0  0
M  END
> <id>
EN300-110323

> <smiles>
CC(C)(C)OC(=O)N1CCCC1=O

> <MDLNUMBER>
MFCD00674099

> <IUPAC Name>
tert-butyl 2-oxopyrrolidine-1-carboxylate

> <CAS>
85909-08-6

> <Purity>
95

> <URL>
https://www.enaminestore.com/catalog/EN300-110323

> <MP>
66-68

> <ROCS_ShapeQuery>
_x1140_x0812_0A_x1140_0A_x1097_0A_x0365_0A_x1097_0A_x0310_0A

> <ROCS_TanimotoCombo>
0.614 

> <ROCS_ShapeTanimoto>
0.200 

> <ROCS_ColorTanimoto>
0.414 

> <ROCS_RefTversky>
0.184 

> <ROCS_RefColorTversky>
0.451 

> <ROCS_RefTverskyCombo>
0.635 

> <ROCS_FitTversky>
1.754 

> <ROCS_FitColorTversky>
0.837 

> <ROCS_FitTverskyCombo>
2.592 

> <ROCS_ColorScore>
-3.516

> <ROCS_Overlap>
1887.419

> <ROCS_Rank>
319                 

$$$$
untitled-dbase-501677_3
  -OEChem-02092423213D

 33 34  0     0  0  0  0  0  0999 V2000
    7.4530   14.4535   25.4733 C   0  0  0  0  0  0  0  0  0  0  0  0
    7.2429   13.1691   25.9841 C   0  0  0  0  0  0  0  0  0  0  0  0
    8.1383   14.6385   24.2750 C   0  0  0  0  0  0  0  0  0  0  0  0
    7.7354   12.0646   25.2671 C   0  0  0  0  0  0  0  0  0  0  0  0
    8.4192   12.2637   24.0688 C   0  0  0  0  0  0  0  0  0  0  0  0
    8.6343   13.5496   23.5498 C   0  0  0  0  0  0  0  0  0  0  0  0
    7.7279   10.6702   25.4440 C   0  0  0  0  0  0  0  0  0  0  0  0
    9.4649   10.6483   22.4597 C   0  0  0  0  0  0  0  0  0  0  0  0
    7.1344    9.9057   26.5554 C   0  0  0  0  0  0  0  0  0  0  0  0
   11.6530    9.2788   23.6343 C   0  0  0  0  0  0  0  0  0  0  0  0
   10.9031    7.3017   22.2786 C   0  0  0  0  0  0  0  0  0  0  0  0
   11.6417    9.4046   21.1206 C   0  0  0  0  0  0  0  0  0  0  0  0
   10.9510    8.8262   22.3548 C   0  0  0  0  0  0  0  0  0  0  0  0
    8.3449   10.0194   24.4606 N   0  0  0  0  0  0  0  0  0  0  0  0
    8.7672   10.9968   23.6191 N   0  0  0  0  0  0  0  0  0  0  0  0
    9.8601   11.4988   21.6794 O   0  0  0  0  0  0  0  0  0  0  0  0
    9.6010    9.2988   22.3847 O   0  0  0  0  0  0  0  0  0  0  0  0
    9.2885   13.7705   22.4043 F   0  0  0  0  0  0  0  0  0  0  0  0
    7.0775   15.3155   26.0181 H   0  0  0  0  0  0  0  0  0  0  0  0
    6.7077   13.0366   26.9198 H   0  0  0  0  0  0  0  0  0  0  0  0
    8.2920   15.6455   23.8955 H   0  0  0  0  0  0  0  0  0  0  0  0
    6.0860    9.6377   26.3412 H   0  0  0  0  0  0  0  0  0  0  0  0
    7.6834    8.9688   26.7559 H   0  0  0  0  0  0  0  0  0  0  0  0
    7.1465   10.4723   27.5033 H   0  0  0  0  0  0  0  0  0  0  0  0
   11.6894   10.3725   23.6928 H   0  0  0  0  0  0  0  0  0  0  0  0
   11.1468    8.8994   24.5280 H   0  0  0  0  0  0  0  0  0  0  0  0
   12.6930    8.9335   23.6528 H   0  0  0  0  0  0  0  0  0  0  0  0
   10.4002    6.9725   21.3620 H   0  0  0  0  0  0  0  0  0  0  0  0
   10.3262    6.8871   23.1131 H   0  0  0  0  0  0  0  0  0  0  0  0
   11.9066    6.8645   22.2996 H   0  0  0  0  0  0  0  0  0  0  0  0
   11.1383    9.0801   20.2027 H   0  0  0  0  0  0  0  0  0  0  0  0
   11.6525   10.4992   21.1403 H   0  0  0  0  0  0  0  0  0  0  0  0
   12.6753    9.0473   21.0493 H   0  0  0  0  0  0  0  0  0  0  0  0
  1  2  2  0  0  0  0
  1  3  1  0  0  0  0
  2  4  1  0  0  0  0
  3  6  2  0  0  0  0
  4  5  2  0  0  0  0
  4  7  1  0  0  0  0
  5  6  1  0  0  0  0
  5 15  1  0  0  0  0
  6 18  1  0  0  0  0
  7  9  1  0  0  0  0
  7 14  2  0  0  0  0
  8 15  1  0  0  0  0
  8 16  2  0  0  0  0
  8 17  1  0  0  0  0
 10 13  1  0  0  0  0
 11 13  1  0  0  0  0
 12 13  1  0  0  0  0
 13 17  1  0  0  0  0
 14 15  1  0  0  0  0
  1 19  1  0  0  0  0
  2 20  1  0  0  0  0
  3 21  1  0  0  0  0
  9 22  1  0  0  0  0
  9 23  1  0  0  0  0
  9 24  1  0  0  0  0
 10 25  1  0  0  0  0
 10 26  1  0  0  0  0
 10 27  1  0  0  0  0
 11 28  1  0  0  0  0
 11 29  1  0  0  0  0
 11 30  1  0  0  0  0
 12 31  1  0  0  0  0
 12 32  1  0  0  0  0
 12 33  1  0  0  0  0
M  END
> <id>
EN300-12452795

> <smiles>
CC1=NN(C(=O)OC(C)(C)C)C=2C(F)=CC=CC12

> <MDLNUMBER>
MFCD24473749

> <IUPAC Name>
tert-butyl 7-fluoro-3-methyl-1H-indazole-1-carboxylate

> <CAS>
1017682-74-4

> <URL>
https://www.enaminestore.com/catalog/EN300-12452795

> <ROCS_ShapeQuery>
_x1140_x0812_0A_x1140_0A_x1097_0A_x0365_0A_x1097_0A_x0310_0A

> <ROCS_TanimotoCombo>
0.614 

> <ROCS_ShapeTanimoto>
0.245 

> <ROCS_ColorTanimoto>
0.370 

> <ROCS_RefTversky>
0.222 

> <ROCS_RefColorTversky>
0.447 

> <ROCS_RefTverskyCombo>
0.670 

> <ROCS_FitTversky>
1.717 

> <ROCS_FitColorTversky>
0.680 

> <ROCS_FitTverskyCombo>
2.397 

> <ROCS_ColorScore>
-3.513

> <ROCS_Overlap>
2279.297

> <ROCS_Rank>
320                 

$$$$
untitled-dbase-479575_5
  -OEChem-02092423213D

 38 39  0     1  0  0  0  0  0999 V2000
   10.4671   12.1047   21.5701 C   0  0  0  0  0  0  0  0  0  0  0  0
    9.6085   12.2713   25.2928 C   0  0  0  0  0  0  0  0  0  0  0  0
    8.2962   11.7742   25.9219 C   0  0  0  0  0  0  0  0  0  0  0  0
    8.0102   11.9928   23.5476 C   0  0  0  0  0  0  0  0  0  0  0  0
    9.5373   10.2445   23.8411 C   0  0  0  0  0  0  0  0  0  0  0  0
    9.4910   11.7761   23.8373 C   0  0  2  0  0  0  0  0  0  0  0  0
    7.5958   11.1149   24.7224 C   0  0  2  0  0  0  0  0  0  0  0  0
   10.2906   12.9836   18.8598 C   0  0  0  0  0  0  0  0  0  0  0  0
   12.7151   13.5967   19.0953 C   0  0  0  0  0  0  0  0  0  0  0  0
   12.0024   11.2000   19.3320 C   0  0  0  0  0  0  0  0  0  0  0  0
    6.1144   10.8846   24.8962 C   0  0  0  0  0  0  0  0  0  0  0  0
   11.6064   12.6573   19.5648 C   0  0  0  0  0  0  0  0  0  0  0  0
   10.3957   12.3949   22.9283 N   0  0  0  0  0  0  0  0  0  0  0  0
    9.7650   11.2848   20.9876 O   0  0  0  0  0  0  0  0  0  0  0  0
    8.2885    9.8676   24.4697 O   0  0  0  0  0  0  0  0  0  0  0  0
    5.9027   10.0247   26.0079 O   0  0  0  0  0  0  0  0  0  0  0  0
   11.4331   12.8635   20.9713 O   0  0  0  0  0  0  0  0  0  0  0  0
    9.6523   13.3657   25.3441 H   0  0  0  0  0  0  0  0  0  0  0  0
   10.4864   11.8670   25.8075 H   0  0  0  0  0  0  0  0  0  0  0  0
    8.4960   11.0597   26.7273 H   0  0  0  0  0  0  0  0  0  0  0  0
    7.7234   12.6171   26.3231 H   0  0  0  0  0  0  0  0  0  0  0  0
    7.6805   13.0332   23.6379 H   0  0  0  0  0  0  0  0  0  0  0  0
    7.7061   11.5820   22.5782 H   0  0  0  0  0  0  0  0  0  0  0  0
    9.5412    9.8183   22.8319 H   0  0  0  0  0  0  0  0  0  0  0  0
   10.3725    9.8303   24.4140 H   0  0  0  0  0  0  0  0  0  0  0  0
    9.4923   12.3115   19.1941 H   0  0  0  0  0  0  0  0  0  0  0  0
    9.9776   14.0158   19.0476 H   0  0  0  0  0  0  0  0  0  0  0  0
   10.3815   12.8411   17.7769 H   0  0  0  0  0  0  0  0  0  0  0  0
   13.6610   13.3661   19.5986 H   0  0  0  0  0  0  0  0  0  0  0  0
   12.4776   14.6368   19.3460 H   0  0  0  0  0  0  0  0  0  0  0  0
   12.8720   13.5279   18.0140 H   0  0  0  0  0  0  0  0  0  0  0  0
   12.9462   10.9656   19.8376 H   0  0  0  0  0  0  0  0  0  0  0  0
   11.2345   10.5101   19.6966 H   0  0  0  0  0  0  0  0  0  0  0  0
   12.1665   11.0064   18.2657 H   0  0  0  0  0  0  0  0  0  0  0  0
    5.6873   10.4134   24.0039 H   0  0  0  0  0  0  0  0  0  0  0  0
    5.5932   11.8303   25.0819 H   0  0  0  0  0  0  0  0  0  0  0  0
   11.0378   13.1024   23.3002 H   0  0  0  0  0  0  0  0  0  0  0  0
    4.9431    9.9007   26.0874 H   0  0  0  0  0  0  0  0  0  0  0  0
  1 13  1  0  0  0  0
  1 14  2  0  0  0  0
  1 17  1  0  0  0  0
  2  3  1  0  0  0  0
  2  6  1  0  0  0  0
  3  7  1  0  0  0  0
  4  6  1  0  0  0  0
  4  7  1  0  0  0  0
  5  6  1  0  0  0  0
  5 15  1  0  0  0  0
  6 13  1  0  0  0  0
  7 11  1  0  0  0  0
  7 15  1  0  0  0  0
  8 12  1  0  0  0  0
  9 12  1  0  0  0  0
 10 12  1  0  0  0  0
 11 16  1  0  0  0  0
 12 17  1  0  0  0  0
  2 18  1  0  0  0  0
  2 19  1  0  0  0  0
  3 20  1  0  0  0  0
  3 21  1  0  0  0  0
  4 22  1  0  0  0  0
  4 23  1  0  0  0  0
  5 24  1  0  0  0  0
  5 25  1  0  0  0  0
  8 26  1  0  0  0  0
  8 27  1  0  0  0  0
  8 28  1  0  0  0  0
  9 29  1  0  0  0  0
  9 30  1  0  0  0  0
  9 31  1  0  0  0  0
 10 32  1  0  0  0  0
 10 33  1  0  0  0  0
 10 34  1  0  0  0  0
 11 35  1  0  0  0  0
 11 36  1  0  0  0  0
 13 37  1  0  0  0  0
 16 38  1  0  0  0  0
M  END
> <id>
EN300-7563710

> <smiles>
CC(C)(C)OC(=O)NC1(CCC2(CO)C1)CO2

> <IUPAC Name>
tert-butyl N-[1-(hydroxymethyl)-2-oxabicyclo[2.2.1]heptan-4-yl]carbamate

> <CAS>
2580185-38-0

> <URL>
https://www.enaminestore.com/catalog/EN300-7563710

> <ROCS_ShapeQuery>
_x1140_x0812_0A_x1140_0A_x1097_0A_x0365_0A_x1097_0A_x0310_0A

> <ROCS_TanimotoCombo>
0.614 

> <ROCS_ShapeTanimoto>
0.219 

> <ROCS_ColorTanimoto>
0.395 

> <ROCS_RefTversky>
0.202 

> <ROCS_RefColorTversky>
0.702 

> <ROCS_RefTverskyCombo>
0.904 

> <ROCS_FitTversky>
1.646 

> <ROCS_FitColorTversky>
0.475 

> <ROCS_FitTverskyCombo>
2.120 

> <ROCS_ColorScore>
-5.773

> <ROCS_Overlap>
2070.713

> <ROCS_Rank>
321                 

$$$$
untitled-dbase-269256_0
  -OEChem-02092423213D

 22 22  0     0  0  0  0  0  0999 V2000
    7.8715   12.1509   24.7832 C   0  0  0  0  0  0  0  0  0  0  0  0
    8.5764   12.4138   23.6139 C   0  0  0  0  0  0  0  0  0  0  0  0
    7.7973   10.8361   25.2140 C   0  0  0  0  0  0  0  0  0  0  0  0
    9.1770   11.3687   22.9209 C   0  0  0  0  0  0  0  0  0  0  0  0
    9.0445   10.0889   23.4351 C   0  0  0  0  0  0  0  0  0  0  0  0
   10.9877    8.8793   22.5608 C   0  0  0  0  0  0  0  0  0  0  0  0
    9.6465    8.9472   22.7612 C   0  0  0  0  0  0  0  0  0  0  0  0
    9.9329   12.9834   21.3469 C   0  0  0  0  0  0  0  0  0  0  0  0
    8.7769    7.7831   22.3228 C   0  0  0  0  0  0  0  0  0  0  0  0
    8.3676    9.7946   24.5678 N   0  0  0  0  0  0  0  0  0  0  0  0
    9.8655   11.6237   21.7778 O   0  0  0  0  0  0  0  0  0  0  0  0
    7.5511    8.3290   21.1525 Cl  0  0  0  0  0  0  0  0  0  0  0  0
    7.3957   12.9495   25.3410 H   0  0  0  0  0  0  0  0  0  0  0  0
    8.6528   13.4342   23.2483 H   0  0  0  0  0  0  0  0  0  0  0  0
    7.2599   10.5777   26.1206 H   0  0  0  0  0  0  0  0  0  0  0  0
   11.4434    8.0316   22.0593 H   0  0  0  0  0  0  0  0  0  0  0  0
   11.6586    9.6699   22.8823 H   0  0  0  0  0  0  0  0  0  0  0  0
   10.5119   13.0451   20.4222 H   0  0  0  0  0  0  0  0  0  0  0  0
   10.4030   13.5902   22.1249 H   0  0  0  0  0  0  0  0  0  0  0  0
    8.9196   13.3491   21.1648 H   0  0  0  0  0  0  0  0  0  0  0  0
    9.3514    6.9920   21.8294 H   0  0  0  0  0  0  0  0  0  0  0  0
    8.2612    7.3209   23.1692 H   0  0  0  0  0  0  0  0  0  0  0  0
  1  2  2  0  0  0  0
  1  3  1  0  0  0  0
  2  4  1  0  0  0  0
  3 10  2  0  0  0  0
  4  5  2  0  0  0  0
  4 11  1  0  0  0  0
  5  7  1  0  0  0  0
  5 10  1  0  0  0  0
  6  7  2  0  0  0  0
  7  9  1  0  0  0  0
  8 11  1  0  0  0  0
  9 12  1  0  0  0  0
  1 13  1  0  0  0  0
  2 14  1  0  0  0  0
  3 15  1  0  0  0  0
  6 16  1  0  0  0  0
  6 17  1  0  0  0  0
  8 18  1  0  0  0  0
  8 19  1  0  0  0  0
  8 20  1  0  0  0  0
  9 21  1  0  0  0  0
  9 22  1  0  0  0  0
M  END
> <id>
EN300-1992524

> <smiles>
COC=1C=CC=NC1C(=C)CCl

> <IUPAC Name>
2-(3-chloroprop-1-en-2-yl)-3-methoxypyridine

> <CAS>
2228495-93-8

> <URL>
https://www.enaminestore.com/catalog/EN300-1992524

> <ROCS_ShapeQuery>
_x1140_x0812_0A_x1140_0A_x1097_0A_x0365_0A_x1097_0A_x0310_0A

> <ROCS_TanimotoCombo>
0.614 

> <ROCS_ShapeTanimoto>
0.194 

> <ROCS_ColorTanimoto>
0.420 

> <ROCS_RefTversky>
0.179 

> <ROCS_RefColorTversky>
0.455 

> <ROCS_RefTverskyCombo>
0.634 

> <ROCS_FitTversky>
1.791 

> <ROCS_FitColorTversky>
0.845 

> <ROCS_FitTverskyCombo>
2.636 

> <ROCS_ColorScore>
-3.550

> <ROCS_Overlap>
1832.073

> <ROCS_Rank>
322                 

$$$$
untitled-dbase-458479_4
  -OEChem-02092423213D

 26 26  0     0  0  0  0  0  0999 V2000
    8.6877   12.2532   24.5892 C   0  0  0  0  0  0  0  0  0  0  0  0
    7.9799   11.1909   25.1827 C   0  0  0  0  0  0  0  0  0  0  0  0
    9.3150   11.6858   23.5071 C   0  0  0  0  0  0  0  0  0  0  0  0
    7.1303   11.2396   26.3844 C   0  0  0  0  0  0  0  0  0  0  0  0
   11.8507    9.8842   22.7338 C   0  0  0  0  0  0  0  0  0  0  0  0
   11.0982    7.6780   21.8217 C   0  0  0  0  0  0  0  0  0  0  0  0
    9.3701    9.3355   22.5731 C   0  0  0  0  0  0  0  0  0  0  0  0
   10.7862    8.7888   22.8265 C   0  0  0  0  0  0  0  0  0  0  0  0
    8.1418   10.0360   24.5315 N   0  0  0  0  0  0  0  0  0  0  0  0
    8.9585   10.3694   23.5176 N   0  0  0  0  0  0  0  0  0  0  0  0
   10.1312   12.1959   22.5620 N   0  0  0  0  0  0  0  0  0  0  0  0
    8.7367   13.2859   24.9040 H   0  0  0  0  0  0  0  0  0  0  0  0
    6.0825   11.4696   26.1254 H   0  0  0  0  0  0  0  0  0  0  0  0
    7.1336   10.2830   26.9369 H   0  0  0  0  0  0  0  0  0  0  0  0
    7.4702   12.0052   27.1049 H   0  0  0  0  0  0  0  0  0  0  0  0
   11.8420   10.3500   21.7424 H   0  0  0  0  0  0  0  0  0  0  0  0
   11.6786   10.6699   23.4771 H   0  0  0  0  0  0  0  0  0  0  0  0
   12.8541    9.4774   22.8930 H   0  0  0  0  0  0  0  0  0  0  0  0
   11.0633    8.0598   20.7958 H   0  0  0  0  0  0  0  0  0  0  0  0
   12.1003    7.2705   21.9912 H   0  0  0  0  0  0  0  0  0  0  0  0
   10.3791    6.8555   21.9018 H   0  0  0  0  0  0  0  0  0  0  0  0
    9.2834    9.7445   21.5590 H   0  0  0  0  0  0  0  0  0  0  0  0
    8.6269    8.5316   22.6527 H   0  0  0  0  0  0  0  0  0  0  0  0
   10.8343    8.3546   23.8332 H   0  0  0  0  0  0  0  0  0  0  0  0
   10.3668   13.1992   22.5229 H   0  0  0  0  0  0  0  0  0  0  0  0
   10.4846   11.6279   21.7770 H   0  0  0  0  0  0  0  0  0  0  0  0
  1  2  1  0  0  0  0
  1  3  2  0  0  0  0
  2  4  1  0  0  0  0
  2  9  2  0  0  0  0
  3 10  1  0  0  0  0
  3 11  1  0  0  0  0
  5  8  1  0  0  0  0
  6  8  1  0  0  0  0
  7  8  1  0  0  0  0
  7 10  1  0  0  0  0
  9 10  1  0  0  0  0
  1 12  1  0  0  0  0
  4 13  1  0  0  0  0
  4 14  1  0  0  0  0
  4 15  1  0  0  0  0
  5 16  1  0  0  0  0
  5 17  1  0  0  0  0
  5 18  1  0  0  0  0
  6 19  1  0  0  0  0
  6 20  1  0  0  0  0
  6 21  1  0  0  0  0
  7 22  1  0  0  0  0
  7 23  1  0  0  0  0
  8 24  1  0  0  0  0
 11 25  1  0  0  0  0
 11 26  1  0  0  0  0
M  END
> <id>
EN300-230238

> <smiles>
CC(C)CN1N=C(C)C=C1N

> <MDLNUMBER>
MFCD06805200

> <IUPAC Name>
3-methyl-1-(2-methylpropyl)-1H-pyrazol-5-amine

> <CAS>
3524-36-5

> <Purity>
95

> <URL>
https://www.enaminestore.com/catalog/EN300-230238

> <ROCS_ShapeQuery>
_x1140_x0812_0A_x1140_0A_x1097_0A_x0365_0A_x1097_0A_x0310_0A

> <ROCS_TanimotoCombo>
0.614 

> <ROCS_ShapeTanimoto>
0.201 

> <ROCS_ColorTanimoto>
0.413 

> <ROCS_RefTversky>
0.184 

> <ROCS_RefColorTversky>
0.484 

> <ROCS_RefTverskyCombo>
0.668 

> <ROCS_FitTversky>
1.910 

> <ROCS_FitColorTversky>
0.738 

> <ROCS_FitTverskyCombo>
2.648 

> <ROCS_ColorScore>
-3.800

> <ROCS_Overlap>
1881.408

> <ROCS_Rank>
323                 

$$$$
untitled-dbase-290549_2
  -OEChem-02092423213D

 33 34  0     0  0  0  0  0  0999 V2000
    8.1076   12.1967   23.8905 C   0  0  0  0  0  0  0  0  0  0  0  0
    8.5339   10.9521   23.4893 C   0  0  0  0  0  0  0  0  0  0  0  0
    7.2004   10.5868   25.1249 C   0  0  0  0  0  0  0  0  0  0  0  0
    9.4430   10.6729   22.4199 C   0  0  0  0  0  0  0  0  0  0  0  0
    6.1552   12.3351   27.0745 C   0  0  0  0  0  0  0  0  0  0  0  0
    6.5387   12.9215   25.7190 C   0  0  0  0  0  0  0  0  0  0  0  0
    5.5524   10.9403   26.9032 C   0  0  0  0  0  0  0  0  0  0  0  0
   11.7503    9.7725   23.3903 C   0  0  0  0  0  0  0  0  0  0  0  0
   10.9584    7.4306   22.9456 C   0  0  0  0  0  0  0  0  0  0  0  0
   11.6933    8.8862   21.0353 C   0  0  0  0  0  0  0  0  0  0  0  0
   11.0208    8.8583   22.4071 C   0  0  0  0  0  0  0  0  0  0  0  0
    7.9719    9.9609   24.2579 N   0  0  0  0  0  0  0  0  0  0  0  0
    7.2646   11.9463   24.9298 N   0  0  0  0  0  0  0  0  0  0  0  0
    6.4307   10.0862   26.1192 N   0  0  0  0  0  0  0  0  0  0  0  0
    9.9857   11.5316   21.6889 O   0  0  0  0  0  0  0  0  0  0  0  0
    9.6747    9.3246   22.2643 O   0  0  0  0  0  0  0  0  0  0  0  0
    8.3236   13.1962   23.5392 H   0  0  0  0  0  0  0  0  0  0  0  0
    7.0452   12.2671   27.7134 H   0  0  0  0  0  0  0  0  0  0  0  0
    5.4453   12.9968   27.5826 H   0  0  0  0  0  0  0  0  0  0  0  0
    5.6480   13.1934   25.1419 H   0  0  0  0  0  0  0  0  0  0  0  0
    7.1702   13.8071   25.8417 H   0  0  0  0  0  0  0  0  0  0  0  0
    5.3818   10.4848   27.8843 H   0  0  0  0  0  0  0  0  0  0  0  0
    4.5804   11.0109   26.4010 H   0  0  0  0  0  0  0  0  0  0  0  0
   11.7972   10.7982   23.0074 H   0  0  0  0  0  0  0  0  0  0  0  0
   11.2576    9.7885   24.3679 H   0  0  0  0  0  0  0  0  0  0  0  0
   12.7875    9.4473   23.5308 H   0  0  0  0  0  0  0  0  0  0  0  0
   10.4358    6.7712   22.2434 H   0  0  0  0  0  0  0  0  0  0  0  0
   10.3936    7.3918   23.8841 H   0  0  0  0  0  0  0  0  0  0  0  0
   11.9583    7.0227   23.1256 H   0  0  0  0  0  0  0  0  0  0  0  0
   11.1702    8.2306   20.3299 H   0  0  0  0  0  0  0  0  0  0  0  0
   11.7140    9.8977   20.6168 H   0  0  0  0  0  0  0  0  0  0  0  0
   12.7224    8.5144   21.0983 H   0  0  0  0  0  0  0  0  0  0  0  0
    6.3692    9.0846   26.2777 H   0  0  0  0  0  0  0  0  0  0  0  0
  1  2  2  0  0  0  0
  1 13  1  0  0  0  0
  2  4  1  0  0  0  0
  2 12  1  0  0  0  0
  3 12  2  0  0  0  0
  3 13  1  0  0  0  0
  3 14  1  0  0  0  0
  4 15  2  0  0  0  0
  4 16  1  0  0  0  0
  5  6  1  0  0  0  0
  5  7  1  0  0  0  0
  6 13  1  0  0  0  0
  7 14  1  0  0  0  0
  8 11  1  0  0  0  0
  9 11  1  0  0  0  0
 10 11  1  0  0  0  0
 11 16  1  0  0  0  0
  1 17  1  0  0  0  0
  5 18  1  0  0  0  0
  5 19  1  0  0  0  0
  6 20  1  0  0  0  0
  6 21  1  0  0  0  0
  7 22  1  0  0  0  0
  7 23  1  0  0  0  0
  8 24  1  0  0  0  0
  8 25  1  0  0  0  0
  8 26  1  0  0  0  0
  9 27  1  0  0  0  0
  9 28  1  0  0  0  0
  9 29  1  0  0  0  0
 10 30  1  0  0  0  0
 10 31  1  0  0  0  0
 10 32  1  0  0  0  0
 14 33  1  0  0  0  0
M  END
> <id>
EN300-6510693

> <smiles>
CC(C)(C)OC(=O)C1=CN2CCCNC2=N1

> <IUPAC Name>
tert-butyl 5H,6H,7H,8H-imidazo[1,2-a]pyrimidine-2-carboxylate

> <CAS>
2011077-72-6

> <URL>
https://www.enaminestore.com/catalog/EN300-6510693

> <ROCS_ShapeQuery>
_x1140_x0812_0A_x1140_0A_x1097_0A_x0365_0A_x1097_0A_x0310_0A

> <ROCS_TanimotoCombo>
0.614 

> <ROCS_ShapeTanimoto>
0.238 

> <ROCS_ColorTanimoto>
0.377 

> <ROCS_RefTversky>
0.215 

> <ROCS_RefColorTversky>
0.517 

> <ROCS_RefTverskyCombo>
0.732 

> <ROCS_FitTversky>
1.797 

> <ROCS_FitColorTversky>
0.581 

> <ROCS_FitTverskyCombo>
2.378 

> <ROCS_ColorScore>
-4.110

> <ROCS_Overlap>
2205.104

> <ROCS_Rank>
324                 

$$$$
untitled-dbase-501607_5
  -OEChem-02092423213D

 24 24  0     0  0  0  0  0  0999 V2000
    7.7456   10.6977   25.4418 C   0  0  0  0  0  0  0  0  0  0  0  0
    8.4162   12.2731   24.0673 C   0  0  0  0  0  0  0  0  0  0  0  0
    7.7494   12.0883   25.2538 C   0  0  0  0  0  0  0  0  0  0  0  0
    9.4600   10.6594   22.4613 C   0  0  0  0  0  0  0  0  0  0  0  0
   11.6478    9.3062   23.6496 C   0  0  0  0  0  0  0  0  0  0  0  0
   10.8865    7.3088   22.3304 C   0  0  0  0  0  0  0  0  0  0  0  0
   11.6259    9.3897   21.1342 C   0  0  0  0  0  0  0  0  0  0  0  0
   10.9389    8.8342   22.3809 C   0  0  0  0  0  0  0  0  0  0  0  0
    8.3602   10.0412   24.4562 N   0  0  0  0  0  0  0  0  0  0  0  0
    8.7700   11.0217   23.6148 N   0  0  0  0  0  0  0  0  0  0  0  0
    9.8502   11.5048   21.6722 O   0  0  0  0  0  0  0  0  0  0  0  0
    9.5906    9.3111   22.4086 O   0  0  0  0  0  0  0  0  0  0  0  0
    7.0745   13.2499   26.2779 Cl  0  0  0  0  0  0  0  0  0  0  0  0
    7.3211   10.1273   26.2559 H   0  0  0  0  0  0  0  0  0  0  0  0
    8.6632   13.1724   23.5191 H   0  0  0  0  0  0  0  0  0  0  0  0
   11.6875   10.4006   23.6895 H   0  0  0  0  0  0  0  0  0  0  0  0
   11.1444    8.9433   24.5516 H   0  0  0  0  0  0  0  0  0  0  0  0
   12.6869    8.9582   23.6694 H   0  0  0  0  0  0  0  0  0  0  0  0
   10.3787    6.9657   21.4217 H   0  0  0  0  0  0  0  0  0  0  0  0
   10.3120    6.9099   23.1743 H   0  0  0  0  0  0  0  0  0  0  0  0
   11.8887    6.8690   22.3545 H   0  0  0  0  0  0  0  0  0  0  0  0
   11.1177    9.0513   20.2240 H   0  0  0  0  0  0  0  0  0  0  0  0
   11.6400   10.4845   21.1354 H   0  0  0  0  0  0  0  0  0  0  0  0
   12.6583    9.0283   21.0644 H   0  0  0  0  0  0  0  0  0  0  0  0
  1  3  1  0  0  0  0
  1  9  2  0  0  0  0
  2  3  2  0  0  0  0
  2 10  1  0  0  0  0
  3 13  1  0  0  0  0
  4 10  1  0  0  0  0
  4 11  2  0  0  0  0
  4 12  1  0  0  0  0
  5  8  1  0  0  0  0
  6  8  1  0  0  0  0
  7  8  1  0  0  0  0
  8 12  1  0  0  0  0
  9 10  1  0  0  0  0
  1 14  1  0  0  0  0
  2 15  1  0  0  0  0
  5 16  1  0  0  0  0
  5 17  1  0  0  0  0
  5 18  1  0  0  0  0
  6 19  1  0  0  0  0
  6 20  1  0  0  0  0
  6 21  1  0  0  0  0
  7 22  1  0  0  0  0
  7 23  1  0  0  0  0
  7 24  1  0  0  0  0
M  END
> <id>
EN300-7399288

> <smiles>
CC(C)(C)OC(=O)N1C=C(Cl)C=N1

> <MDLNUMBER>
MFCD29044187

> <IUPAC Name>
tert-butyl 4-chloro-1H-pyrazole-1-carboxylate

> <CAS>
1821332-22-2

> <URL>
https://www.enaminestore.com/catalog/EN300-7399288

> <ROCS_ShapeQuery>
_x1140_x0812_0A_x1140_0A_x1097_0A_x0365_0A_x1097_0A_x0310_0A

> <ROCS_TanimotoCombo>
0.614 

> <ROCS_ShapeTanimoto>
0.201 

> <ROCS_ColorTanimoto>
0.413 

> <ROCS_RefTversky>
0.185 

> <ROCS_RefColorTversky>
0.450 

> <ROCS_RefTverskyCombo>
0.635 

> <ROCS_FitTversky>
1.757 

> <ROCS_FitColorTversky>
0.835 

> <ROCS_FitTverskyCombo>
2.592 

> <ROCS_ColorScore>
-3.508

> <ROCS_Overlap>
1897.972

> <ROCS_Rank>
325                 

$$$$
untitled-dbase-531787_3
  -OEChem-02092423213D

 26 27  0     0  0  0  0  0  0999 V2000
    8.8596   12.5519   24.5665 C   0  0  0  0  0  0  0  0  0  0  0  0
    7.3681   10.7908   25.1415 C   0  0  0  0  0  0  0  0  0  0  0  0
    7.6970   12.1352   25.2054 C   0  0  0  0  0  0  0  0  0  0  0  0
    9.6465   11.6245   23.8928 C   0  0  0  0  0  0  0  0  0  0  0  0
    9.2304   10.3029   23.8877 C   0  0  0  0  0  0  0  0  0  0  0  0
    6.1164   12.6519   27.1824 C   0  0  0  0  0  0  0  0  0  0  0  0
    5.3376   12.9018   25.9289 C   0  0  0  0  0  0  0  0  0  0  0  0
    6.8326   13.1015   25.9335 C   0  0  0  0  0  0  0  0  0  0  0  0
    9.6942    7.9687   23.1380 C   0  0  0  0  0  0  0  0  0  0  0  0
   10.8916   12.0750   23.2075 C   0  0  0  0  0  0  0  0  0  0  0  0
    8.1075    9.8605   24.4968 N   0  0  0  0  0  0  0  0  0  0  0  0
   10.0300    9.3535   23.2033 N   0  0  0  0  0  0  0  0  0  0  0  0
   11.1283   13.4153   23.3264 F   0  0  0  0  0  0  0  0  0  0  0  0
   12.0236   11.4712   23.6767 F   0  0  0  0  0  0  0  0  0  0  0  0
   10.8731   11.8248   21.8657 F   0  0  0  0  0  0  0  0  0  0  0  0
    9.1514   13.5990   24.5932 H   0  0  0  0  0  0  0  0  0  0  0  0
    6.4729   10.4068   25.6210 H   0  0  0  0  0  0  0  0  0  0  0  0
    6.0186   13.3696   27.9885 H   0  0  0  0  0  0  0  0  0  0  0  0
    6.2245   11.6254   27.5114 H   0  0  0  0  0  0  0  0  0  0  0  0
    4.9238   12.0427   25.4142 H   0  0  0  0  0  0  0  0  0  0  0  0
    4.7136   13.7868   25.8899 H   0  0  0  0  0  0  0  0  0  0  0  0
    7.1762   14.1299   25.9242 H   0  0  0  0  0  0  0  0  0  0  0  0
    8.7558    7.7922   23.6841 H   0  0  0  0  0  0  0  0  0  0  0  0
    9.5678    7.6714   22.0865 H   0  0  0  0  0  0  0  0  0  0  0  0
   10.5004    7.3743   23.5928 H   0  0  0  0  0  0  0  0  0  0  0  0
   10.8559    9.7004   22.7604 H   0  0  0  0  0  0  0  0  0  0  0  0
  1  3  2  0  0  0  0
  1  4  1  0  0  0  0
  2  3  1  0  0  0  0
  2 11  2  0  0  0  0
  3  8  1  0  0  0  0
  4  5  2  0  0  0  0
  4 10  1  0  0  0  0
  5 11  1  0  0  0  0
  5 12  1  0  0  0  0
  6  7  1  0  0  0  0
  6  8  1  0  0  0  0
  7  8  1  0  0  0  0
  9 12  1  0  0  0  0
 10 13  1  0  0  0  0
 10 14  1  0  0  0  0
 10 15  1  0  0  0  0
  1 16  1  0  0  0  0
  2 17  1  0  0  0  0
  6 18  1  0  0  0  0
  6 19  1  0  0  0  0
  7 20  1  0  0  0  0
  7 21  1  0  0  0  0
  8 22  1  0  0  0  0
  9 23  1  0  0  0  0
  9 24  1  0  0  0  0
  9 25  1  0  0  0  0
 12 26  1  0  0  0  0
M  END
> <id>
EN300-359480

> <smiles>
CNC=1N=CC(=CC1C(F)(F)F)C2CC2

> <MDLNUMBER>
MFCD30538078

> <IUPAC Name>
5-cyclopropyl-N-methyl-3-(trifluoromethyl)pyridin-2-amine

> <CAS>
2092452-72-5

> <URL>
https://www.enaminestore.com/catalog/EN300-359480

> <ROCS_ShapeQuery>
_x1140_x0812_0A_x1140_0A_x1097_0A_x0365_0A_x1097_0A_x0310_0A

> <ROCS_TanimotoCombo>
0.614 

> <ROCS_ShapeTanimoto>
0.259 

> <ROCS_ColorTanimoto>
0.355 

> <ROCS_RefTversky>
0.229 

> <ROCS_RefColorTversky>
0.372 

> <ROCS_RefTverskyCombo>
0.601 

> <ROCS_FitTversky>
1.998 

> <ROCS_FitColorTversky>
0.887 

> <ROCS_FitTverskyCombo>
2.885 

> <ROCS_ColorScore>
-2.883

> <ROCS_Overlap>
2351.830

> <ROCS_Rank>
326                 

$$$$
untitled-dbase-280955_8
  -OEChem-02092423213D

 26 27  0     0  0  0  0  0  0999 V2000
    8.4684   12.3017   24.0235 C   0  0  0  0  0  0  0  0  0  0  0  0
    7.4524   11.9269   24.8957 C   0  0  0  0  0  0  0  0  0  0  0  0
    9.0372   10.0051   23.7818 C   0  0  0  0  0  0  0  0  0  0  0  0
    9.2804   11.3286   23.4517 C   0  0  0  0  0  0  0  0  0  0  0  0
    7.2910   10.5765   25.1609 C   0  0  0  0  0  0  0  0  0  0  0  0
   10.3484   11.6889   22.5358 C   0  0  0  0  0  0  0  0  0  0  0  0
    4.1705   11.6976   25.9719 C   0  0  0  0  0  0  0  0  0  0  0  0
    4.0228   10.7910   27.1587 C   0  0  0  0  0  0  0  0  0  0  0  0
    5.3935   11.1689   26.6691 C   0  0  0  0  0  0  0  0  0  0  0  0
   12.6578   12.2784   22.3991 C   0  0  0  0  0  0  0  0  0  0  0  0
    8.0599    9.6025   24.6247 N   0  0  0  0  0  0  0  0  0  0  0  0
    6.2523   10.2108   26.0528 N   0  0  0  0  0  0  0  0  0  0  0  0
   10.2173   11.7846   21.3071 O   0  0  0  0  0  0  0  0  0  0  0  0
   11.5262   11.9132   23.1964 O   0  0  0  0  0  0  0  0  0  0  0  0
    8.6194   13.3538   23.7978 H   0  0  0  0  0  0  0  0  0  0  0  0
    6.8136   12.6797   25.3463 H   0  0  0  0  0  0  0  0  0  0  0  0
    9.6376    9.2003   23.3679 H   0  0  0  0  0  0  0  0  0  0  0  0
    3.9178   11.2966   24.9980 H   0  0  0  0  0  0  0  0  0  0  0  0
    3.9285   12.7450   26.1033 H   0  0  0  0  0  0  0  0  0  0  0  0
    3.6812   11.2283   28.0888 H   0  0  0  0  0  0  0  0  0  0  0  0
    3.6717    9.7821   26.9802 H   0  0  0  0  0  0  0  0  0  0  0  0
    5.9520   11.8731   27.2760 H   0  0  0  0  0  0  0  0  0  0  0  0
   13.5267   12.4273   23.0449 H   0  0  0  0  0  0  0  0  0  0  0  0
   12.4367   13.1972   21.8502 H   0  0  0  0  0  0  0  0  0  0  0  0
   12.8674   11.4741   21.6899 H   0  0  0  0  0  0  0  0  0  0  0  0
    6.1440    9.2345   26.2377 H   0  0  0  0  0  0  0  0  0  0  0  0
  1  2  2  0  0  0  0
  1  4  1  0  0  0  0
  2  5  1  0  0  0  0
  3  4  2  0  0  0  0
  3 11  1  0  0  0  0
  4  6  1  0  0  0  0
  5 11  2  0  0  0  0
  5 12  1  0  0  0  0
  6 13  2  0  0  0  0
  6 14  1  0  0  0  0
  7  8  1  0  0  0  0
  7  9  1  0  0  0  0
  8  9  1  0  0  0  0
  9 12  1  0  0  0  0
 10 14  1  0  0  0  0
  1 15  1  0  0  0  0
  2 16  1  0  0  0  0
  3 17  1  0  0  0  0
  7 18  1  0  0  0  0
  7 19  1  0  0  0  0
  8 20  1  0  0  0  0
  8 21  1  0  0  0  0
  9 22  1  0  0  0  0
 10 23  1  0  0  0  0
 10 24  1  0  0  0  0
 10 25  1  0  0  0  0
 12 26  1  0  0  0  0
M  END
> <id>
EN300-6509690

> <smiles>
COC(=O)C=1C=CC(NC2CC2)=NC1

> <MDLNUMBER>
MFCD16652281

> <IUPAC Name>
methyl 6-(cyclopropylamino)pyridine-3-carboxylate

> <CAS>
1228671-54-2

> <URL>
https://www.enaminestore.com/catalog/EN300-6509690

> <ROCS_ShapeQuery>
_x1140_x0812_0A_x1140_0A_x1097_0A_x0365_0A_x1097_0A_x0310_0A

> <ROCS_TanimotoCombo>
0.614 

> <ROCS_ShapeTanimoto>
0.224 

> <ROCS_ColorTanimoto>
0.390 

> <ROCS_RefTversky>
0.203 

> <ROCS_RefColorTversky>
0.432 

> <ROCS_RefTverskyCombo>
0.635 

> <ROCS_FitTversky>
1.850 

> <ROCS_FitColorTversky>
0.802 

> <ROCS_FitTverskyCombo>
2.652 

> <ROCS_ColorScore>
-3.369

> <ROCS_Overlap>
2080.850

> <ROCS_Rank>
327                 

$$$$
untitled-dbase-479084_7
  -OEChem-02092423213D

 24 24  0     0  0  0  0  0  0999 V2000
    8.4410   12.3768   24.3078 C   0  0  0  0  0  0  0  0  0  0  0  0
    7.4607   11.9397   25.1811 C   0  0  0  0  0  0  0  0  0  0  0  0
    9.1333   11.4259   23.5853 C   0  0  0  0  0  0  0  0  0  0  0  0
    7.2373   10.5806   25.2739 C   0  0  0  0  0  0  0  0  0  0  0  0
   10.1748   11.8108   22.6509 C   0  0  0  0  0  0  0  0  0  0  0  0
   11.9740   14.3124   21.9260 C   0  0  0  0  0  0  0  0  0  0  0  0
    5.9167    8.7537   26.3435 C   0  0  0  0  0  0  0  0  0  0  0  0
   12.2774   12.9264   22.4538 C   0  0  0  0  0  0  0  0  0  0  0  0
    8.8937   10.1021   23.6962 N   0  0  0  0  0  0  0  0  0  0  0  0
    7.9299    9.6726   24.5543 N   0  0  0  0  0  0  0  0  0  0  0  0
    6.2351   10.1345   26.1666 N   0  0  0  0  0  0  0  0  0  0  0  0
   10.1580   11.5605   21.4366 O   0  0  0  0  0  0  0  0  0  0  0  0
   11.1875   12.4906   23.2734 O   0  0  0  0  0  0  0  0  0  0  0  0
    8.6505   13.4360   24.2022 H   0  0  0  0  0  0  0  0  0  0  0  0
    6.8930   12.6543   25.7681 H   0  0  0  0  0  0  0  0  0  0  0  0
   11.0626   14.3090   21.3218 H   0  0  0  0  0  0  0  0  0  0  0  0
   11.8484   15.0208   22.7515 H   0  0  0  0  0  0  0  0  0  0  0  0
   12.8029   14.6818   21.3131 H   0  0  0  0  0  0  0  0  0  0  0  0
    6.5609    8.1423   25.6945 H   0  0  0  0  0  0  0  0  0  0  0  0
    6.0810    8.4712   27.3938 H   0  0  0  0  0  0  0  0  0  0  0  0
    4.8627    8.5837   26.0786 H   0  0  0  0  0  0  0  0  0  0  0  0
   13.1900   12.9367   23.0572 H   0  0  0  0  0  0  0  0  0  0  0  0
   12.4019   12.2197   21.6278 H   0  0  0  0  0  0  0  0  0  0  0  0
    5.7445   10.8386   26.6814 H   0  0  0  0  0  0  0  0  0  0  0  0
  1  2  2  0  0  0  0
  1  3  1  0  0  0  0
  2  4  1  0  0  0  0
  3  5  1  0  0  0  0
  3  9  2  0  0  0  0
  4 10  2  0  0  0  0
  4 11  1  0  0  0  0
  5 12  2  0  0  0  0
  5 13  1  0  0  0  0
  6  8  1  0  0  0  0
  7 11  1  0  0  0  0
  8 13  1  0  0  0  0
  9 10  1  0  0  0  0
  1 14  1  0  0  0  0
  2 15  1  0  0  0  0
  6 16  1  0  0  0  0
  6 17  1  0  0  0  0
  6 18  1  0  0  0  0
  7 19  1  0  0  0  0
  7 20  1  0  0  0  0
  7 21  1  0  0  0  0
  8 22  1  0  0  0  0
  8 23  1  0  0  0  0
 11 24  1  0  0  0  0
M  END
> <id>
EN300-6509933

> <smiles>
CCOC(=O)C=1C=CC(NC)=NN1

> <MDLNUMBER>
MFCD28014556

> <IUPAC Name>
ethyl 6-(methylamino)pyridazine-3-carboxylate

> <CAS>
365413-16-7

> <URL>
https://www.enaminestore.com/catalog/EN300-6509933

> <ROCS_ShapeQuery>
_x1140_x0812_0A_x1140_0A_x1097_0A_x0365_0A_x1097_0A_x0310_0A

> <ROCS_TanimotoCombo>
0.614 

> <ROCS_ShapeTanimoto>
0.224 

> <ROCS_ColorTanimoto>
0.390 

> <ROCS_RefTversky>
0.203 

> <ROCS_RefColorTversky>
0.475 

> <ROCS_RefTverskyCombo>
0.677 

> <ROCS_FitTversky>
1.927 

> <ROCS_FitColorTversky>
0.685 

> <ROCS_FitTverskyCombo>
2.613 

> <ROCS_ColorScore>
-3.734

> <ROCS_Overlap>
2075.968

> <ROCS_Rank>
328                 

$$$$
untitled-dbase-566661_9
  -OEChem-02092423213D

 39 39  0     0  0  0  0  0  0999 V2000
   10.2021   11.2308   22.6229 C   0  0  0  0  0  0  0  0  0  0  0  0
    7.1372   12.0976   24.3529 C   0  0  0  0  0  0  0  0  0  0  0  0
    8.7491   11.0319   25.9742 C   0  0  0  0  0  0  0  0  0  0  0  0
    8.3250   12.5786   23.5214 C   0  0  0  0  0  0  0  0  0  0  0  0
    9.9117   11.5286   25.1152 C   0  0  0  0  0  0  0  0  0  0  0  0
    7.4796   11.9042   25.8474 C   0  0  0  0  0  0  0  0  0  0  0  0
   11.2209    9.1076   20.9959 C   0  0  0  0  0  0  0  0  0  0  0  0
   12.5274    8.4248   23.0297 C   0  0  0  0  0  0  0  0  0  0  0  0
   10.0166    8.4069   23.0919 C   0  0  0  0  0  0  0  0  0  0  0  0
    6.3065   11.1919   26.5454 C   0  0  0  0  0  0  0  0  0  0  0  0
    7.6867   13.2664   26.5373 C   0  0  0  0  0  0  0  0  0  0  0  0
   11.2543    9.0996   22.5235 C   0  0  0  0  0  0  0  0  0  0  0  0
    9.4968   11.7288   23.7238 N   0  0  0  0  0  0  0  0  0  0  0  0
    9.9070   11.4572   21.4507 O   0  0  0  0  0  0  0  0  0  0  0  0
    6.1128    9.9458   25.9114 O   0  0  0  0  0  0  0  0  0  0  0  0
   11.2712   10.4551   22.9861 O   0  0  0  0  0  0  0  0  0  0  0  0
    6.5669   13.9905   26.4401 F   0  0  0  0  0  0  0  0  0  0  0  0
    7.9815   13.0731   27.8269 F   0  0  0  0  0  0  0  0  0  0  0  0
    8.6916   13.9187   25.9437 F   0  0  0  0  0  0  0  0  0  0  0  0
    6.3076   12.8069   24.2423 H   0  0  0  0  0  0  0  0  0  0  0  0
    6.7873   11.1454   23.9313 H   0  0  0  0  0  0  0  0  0  0  0  0
    8.5167   10.0016   25.6722 H   0  0  0  0  0  0  0  0  0  0  0  0
    9.0707   10.9807   27.0219 H   0  0  0  0  0  0  0  0  0  0  0  0
    8.0445   12.6018   22.4632 H   0  0  0  0  0  0  0  0  0  0  0  0
    8.6106   13.5996   23.7973 H   0  0  0  0  0  0  0  0  0  0  0  0
   10.2887   12.4894   25.4824 H   0  0  0  0  0  0  0  0  0  0  0  0
   10.7388   10.8164   25.1849 H   0  0  0  0  0  0  0  0  0  0  0  0
   10.3086    9.5911   20.6286 H   0  0  0  0  0  0  0  0  0  0  0  0
   12.0856    9.6321   20.5763 H   0  0  0  0  0  0  0  0  0  0  0  0
   11.2102    8.0858   20.5996 H   0  0  0  0  0  0  0  0  0  0  0  0
   12.5555    8.4168   24.1253 H   0  0  0  0  0  0  0  0  0  0  0  0
   13.4172    8.9745   22.7021 H   0  0  0  0  0  0  0  0  0  0  0  0
   12.6067    7.3927   22.6733 H   0  0  0  0  0  0  0  0  0  0  0  0
   10.0403    8.4011   24.1876 H   0  0  0  0  0  0  0  0  0  0  0  0
    9.0942    8.9004   22.7688 H   0  0  0  0  0  0  0  0  0  0  0  0
    9.9786    7.3576   22.7778 H   0  0  0  0  0  0  0  0  0  0  0  0
    5.4116   11.7984   26.4497 H   0  0  0  0  0  0  0  0  0  0  0  0
    6.5512   11.0401   27.5918 H   0  0  0  0  0  0  0  0  0  0  0  0
    5.3697    9.5046   26.3601 H   0  0  0  0  0  0  0  0  0  0  0  0
  1 13  1  0  0  0  0
  1 14  2  0  0  0  0
  1 16  1  0  0  0  0
  2  4  1  0  0  0  0
  2  6  1  0  0  0  0
  3  5  1  0  0  0  0
  3  6  1  0  0  0  0
  4 13  1  0  0  0  0
  5 13  1  0  0  0  0
  6 10  1  0  0  0  0
  6 11  1  0  0  0  0
  7 12  1  0  0  0  0
  8 12  1  0  0  0  0
  9 12  1  0  0  0  0
 10 15  1  0  0  0  0
 11 17  1  0  0  0  0
 11 18  1  0  0  0  0
 11 19  1  0  0  0  0
 12 16  1  0  0  0  0
  2 20  1  0  0  0  0
  2 21  1  0  0  0  0
  3 22  1  0  0  0  0
  3 23  1  0  0  0  0
  4 24  1  0  0  0  0
  4 25  1  0  0  0  0
  5 26  1  0  0  0  0
  5 27  1  0  0  0  0
  7 28  1  0  0  0  0
  7 29  1  0  0  0  0
  7 30  1  0  0  0  0
  8 31  1  0  0  0  0
  8 32  1  0  0  0  0
  8 33  1  0  0  0  0
  9 34  1  0  0  0  0
  9 35  1  0  0  0  0
  9 36  1  0  0  0  0
 10 37  1  0  0  0  0
 10 38  1  0  0  0  0
 15 39  1  0  0  0  0
M  END
> <id>
EN300-6201498

> <smiles>
CC(C)(C)OC(=O)N1CCC(CO)(CC1)C(F)(F)F

> <MDLNUMBER>
MFCD11848162

> <IUPAC Name>
tert-butyl 4-(hydroxymethyl)-4-(trifluoromethyl)piperidine-1-carboxylate

> <CAS>
1260893-18-2

> <URL>
https://www.enaminestore.com/catalog/EN300-6201498

> <ROCS_ShapeQuery>
_x1140_x0812_0A_x1140_0A_x1097_0A_x0365_0A_x1097_0A_x0310_0A

> <ROCS_TanimotoCombo>
0.614 

> <ROCS_ShapeTanimoto>
0.221 

> <ROCS_ColorTanimoto>
0.393 

> <ROCS_RefTversky>
0.205 

> <ROCS_RefColorTversky>
0.467 

> <ROCS_RefTverskyCombo>
0.672 

> <ROCS_FitTversky>
1.575 

> <ROCS_FitColorTversky>
0.712 

> <ROCS_FitTverskyCombo>
2.287 

> <ROCS_ColorScore>
-3.668

> <ROCS_Overlap>
2099.862

> <ROCS_Rank>
329                 

$$$$
untitled-dbase-482851_2
  -OEChem-02092423213D

 38 39  0     0  0  0  0  0  0999 V2000
    8.4742   12.4119   24.1848 C   0  0  0  0  0  0  0  0  0  0  0  0
    9.2249   11.4853   23.4764 C   0  0  0  0  0  0  0  0  0  0  0  0
    7.4936   11.9781   25.0821 C   0  0  0  0  0  0  0  0  0  0  0  0
    8.9582   10.1473   23.6898 C   0  0  0  0  0  0  0  0  0  0  0  0
    7.2729   10.5992   25.2258 C   0  0  0  0  0  0  0  0  0  0  0  0
   10.2498   11.9383   22.5483 C   0  0  0  0  0  0  0  0  0  0  0  0
    6.6642   12.9823   25.8394 C   0  0  0  0  0  0  0  0  0  0  0  0
    6.0182   12.3519   27.0725 C   0  0  0  0  0  0  0  0  0  0  0  0
    5.3385   11.0412   26.6961 C   0  0  0  0  0  0  0  0  0  0  0  0
    9.7318    9.0961   22.9624 C   0  0  0  0  0  0  0  0  0  0  0  0
   11.6781   14.0897   21.2911 C   0  0  0  0  0  0  0  0  0  0  0  0
   13.2067   13.9832   23.2813 C   0  0  0  0  0  0  0  0  0  0  0  0
   13.0131   12.0051   21.7458 C   0  0  0  0  0  0  0  0  0  0  0  0
   12.2740   13.1875   22.3707 C   0  0  0  0  0  0  0  0  0  0  0  0
    8.0105    9.6893   24.5393 N   0  0  0  0  0  0  0  0  0  0  0  0
    6.2970   10.1339   26.0986 N   0  0  0  0  0  0  0  0  0  0  0  0
   10.2572   11.6858   21.3365 O   0  0  0  0  0  0  0  0  0  0  0  0
   11.2079   12.6817   23.1813 O   0  0  0  0  0  0  0  0  0  0  0  0
    8.6481   13.4765   24.0468 H   0  0  0  0  0  0  0  0  0  0  0  0
    7.2867   13.8271   26.1564 H   0  0  0  0  0  0  0  0  0  0  0  0
    5.8873   13.3695   25.1688 H   0  0  0  0  0  0  0  0  0  0  0  0
    6.7783   12.1651   27.8421 H   0  0  0  0  0  0  0  0  0  0  0  0
    5.2891   13.0457   27.5053 H   0  0  0  0  0  0  0  0  0  0  0  0
    4.9041   10.5748   27.5866 H   0  0  0  0  0  0  0  0  0  0  0  0
    4.5197   11.2256   25.9905 H   0  0  0  0  0  0  0  0  0  0  0  0
   10.6202    8.8127   23.5380 H   0  0  0  0  0  0  0  0  0  0  0  0
    9.1218    8.2000   22.7959 H   0  0  0  0  0  0  0  0  0  0  0  0
   10.0525    9.4525   21.9759 H   0  0  0  0  0  0  0  0  0  0  0  0
   11.0080   13.5223   20.6353 H   0  0  0  0  0  0  0  0  0  0  0  0
   11.1158   14.9223   21.7263 H   0  0  0  0  0  0  0  0  0  0  0  0
   12.4642   14.5016   20.6479 H   0  0  0  0  0  0  0  0  0  0  0  0
   13.6366   13.3398   24.0575 H   0  0  0  0  0  0  0  0  0  0  0  0
   12.6589   14.7749   23.8052 H   0  0  0  0  0  0  0  0  0  0  0  0
   14.0259   14.4423   22.7187 H   0  0  0  0  0  0  0  0  0  0  0  0
   13.4407   11.3578   22.5200 H   0  0  0  0  0  0  0  0  0  0  0  0
   12.3499   11.4012   21.1180 H   0  0  0  0  0  0  0  0  0  0  0  0
   13.8534   12.3507   21.1329 H   0  0  0  0  0  0  0  0  0  0  0  0
    6.1543    9.1338   26.1673 H   0  0  0  0  0  0  0  0  0  0  0  0
  1  2  1  0  0  0  0
  1  3  2  0  0  0  0
  2  4  2  0  0  0  0
  2  6  1  0  0  0  0
  3  5  1  0  0  0  0
  3  7  1  0  0  0  0
  4 10  1  0  0  0  0
  4 15  1  0  0  0  0
  5 15  2  0  0  0  0
  5 16  1  0  0  0  0
  6 17  2  0  0  0  0
  6 18  1  0  0  0  0
  7  8  1  0  0  0  0
  8  9  1  0  0  0  0
  9 16  1  0  0  0  0
 11 14  1  0  0  0  0
 12 14  1  0  0  0  0
 13 14  1  0  0  0  0
 14 18  1  0  0  0  0
  1 19  1  0  0  0  0
  7 20  1  0  0  0  0
  7 21  1  0  0  0  0
  8 22  1  0  0  0  0
  8 23  1  0  0  0  0
  9 24  1  0  0  0  0
  9 25  1  0  0  0  0
 10 26  1  0  0  0  0
 10 27  1  0  0  0  0
 10 28  1  0  0  0  0
 11 29  1  0  0  0  0
 11 30  1  0  0  0  0
 11 31  1  0  0  0  0
 12 32  1  0  0  0  0
 12 33  1  0  0  0  0
 12 34  1  0  0  0  0
 13 35  1  0  0  0  0
 13 36  1  0  0  0  0
 13 37  1  0  0  0  0
 16 38  1  0  0  0  0
M  END
> <id>
EN300-27730627

> <smiles>
CC=1N=C2NCCCC2=CC1C(=O)OC(C)(C)C

> <IUPAC Name>
tert-butyl 2-methyl-5,6,7,8-tetrahydro-1,8-naphthyridine-3-carboxylate

> <CAS>
2639431-49-3

> <URL>
https://www.enaminestore.com/catalog/EN300-27730627

> <ROCS_ShapeQuery>
_x1140_x0812_0A_x1140_0A_x1097_0A_x0365_0A_x1097_0A_x0310_0A

> <ROCS_TanimotoCombo>
0.614 

> <ROCS_ShapeTanimoto>
0.286 

> <ROCS_ColorTanimoto>
0.328 

> <ROCS_RefTversky>
0.251 

> <ROCS_RefColorTversky>
0.437 

> <ROCS_RefTverskyCombo>
0.688 

> <ROCS_FitTversky>
1.978 

> <ROCS_FitColorTversky>
0.566 

> <ROCS_FitTverskyCombo>
2.544 

> <ROCS_ColorScore>
-3.456

> <ROCS_Overlap>
2573.746

> <ROCS_Rank>
330                 

$$$$
untitled-dbase-425740_2
  -OEChem-02092423213D

 29 29  0     0  0  0  0  0  0999 V2000
    8.9403   12.5330   24.4969 C   0  0  0  0  0  0  0  0  0  0  0  0
    8.1507   11.9557   25.4851 C   0  0  0  0  0  0  0  0  0  0  0  0
    9.3992   11.7559   23.4392 C   0  0  0  0  0  0  0  0  0  0  0  0
    7.8506   10.6079   25.3704 C   0  0  0  0  0  0  0  0  0  0  0  0
    9.0433   10.4170   23.4161 C   0  0  0  0  0  0  0  0  0  0  0  0
    7.0054    9.9554   26.4129 C   0  0  0  0  0  0  0  0  0  0  0  0
   11.2734    9.3383   23.9576 C   0  0  0  0  0  0  0  0  0  0  0  0
   10.4626    7.4510   22.5121 C   0  0  0  0  0  0  0  0  0  0  0  0
   11.6795    9.3875   21.4743 C   0  0  0  0  0  0  0  0  0  0  0  0
   10.7237    8.9539   22.5847 C   0  0  0  0  0  0  0  0  0  0  0  0
    8.2781    9.8209   24.3577 N   0  0  0  0  0  0  0  0  0  0  0  0
   10.1984   12.3268   22.4330 N   0  0  0  0  0  0  0  0  0  0  0  0
    9.4737    9.6175   22.3936 O   0  0  0  0  0  0  0  0  0  0  0  0
    9.1917   13.5884   24.5610 H   0  0  0  0  0  0  0  0  0  0  0  0
    7.7863   12.5509   26.3155 H   0  0  0  0  0  0  0  0  0  0  0  0
    5.9452   10.0226   26.1410 H   0  0  0  0  0  0  0  0  0  0  0  0
    7.2682    8.8967   26.5324 H   0  0  0  0  0  0  0  0  0  0  0  0
    7.1450   10.4305   27.3924 H   0  0  0  0  0  0  0  0  0  0  0  0
   11.4621   10.4164   24.0138 H   0  0  0  0  0  0  0  0  0  0  0  0
   10.5812    9.0642   24.7605 H   0  0  0  0  0  0  0  0  0  0  0  0
   12.2343    8.8460   24.1460 H   0  0  0  0  0  0  0  0  0  0  0  0
   10.0681    7.1706   21.5287 H   0  0  0  0  0  0  0  0  0  0  0  0
    9.7055    7.1504   23.2454 H   0  0  0  0  0  0  0  0  0  0  0  0
   11.3737    6.8731   22.6977 H   0  0  0  0  0  0  0  0  0  0  0  0
   11.2855    9.1118   20.4894 H   0  0  0  0  0  0  0  0  0  0  0  0
   11.8497   10.4689   21.4880 H   0  0  0  0  0  0  0  0  0  0  0  0
   12.6467    8.8815   21.5730 H   0  0  0  0  0  0  0  0  0  0  0  0
   10.3957   13.3090   22.4591 H   0  0  0  0  0  0  0  0  0  0  0  0
   10.4823   11.7658   21.6527 H   0  0  0  0  0  0  0  0  0  0  0  0
  1  2  2  0  0  0  0
  1  3  1  0  0  0  0
  2  4  1  0  0  0  0
  3  5  2  0  0  0  0
  3 12  1  0  0  0  0
  4  6  1  0  0  0  0
  4 11  2  0  0  0  0
  5 11  1  0  0  0  0
  5 13  1  0  0  0  0
  7 10  1  0  0  0  0
  8 10  1  0  0  0  0
  9 10  1  0  0  0  0
 10 13  1  0  0  0  0
  1 14  1  0  0  0  0
  2 15  1  0  0  0  0
  6 16  1  0  0  0  0
  6 17  1  0  0  0  0
  6 18  1  0  0  0  0
  7 19  1  0  0  0  0
  7 20  1  0  0  0  0
  7 21  1  0  0  0  0
  8 22  1  0  0  0  0
  8 23  1  0  0  0  0
  8 24  1  0  0  0  0
  9 25  1  0  0  0  0
  9 26  1  0  0  0  0
  9 27  1  0  0  0  0
 12 28  1  0  0  0  0
 12 29  1  0  0  0  0
M  END
> <id>
EN300-1295732

> <smiles>
CC=1C=CC(N)=C(OC(C)(C)C)N1

> <MDLNUMBER>
MFCD24054471

> <IUPAC Name>
2-(tert-butoxy)-6-methylpyridin-3-amine

> <CAS>
1503859-32-2

> <URL>
https://www.enaminestore.com/catalog/EN300-1295732

> <ROCS_ShapeQuery>
_x1140_x0812_0A_x1140_0A_x1097_0A_x0365_0A_x1097_0A_x0310_0A

> <ROCS_TanimotoCombo>
0.614 

> <ROCS_ShapeTanimoto>
0.215 

> <ROCS_ColorTanimoto>
0.399 

> <ROCS_RefTversky>
0.195 

> <ROCS_RefColorTversky>
0.506 

> <ROCS_RefTverskyCombo>
0.701 

> <ROCS_FitTversky>
1.862 

> <ROCS_FitColorTversky>
0.654 

> <ROCS_FitTverskyCombo>
2.516 

> <ROCS_ColorScore>
-3.997

> <ROCS_Overlap>
2003.022

> <ROCS_Rank>
331                 

$$$$
untitled-dbase-531026_5
  -OEChem-02092423213D

 25 25  0     0  0  0  0  0  0999 V2000
    8.8790   10.9508   23.6375 C   0  0  0  0  0  0  0  0  0  0  0  0
    8.9642   12.1828   24.2515 C   0  0  0  0  0  0  0  0  0  0  0  0
    7.4081   10.6271   25.2318 C   0  0  0  0  0  0  0  0  0  0  0  0
    9.6723   10.5560   22.4462 C   0  0  0  0  0  0  0  0  0  0  0  0
    9.7982   13.3575   23.9244 C   0  0  0  0  0  0  0  0  0  0  0  0
   10.8510    8.5273   20.3594 C   0  0  0  0  0  0  0  0  0  0  0  0
    5.9819    8.6658   25.8188 C   0  0  0  0  0  0  0  0  0  0  0  0
   11.1167    8.7941   21.8257 C   0  0  0  0  0  0  0  0  0  0  0  0
    7.9875   10.0573   24.1985 N   0  0  0  0  0  0  0  0  0  0  0  0
    6.4738   10.0247   26.0146 N   0  0  0  0  0  0  0  0  0  0  0  0
   10.0478   11.3506   21.5982 O   0  0  0  0  0  0  0  0  0  0  0  0
    9.9105    9.2145   22.4453 O   0  0  0  0  0  0  0  0  0  0  0  0
    7.8875   12.2365   25.5853 S   0  0  0  0  0  0  0  0  0  0  0  0
    9.2780   14.0296   23.2232 H   0  0  0  0  0  0  0  0  0  0  0  0
   10.0562   13.9432   24.8226 H   0  0  0  0  0  0  0  0  0  0  0  0
   10.7571   13.0670   23.4630 H   0  0  0  0  0  0  0  0  0  0  0  0
   10.1022    7.7400   20.2355 H   0  0  0  0  0  0  0  0  0  0  0  0
   10.4958    9.4348   19.8602 H   0  0  0  0  0  0  0  0  0  0  0  0
   11.7712    8.2231   19.8497 H   0  0  0  0  0  0  0  0  0  0  0  0
    6.4834    8.2154   24.9496 H   0  0  0  0  0  0  0  0  0  0  0  0
    6.1947    8.0661   26.7162 H   0  0  0  0  0  0  0  0  0  0  0  0
    4.8963    8.6907   25.6434 H   0  0  0  0  0  0  0  0  0  0  0  0
   11.8663    9.5824   21.9426 H   0  0  0  0  0  0  0  0  0  0  0  0
   11.4707    7.8862   22.3232 H   0  0  0  0  0  0  0  0  0  0  0  0
    6.0687   10.5397   26.8048 H   0  0  0  0  0  0  0  0  0  0  0  0
  1  2  2  0  0  0  0
  1  4  1  0  0  0  0
  1  9  1  0  0  0  0
  2  5  1  0  0  0  0
  2 13  1  0  0  0  0
  3  9  2  0  0  0  0
  3 10  1  0  0  0  0
  3 13  1  0  0  0  0
  4 11  2  0  0  0  0
  4 12  1  0  0  0  0
  6  8  1  0  0  0  0
  7 10  1  0  0  0  0
  8 12  1  0  0  0  0
  5 14  1  0  0  0  0
  5 15  1  0  0  0  0
  5 16  1  0  0  0  0
  6 17  1  0  0  0  0
  6 18  1  0  0  0  0
  6 19  1  0  0  0  0
  7 20  1  0  0  0  0
  7 21  1  0  0  0  0
  7 22  1  0  0  0  0
  8 23  1  0  0  0  0
  8 24  1  0  0  0  0
 10 25  1  0  0  0  0
M  END
> <id>
EN300-360068

> <smiles>
CCOC(=O)C=1N=C(NC)SC1C

> <IUPAC Name>
ethyl 5-methyl-2-(methylamino)-1,3-thiazole-4-carboxylate

> <CAS>
1602647-08-4

> <URL>
https://www.enaminestore.com/catalog/EN300-360068

> <ROCS_ShapeQuery>
_x1140_x0812_0A_x1140_0A_x1097_0A_x0365_0A_x1097_0A_x0310_0A

> <ROCS_TanimotoCombo>
0.614 

> <ROCS_ShapeTanimoto>
0.204 

> <ROCS_ColorTanimoto>
0.409 

> <ROCS_RefTversky>
0.187 

> <ROCS_RefColorTversky>
0.447 

> <ROCS_RefTverskyCombo>
0.634 

> <ROCS_FitTversky>
1.817 

> <ROCS_FitColorTversky>
0.830 

> <ROCS_FitTverskyCombo>
2.647 

> <ROCS_ColorScore>
-3.486

> <ROCS_Overlap>
1918.034

> <ROCS_Rank>
332                 

$$$$
untitled-dbase-571201_2
  -OEChem-02092423213D

 36 36  0     0  0  0  0  0  0999 V2000
    9.1791   12.6688   24.2795 C   0  0  0  0  0  0  0  0  0  0  0  0
    8.3697   13.2054   25.2807 C   0  0  0  0  0  0  0  0  0  0  0  0
    9.0077   11.3435   23.8795 C   0  0  0  0  0  0  0  0  0  0  0  0
    7.3889   12.4168   25.8821 C   0  0  0  0  0  0  0  0  0  0  0  0
    7.2175   11.0914   25.4822 C   0  0  0  0  0  0  0  0  0  0  0  0
    8.0269   10.5548   24.4809 C   0  0  0  0  0  0  0  0  0  0  0  0
    9.8815   10.7949   22.8118 C   0  0  0  0  0  0  0  0  0  0  0  0
    6.5371   13.0191   26.9519 C   0  0  0  0  0  0  0  0  0  0  0  0
   12.4914   10.1599   21.8698 C   0  0  0  0  0  0  0  0  0  0  0  0
   12.1778    7.9670   23.0539 C   0  0  0  0  0  0  0  0  0  0  0  0
   10.6493    8.5972   21.1632 C   0  0  0  0  0  0  0  0  0  0  0  0
    6.9432    9.0188   23.0242 C   0  0  0  0  0  0  0  0  0  0  0  0
   11.4757    9.1187   22.3379 C   0  0  0  0  0  0  0  0  0  0  0  0
    6.2238   10.2900   26.0903 N   0  0  0  0  0  0  0  0  0  0  0  0
    9.9302   11.2575   21.6826 O   0  0  0  0  0  0  0  0  0  0  0  0
    7.8606    9.2581   24.0880 O   0  0  0  0  0  0  0  0  0  0  0  0
   10.5932    9.7348   23.2766 O   0  0  0  0  0  0  0  0  0  0  0  0
    9.9402   13.2931   23.8182 H   0  0  0  0  0  0  0  0  0  0  0  0
    8.5113   14.2391   25.5851 H   0  0  0  0  0  0  0  0  0  0  0  0
    5.6422   13.4741   26.5125 H   0  0  0  0  0  0  0  0  0  0  0  0
    6.2233   12.2621   27.6808 H   0  0  0  0  0  0  0  0  0  0  0  0
    7.0855   13.7898   27.5070 H   0  0  0  0  0  0  0  0  0  0  0  0
   11.9914   10.9883   21.3553 H   0  0  0  0  0  0  0  0  0  0  0  0
   13.0666   10.5673   22.7075 H   0  0  0  0  0  0  0  0  0  0  0  0
   13.1921    9.7254   21.1476 H   0  0  0  0  0  0  0  0  0  0  0  0
   11.4528    7.2176   23.3915 H   0  0  0  0  0  0  0  0  0  0  0  0
   12.6946    8.3231   23.9524 H   0  0  0  0  0  0  0  0  0  0  0  0
   12.9094    7.4741   22.4055 H   0  0  0  0  0  0  0  0  0  0  0  0
    9.9207    7.8504   21.4987 H   0  0  0  0  0  0  0  0  0  0  0  0
   10.1089    9.4054   20.6599 H   0  0  0  0  0  0  0  0  0  0  0  0
   11.2897    8.0960   20.4284 H   0  0  0  0  0  0  0  0  0  0  0  0
    6.9042    7.9480   22.8097 H   0  0  0  0  0  0  0  0  0  0  0  0
    7.2634    9.5680   22.1352 H   0  0  0  0  0  0  0  0  0  0  0  0
    5.9514    9.3640   23.3257 H   0  0  0  0  0  0  0  0  0  0  0  0
    5.6837   10.6723   26.8376 H   0  0  0  0  0  0  0  0  0  0  0  0
    6.1465    9.3308   25.8252 H   0  0  0  0  0  0  0  0  0  0  0  0
  1  2  2  0  0  0  0
  1  3  1  0  0  0  0
  2  4  1  0  0  0  0
  3  6  2  0  0  0  0
  3  7  1  0  0  0  0
  4  5  2  0  0  0  0
  4  8  1  0  0  0  0
  5  6  1  0  0  0  0
  5 14  1  0  0  0  0
  6 16  1  0  0  0  0
  7 15  2  0  0  0  0
  7 17  1  0  0  0  0
  9 13  1  0  0  0  0
 10 13  1  0  0  0  0
 11 13  1  0  0  0  0
 12 16  1  0  0  0  0
 13 17  1  0  0  0  0
  1 18  1  0  0  0  0
  2 19  1  0  0  0  0
  8 20  1  0  0  0  0
  8 21  1  0  0  0  0
  8 22  1  0  0  0  0
  9 23  1  0  0  0  0
  9 24  1  0  0  0  0
  9 25  1  0  0  0  0
 10 26  1  0  0  0  0
 10 27  1  0  0  0  0
 10 28  1  0  0  0  0
 11 29  1  0  0  0  0
 11 30  1  0  0  0  0
 11 31  1  0  0  0  0
 12 32  1  0  0  0  0
 12 33  1  0  0  0  0
 12 34  1  0  0  0  0
 14 35  1  0  0  0  0
 14 36  1  0  0  0  0
M  END
> <id>
EN300-31860392

> <smiles>
COC=1C(N)=C(C)C=CC1C(=O)OC(C)(C)C

> <IUPAC Name>
tert-butyl 3-amino-2-methoxy-4-methylbenzoate

> <URL>
https://www.enaminestore.com/catalog/EN300-31860392

> <ROCS_ShapeQuery>
_x1140_x0812_0A_x1140_0A_x1097_0A_x0365_0A_x1097_0A_x0310_0A

> <ROCS_TanimotoCombo>
0.614 

> <ROCS_ShapeTanimoto>
0.243 

> <ROCS_ColorTanimoto>
0.371 

> <ROCS_RefTversky>
0.219 

> <ROCS_RefColorTversky>
0.480 

> <ROCS_RefTverskyCombo>
0.699 

> <ROCS_FitTversky>
1.800 

> <ROCS_FitColorTversky>
0.621 

> <ROCS_FitTverskyCombo>
2.421 

> <ROCS_ColorScore>
-3.789

> <ROCS_Overlap>
2246.725

> <ROCS_Rank>
333                 

$$$$
untitled-dbase-580681_4
  -OEChem-02092423213D

 33 33  0     0  0  0  0  0  0999 V2000
    6.8566   12.1390   27.0983 B   0  0  0  0  0  0  0  0  0  0  0  0
    7.4795   10.5360   25.1825 C   0  0  0  0  0  0  0  0  0  0  0  0
    8.2378   10.1881   24.0646 C   0  0  0  0  0  0  0  0  0  0  0  0
    8.7049   12.6098   25.3683 C   0  0  0  0  0  0  0  0  0  0  0  0
    7.7130   11.7469   25.8343 C   0  0  0  0  0  0  0  0  0  0  0  0
    9.2297   11.0510   23.5986 C   0  0  0  0  0  0  0  0  0  0  0  0
    9.4632   12.2619   24.2505 C   0  0  0  0  0  0  0  0  0  0  0  0
   10.0101   10.6605   22.4252 C   0  0  0  0  0  0  0  0  0  0  0  0
   10.0272    8.0858   22.7029 C   0  0  0  0  0  0  0  0  0  0  0  0
   11.6331    9.2360   21.1415 C   0  0  0  0  0  0  0  0  0  0  0  0
   11.8617    9.4851   23.6185 C   0  0  0  0  0  0  0  0  0  0  0  0
   10.5181   13.2048   23.7702 C   0  0  0  0  0  0  0  0  0  0  0  0
   10.8525    9.3586   22.4571 C   0  0  0  0  0  0  0  0  0  0  0  0
   10.0058   11.3607   21.4097 O   0  0  0  0  0  0  0  0  0  0  0  0
    5.8750   11.3067   27.5778 O   0  0  0  0  0  0  0  0  0  0  0  0
    7.1004   13.3382   27.7242 O   0  0  0  0  0  0  0  0  0  0  0  0
   10.6140   14.3422   24.5186 F   0  0  0  0  0  0  0  0  0  0  0  0
   11.7721   12.6661   23.7745 F   0  0  0  0  0  0  0  0  0  0  0  0
   10.3012   13.6233   22.4903 F   0  0  0  0  0  0  0  0  0  0  0  0
    6.7118    9.8440   25.5237 H   0  0  0  0  0  0  0  0  0  0  0  0
    8.0465    9.2418   23.5650 H   0  0  0  0  0  0  0  0  0  0  0  0
    8.9005   13.5592   25.8648 H   0  0  0  0  0  0  0  0  0  0  0  0
   10.6496    7.1861   22.7197 H   0  0  0  0  0  0  0  0  0  0  0  0
    9.5139    8.1295   23.6707 H   0  0  0  0  0  0  0  0  0  0  0  0
    9.2636    7.9508   21.9284 H   0  0  0  0  0  0  0  0  0  0  0  0
   12.2450    8.3293   21.1163 H   0  0  0  0  0  0  0  0  0  0  0  0
   12.3041   10.0904   20.9980 H   0  0  0  0  0  0  0  0  0  0  0  0
   10.9562    9.1928   20.2804 H   0  0  0  0  0  0  0  0  0  0  0  0
   12.4895    8.5892   23.6918 H   0  0  0  0  0  0  0  0  0  0  0  0
   12.5215   10.3496   23.4826 H   0  0  0  0  0  0  0  0  0  0  0  0
   11.3552    9.6092   24.5827 H   0  0  0  0  0  0  0  0  0  0  0  0
    5.4154   11.6541   28.3596 H   0  0  0  0  0  0  0  0  0  0  0  0
    6.5104   13.4638   28.4863 H   0  0  0  0  0  0  0  0  0  0  0  0
  1  5  1  0  0  0  0
  1 15  1  0  0  0  0
  1 16  1  0  0  0  0
  2  3  2  0  0  0  0
  2  5  1  0  0  0  0
  3  6  1  0  0  0  0
  4  5  2  0  0  0  0
  4  7  1  0  0  0  0
  6  7  2  0  0  0  0
  6  8  1  0  0  0  0
  7 12  1  0  0  0  0
  8 13  1  0  0  0  0
  8 14  2  0  0  0  0
  9 13  1  0  0  0  0
 10 13  1  0  0  0  0
 11 13  1  0  0  0  0
 12 17  1  0  0  0  0
 12 18  1  0  0  0  0
 12 19  1  0  0  0  0
  2 20  1  0  0  0  0
  3 21  1  0  0  0  0
  4 22  1  0  0  0  0
  9 23  1  0  0  0  0
  9 24  1  0  0  0  0
  9 25  1  0  0  0  0
 10 26  1  0  0  0  0
 10 27  1  0  0  0  0
 10 28  1  0  0  0  0
 11 29  1  0  0  0  0
 11 30  1  0  0  0  0
 11 31  1  0  0  0  0
 15 32  1  0  0  0  0
 16 33  1  0  0  0  0
M  END
> <id>
EN300-45273584

> <smiles>
CC(C)(C)C(=O)C=1C=CC(=CC1C(F)(F)F)B(O)O

> <IUPAC Name>
[4-(2,2-dimethylpropanoyl)-3-(trifluoromethyl)phenyl]boronic acid

> <URL>
https://www.enaminestore.com/catalog/EN300-45273584

> <ROCS_ShapeQuery>
_x1140_x0812_0A_x1140_0A_x1097_0A_x0365_0A_x1097_0A_x0310_0A

> <ROCS_TanimotoCombo>
0.614 

> <ROCS_ShapeTanimoto>
0.259 

> <ROCS_ColorTanimoto>
0.355 

> <ROCS_RefTversky>
0.232 

> <ROCS_RefColorTversky>
0.372 

> <ROCS_RefTverskyCombo>
0.604 

> <ROCS_FitTversky>
1.789 

> <ROCS_FitColorTversky>
0.887 

> <ROCS_FitTverskyCombo>
2.675 

> <ROCS_ColorScore>
-2.881

> <ROCS_Overlap>
2383.637

> <ROCS_Rank>
334                 

$$$$
untitled-dbase-415592_6
  -OEChem-02092423213D

 22 22  0     0  0  0  0  0  0999 V2000
    8.4630   12.5076   25.4633 C   0  0  0  0  0  0  0  0  0  0  0  0
    9.2689   12.1746   24.3803 C   0  0  0  0  0  0  0  0  0  0  0  0
    7.4477   10.3630   25.3005 C   0  0  0  0  0  0  0  0  0  0  0  0
    7.5325   11.5901   25.9383 C   0  0  0  0  0  0  0  0  0  0  0  0
    9.1066   10.9212   23.8123 C   0  0  0  0  0  0  0  0  0  0  0  0
    9.9343   10.5143   22.6617 C   0  0  0  0  0  0  0  0  0  0  0  0
   12.2922    9.6821   22.5346 C   0  0  0  0  0  0  0  0  0  0  0  0
   10.4097    8.1963   21.7993 C   0  0  0  0  0  0  0  0  0  0  0  0
   10.8411    9.2830   22.7868 C   0  0  0  0  0  0  0  0  0  0  0  0
    8.2135   10.0036   24.2460 N   0  0  0  0  0  0  0  0  0  0  0  0
    9.9265   11.1445   21.6006 O   0  0  0  0  0  0  0  0  0  0  0  0
    6.7440   11.8837   26.9783 F   0  0  0  0  0  0  0  0  0  0  0  0
    8.5594   13.4801   25.9363 H   0  0  0  0  0  0  0  0  0  0  0  0
    9.9985   12.8822   24.0008 H   0  0  0  0  0  0  0  0  0  0  0  0
    6.7378    9.6128   25.6327 H   0  0  0  0  0  0  0  0  0  0  0  0
   12.4150   10.1186   21.5370 H   0  0  0  0  0  0  0  0  0  0  0  0
   12.9537    8.8127   22.6092 H   0  0  0  0  0  0  0  0  0  0  0  0
   12.6342   10.4281   23.2589 H   0  0  0  0  0  0  0  0  0  0  0  0
   10.4867    8.5574   20.7683 H   0  0  0  0  0  0  0  0  0  0  0  0
    9.3740    7.8822   21.9699 H   0  0  0  0  0  0  0  0  0  0  0  0
   11.0457    7.3095   21.8965 H   0  0  0  0  0  0  0  0  0  0  0  0
   10.7371    8.8495   23.7866 H   0  0  0  0  0  0  0  0  0  0  0  0
  1  2  2  0  0  0  0
  1  4  1  0  0  0  0
  2  5  1  0  0  0  0
  3  4  2  0  0  0  0
  3 10  1  0  0  0  0
  4 12  1  0  0  0  0
  5  6  1  0  0  0  0
  5 10  2  0  0  0  0
  6  9  1  0  0  0  0
  6 11  2  0  0  0  0
  7  9  1  0  0  0  0
  8  9  1  0  0  0  0
  1 13  1  0  0  0  0
  2 14  1  0  0  0  0
  3 15  1  0  0  0  0
  7 16  1  0  0  0  0
  7 17  1  0  0  0  0
  7 18  1  0  0  0  0
  8 19  1  0  0  0  0
  8 20  1  0  0  0  0
  8 21  1  0  0  0  0
  9 22  1  0  0  0  0
M  END
> <id>
EN300-127394

> <smiles>
CC(C)C(=O)C=1C=CC(F)=CN1

> <MDLNUMBER>
MFCD23753562

> <IUPAC Name>
1-(5-fluoropyridin-2-yl)-2-methylpropan-1-one

> <CAS>
1432679-90-7

> <Purity>
95

> <URL>
https://www.enaminestore.com/catalog/EN300-127394

> <ROCS_ShapeQuery>
_x1140_x0812_0A_x1140_0A_x1097_0A_x0365_0A_x1097_0A_x0310_0A

> <ROCS_TanimotoCombo>
0.614 

> <ROCS_ShapeTanimoto>
0.199 

> <ROCS_ColorTanimoto>
0.415 

> <ROCS_RefTversky>
0.183 

> <ROCS_RefColorTversky>
0.451 

> <ROCS_RefTverskyCombo>
0.634 

> <ROCS_FitTversky>
1.817 

> <ROCS_FitColorTversky>
0.837 

> <ROCS_FitTverskyCombo>
2.654 

> <ROCS_ColorScore>
-3.517

> <ROCS_Overlap>
1872.184

> <ROCS_Rank>
335                 

$$$$
untitled-dbase-73810_2
  -OEChem-02092423213D

 26 27  0     0  0  0  0  0  0999 V2000
   12.3339   12.2347   21.5880 C   0  0  0  0  0  0  0  0  0  0  0  0
   11.7863   11.9675   22.8655 C   0  0  0  0  0  0  0  0  0  0  0  0
    8.5474   12.3099   24.0851 C   0  0  0  0  0  0  0  0  0  0  0  0
    9.0880   10.0078   23.8304 C   0  0  0  0  0  0  0  0  0  0  0  0
   11.3003   12.0921   20.6918 C   0  0  0  0  0  0  0  0  0  0  0  0
    9.3620   11.3314   23.5261 C   0  0  0  0  0  0  0  0  0  0  0  0
    7.4985   11.9400   24.9196 C   0  0  0  0  0  0  0  0  0  0  0  0
   10.4569   11.6810   22.6588 C   0  0  0  0  0  0  0  0  0  0  0  0
    7.3078   10.5890   25.1614 C   0  0  0  0  0  0  0  0  0  0  0  0
    5.9554    8.8451   26.3256 C   0  0  0  0  0  0  0  0  0  0  0  0
    6.6273   12.9917   25.5178 C   0  0  0  0  0  0  0  0  0  0  0  0
    8.0783    9.6099   24.6366 N   0  0  0  0  0  0  0  0  0  0  0  0
    6.2406   10.2072   26.0123 N   0  0  0  0  0  0  0  0  0  0  0  0
   10.1526   11.7548   21.3365 O   0  0  0  0  0  0  0  0  0  0  0  0
    6.9775   14.2626   25.1590 F   0  0  0  0  0  0  0  0  0  0  0  0
    5.3112   12.8743   25.1712 F   0  0  0  0  0  0  0  0  0  0  0  0
    6.6487   12.9781   26.8826 F   0  0  0  0  0  0  0  0  0  0  0  0
   13.3544   12.4981   21.3505 H   0  0  0  0  0  0  0  0  0  0  0  0
   12.3013   11.9835   23.8157 H   0  0  0  0  0  0  0  0  0  0  0  0
    8.7249   13.3621   23.8736 H   0  0  0  0  0  0  0  0  0  0  0  0
    9.6863    9.1965   23.4259 H   0  0  0  0  0  0  0  0  0  0  0  0
   11.2219   12.1911   19.6190 H   0  0  0  0  0  0  0  0  0  0  0  0
    6.6775    8.1917   25.8141 H   0  0  0  0  0  0  0  0  0  0  0  0
    6.0317    8.6954   27.4127 H   0  0  0  0  0  0  0  0  0  0  0  0
    4.9369    8.5977   25.9919 H   0  0  0  0  0  0  0  0  0  0  0  0
    5.6837   10.9458   26.3906 H   0  0  0  0  0  0  0  0  0  0  0  0
  1  2  1  0  0  0  0
  1  5  2  0  0  0  0
  2  8  2  0  0  0  0
  3  6  2  0  0  0  0
  3  7  1  0  0  0  0
  4  6  1  0  0  0  0
  4 12  2  0  0  0  0
  5 14  1  0  0  0  0
  6  8  1  0  0  0  0
  7  9  2  0  0  0  0
  7 11  1  0  0  0  0
  8 14  1  0  0  0  0
  9 12  1  0  0  0  0
  9 13  1  0  0  0  0
 10 13  1  0  0  0  0
 11 15  1  0  0  0  0
 11 16  1  0  0  0  0
 11 17  1  0  0  0  0
  1 18  1  0  0  0  0
  2 19  1  0  0  0  0
  3 20  1  0  0  0  0
  4 21  1  0  0  0  0
  5 22  1  0  0  0  0
 10 23  1  0  0  0  0
 10 24  1  0  0  0  0
 10 25  1  0  0  0  0
 13 26  1  0  0  0  0
M  END
> <id>
EN300-359536

> <smiles>
CNC=1N=CC(=CC1C(F)(F)F)C2=CC=CO2

> <MDLNUMBER>
MFCD30538129

> <IUPAC Name>
5-(furan-2-yl)-N-methyl-3-(trifluoromethyl)pyridin-2-amine

> <CAS>
2138148-10-2

> <URL>
https://www.enaminestore.com/catalog/EN300-359536

> <ROCS_ShapeQuery>
_x1140_x0812_0A_x1140_0A_x1097_0A_x0365_0A_x1097_0A_x0310_0A

> <ROCS_TanimotoCombo>
0.613 

> <ROCS_ShapeTanimoto>
0.249 

> <ROCS_ColorTanimoto>
0.365 

> <ROCS_RefTversky>
0.224 

> <ROCS_RefColorTversky>
0.443 

> <ROCS_RefTverskyCombo>
0.667 

> <ROCS_FitTversky>
1.789 

> <ROCS_FitColorTversky>
0.675 

> <ROCS_FitTverskyCombo>
2.463 

> <ROCS_ColorScore>
-3.474

> <ROCS_Overlap>
2299.721

> <ROCS_Rank>
336                 

$$$$
untitled-dbase-526524_1
  -OEChem-02092423213D

 16 16  0     0  0  0  0  0  0999 V2000
    7.5909   11.9250   24.9525 C   0  0  0  0  0  0  0  0  0  0  0  0
    8.5467   12.5166   24.1342 C   0  0  0  0  0  0  0  0  0  0  0  0
    7.6013   10.5443   25.0683 C   0  0  0  0  0  0  0  0  0  0  0  0
    9.4706   11.7208   23.4661 C   0  0  0  0  0  0  0  0  0  0  0  0
    9.3969   10.3493   23.6485 C   0  0  0  0  0  0  0  0  0  0  0  0
   11.7123   12.7599   23.1191 C   0  0  0  0  0  0  0  0  0  0  0  0
    8.4828    9.7383   24.4351 N   0  0  0  0  0  0  0  0  0  0  0  0
   10.4317   12.3341   22.6408 N   0  0  0  0  0  0  0  0  0  0  0  0
   10.7497    9.0466   22.6857 I   0  0  0  0  0  0  0  0  0  0  0  0
    6.8608   12.5254   25.4829 H   0  0  0  0  0  0  0  0  0  0  0  0
    8.5607   13.5979   24.0251 H   0  0  0  0  0  0  0  0  0  0  0  0
    6.8763   10.0342   25.6940 H   0  0  0  0  0  0  0  0  0  0  0  0
   11.7993   12.5292   24.1911 H   0  0  0  0  0  0  0  0  0  0  0  0
   12.5039   12.2336   22.5655 H   0  0  0  0  0  0  0  0  0  0  0  0
   11.8181   13.8443   22.9678 H   0  0  0  0  0  0  0  0  0  0  0  0
   10.1867   12.4706   21.6769 H   0  0  0  0  0  0  0  0  0  0  0  0
  1  2  2  0  0  0  0
  1  3  1  0  0  0  0
  2  4  1  0  0  0  0
  3  7  2  0  0  0  0
  4  5  2  0  0  0  0
  4  8  1  0  0  0  0
  5  7  1  0  0  0  0
  5  9  1  0  0  0  0
  6  8  1  0  0  0  0
  1 10  1  0  0  0  0
  2 11  1  0  0  0  0
  3 12  1  0  0  0  0
  6 13  1  0  0  0  0
  6 14  1  0  0  0  0
  6 15  1  0  0  0  0
  8 16  1  0  0  0  0
M  END
> <id>
EN300-24496545

> <smiles>
CNC=1C=CC=NC1I

> <MDLNUMBER>
MFCD09999931

> <IUPAC Name>
2-iodo-N-methylpyridin-3-amine

> <CAS>
1026032-54-1

> <URL>
https://www.enaminestore.com/catalog/EN300-24496545

> <ROCS_ShapeQuery>
_x1140_x0812_0A_x1140_0A_x1097_0A_x0365_0A_x1097_0A_x0310_0A

> <ROCS_TanimotoCombo>
0.613 

> <ROCS_ShapeTanimoto>
0.193 

> <ROCS_ColorTanimoto>
0.421 

> <ROCS_RefTversky>
0.176 

> <ROCS_RefColorTversky>
0.456 

> <ROCS_RefTverskyCombo>
0.631 

> <ROCS_FitTversky>
2.018 

> <ROCS_FitColorTversky>
0.846 

> <ROCS_FitTverskyCombo>
2.865 

> <ROCS_ColorScore>
-3.554

> <ROCS_Overlap>
1797.231

> <ROCS_Rank>
337                 

$$$$
untitled-dbase-185260_0
  -OEChem-02092423213D

 18 18  0     0  0  0  0  0  0999 V2000
    8.1420   12.1973   25.0175 C   0  0  0  0  0  0  0  0  0  0  0  0
    8.7645   12.4824   23.8073 C   0  0  0  0  0  0  0  0  0  0  0  0
    7.9148   10.8673   25.3324 C   0  0  0  0  0  0  0  0  0  0  0  0
    9.1355   11.4435   22.9610 C   0  0  0  0  0  0  0  0  0  0  0  0
    8.8640   10.1472   23.3681 C   0  0  0  0  0  0  0  0  0  0  0  0
    9.9736   13.0831   21.4561 C   0  0  0  0  0  0  0  0  0  0  0  0
    9.2402    8.9950   22.4956 C   0  0  0  0  0  0  0  0  0  0  0  0
    8.2610    9.8311   24.5361 N   0  0  0  0  0  0  0  0  0  0  0  0
    9.7416   11.7105   21.7761 O   0  0  0  0  0  0  0  0  0  0  0  0
   11.1664    8.7350   22.5586 Br  0  0  0  0  0  0  0  0  0  0  0  0
    7.8441   12.9915   25.6926 H   0  0  0  0  0  0  0  0  0  0  0  0
    8.9549   13.5152   23.5295 H   0  0  0  0  0  0  0  0  0  0  0  0
    7.4315   10.5918   26.2641 H   0  0  0  0  0  0  0  0  0  0  0  0
   10.4639   13.1531   20.4820 H   0  0  0  0  0  0  0  0  0  0  0  0
   10.6029   13.5364   22.2261 H   0  0  0  0  0  0  0  0  0  0  0  0
    9.0150   13.6060   21.4173 H   0  0  0  0  0  0  0  0  0  0  0  0
    8.9705    9.1647   21.4478 H   0  0  0  0  0  0  0  0  0  0  0  0
    8.7762    8.0588   22.8242 H   0  0  0  0  0  0  0  0  0  0  0  0
  1  2  2  0  0  0  0
  1  3  1  0  0  0  0
  2  4  1  0  0  0  0
  3  8  2  0  0  0  0
  4  5  2  0  0  0  0
  4  9  1  0  0  0  0
  5  7  1  0  0  0  0
  5  8  1  0  0  0  0
  6  9  1  0  0  0  0
  7 10  1  0  0  0  0
  1 11  1  0  0  0  0
  2 12  1  0  0  0  0
  3 13  1  0  0  0  0
  6 14  1  0  0  0  0
  6 15  1  0  0  0  0
  6 16  1  0  0  0  0
  7 17  1  0  0  0  0
  7 18  1  0  0  0  0
M  END
> <id>
EN300-1896910

> <smiles>
COC=1C=CC=NC1CBr

> <MDLNUMBER>
MFCD11520716

> <IUPAC Name>
2-(bromomethyl)-3-methoxypyridine

> <CAS>
889360-84-3

> <URL>
https://www.enaminestore.com/catalog/EN300-1896910

> <ROCS_ShapeQuery>
_x1140_x0812_0A_x1140_0A_x1097_0A_x0365_0A_x1097_0A_x0310_0A

> <ROCS_TanimotoCombo>
0.613 

> <ROCS_ShapeTanimoto>
0.186 

> <ROCS_ColorTanimoto>
0.428 

> <ROCS_RefTversky>
0.171 

> <ROCS_RefColorTversky>
0.461 

> <ROCS_RefTverskyCombo>
0.632 

> <ROCS_FitTversky>
1.866 

> <ROCS_FitColorTversky>
0.856 

> <ROCS_FitTverskyCombo>
2.722 

> <ROCS_ColorScore>
-3.595

> <ROCS_Overlap>
1749.737

> <ROCS_Rank>
338                 

$$$$
untitled-dbase-5949_6
  -OEChem-02092423213D

 23 23  0     0  0  0  0  0  0999 V2000
    7.9753   12.1229   25.3576 C   0  0  0  0  0  0  0  0  0  0  0  0
    8.8266   12.5846   24.3599 C   0  0  0  0  0  0  0  0  0  0  0  0
    7.6826   10.7689   25.3851 C   0  0  0  0  0  0  0  0  0  0  0  0
    9.3518   11.6907   23.4333 C   0  0  0  0  0  0  0  0  0  0  0  0
    8.9976   10.3560   23.5471 C   0  0  0  0  0  0  0  0  0  0  0  0
   11.3512    8.2615   23.6103 C   0  0  0  0  0  0  0  0  0  0  0  0
   11.3179    8.9308   21.1808 C   0  0  0  0  0  0  0  0  0  0  0  0
   10.9080    9.3056   22.5969 C   0  0  0  0  0  0  0  0  0  0  0  0
    8.1735    9.8703   24.5025 N   0  0  0  0  0  0  0  0  0  0  0  0
   10.2149   12.1438   22.4196 N   0  0  0  0  0  0  0  0  0  0  0  0
    9.4914    9.4430   22.6542 O   0  0  0  0  0  0  0  0  0  0  0  0
    7.5536   12.8017   26.0899 H   0  0  0  0  0  0  0  0  0  0  0  0
    9.0736   13.6418   24.3135 H   0  0  0  0  0  0  0  0  0  0  0  0
    7.0212   10.3591   26.1415 H   0  0  0  0  0  0  0  0  0  0  0  0
   10.9326    7.2780   23.3762 H   0  0  0  0  0  0  0  0  0  0  0  0
   12.4436    8.1829   23.6235 H   0  0  0  0  0  0  0  0  0  0  0  0
   11.0441    8.5407   24.6243 H   0  0  0  0  0  0  0  0  0  0  0  0
   10.8986    7.9632   20.8887 H   0  0  0  0  0  0  0  0  0  0  0  0
   12.4090    8.8777   21.1013 H   0  0  0  0  0  0  0  0  0  0  0  0
   10.9867    9.6877   20.4613 H   0  0  0  0  0  0  0  0  0  0  0  0
   11.3424   10.2761   22.8583 H   0  0  0  0  0  0  0  0  0  0  0  0
   10.4110   13.1232   22.3418 H   0  0  0  0  0  0  0  0  0  0  0  0
   10.5476   11.4961   21.7313 H   0  0  0  0  0  0  0  0  0  0  0  0
  1  2  2  0  0  0  0
  1  3  1  0  0  0  0
  2  4  1  0  0  0  0
  3  9  2  0  0  0  0
  4  5  2  0  0  0  0
  4 10  1  0  0  0  0
  5  9  1  0  0  0  0
  5 11  1  0  0  0  0
  6  8  1  0  0  0  0
  7  8  1  0  0  0  0
  8 11  1  0  0  0  0
  1 12  1  0  0  0  0
  2 13  1  0  0  0  0
  3 14  1  0  0  0  0
  6 15  1  0  0  0  0
  6 16  1  0  0  0  0
  6 17  1  0  0  0  0
  7 18  1  0  0  0  0
  7 19  1  0  0  0  0
  7 20  1  0  0  0  0
  8 21  1  0  0  0  0
 10 22  1  0  0  0  0
 10 23  1  0  0  0  0
M  END
> <id>
EN300-42159

> <smiles>
CC(C)OC=1N=CC=CC1N

> <MDLNUMBER>
MFCD09816786

> <IUPAC Name>
2-(propan-2-yloxy)pyridin-3-amine

> <CAS>
187654-86-0

> <Purity>
90

> <URL>
https://www.enaminestore.com/catalog/EN300-42159

> <ROCS_ShapeQuery>
_x1140_x0812_0A_x1140_0A_x1097_0A_x0365_0A_x1097_0A_x0310_0A

> <ROCS_TanimotoCombo>
0.613 

> <ROCS_ShapeTanimoto>
0.201 

> <ROCS_ColorTanimoto>
0.413 

> <ROCS_RefTversky>
0.183 

> <ROCS_RefColorTversky>
0.518 

> <ROCS_RefTverskyCombo>
0.701 

> <ROCS_FitTversky>
1.897 

> <ROCS_FitColorTversky>
0.670 

> <ROCS_FitTverskyCombo>
2.567 

> <ROCS_ColorScore>
-4.092

> <ROCS_Overlap>
1877.337

> <ROCS_Rank>
339                 

$$$$
untitled-dbase-539224_3
  -OEChem-02092423213D

 30 31  0     0  0  0  0  0  0999 V2000
    7.7522   12.2280   27.8583 C   0  0  0  0  0  0  0  0  0  0  0  0
    8.4704   12.7083   26.7670 C   0  0  0  0  0  0  0  0  0  0  0  0
    7.1447   10.9807   27.7842 C   0  0  0  0  0  0  0  0  0  0  0  0
    9.2996   12.3992   24.4827 C   0  0  0  0  0  0  0  0  0  0  0  0
    8.5828   11.9399   25.5959 C   0  0  0  0  0  0  0  0  0  0  0  0
    7.2567   10.2169   26.6197 C   0  0  0  0  0  0  0  0  0  0  0  0
    7.9685   10.6727   25.5135 C   0  0  0  0  0  0  0  0  0  0  0  0
    9.3920   11.6166   23.3408 C   0  0  0  0  0  0  0  0  0  0  0  0
    8.7577   10.3910   23.3541 C   0  0  0  0  0  0  0  0  0  0  0  0
    6.5854    8.8788   26.5884 C   0  0  0  0  0  0  0  0  0  0  0  0
   11.2346    8.8546   22.5571 C   0  0  0  0  0  0  0  0  0  0  0  0
    8.8198    9.5036   22.1544 C   0  0  0  0  0  0  0  0  0  0  0  0
    9.8163    8.3506   22.3422 C   0  0  0  0  0  0  0  0  0  0  0  0
    8.0565    9.9110   24.4067 N   0  0  0  0  0  0  0  0  0  0  0  0
   10.0841   12.0581   22.2607 O   0  0  0  0  0  0  0  0  0  0  0  0
    7.6680   12.8237   28.7621 H   0  0  0  0  0  0  0  0  0  0  0  0
    8.9434   13.6852   26.8362 H   0  0  0  0  0  0  0  0  0  0  0  0
    6.5832   10.6081   28.6371 H   0  0  0  0  0  0  0  0  0  0  0  0
    9.7892   13.3707   24.5065 H   0  0  0  0  0  0  0  0  0  0  0  0
    5.5625    8.9800   26.2116 H   0  0  0  0  0  0  0  0  0  0  0  0
    7.1313    8.1808   25.9440 H   0  0  0  0  0  0  0  0  0  0  0  0
    6.5505    8.4338   27.5891 H   0  0  0  0  0  0  0  0  0  0  0  0
   11.5631    9.4721   21.7150 H   0  0  0  0  0  0  0  0  0  0  0  0
   11.3038    9.4533   23.4709 H   0  0  0  0  0  0  0  0  0  0  0  0
   11.9265    8.0117   22.6501 H   0  0  0  0  0  0  0  0  0  0  0  0
    7.8232    9.0877   21.9312 H   0  0  0  0  0  0  0  0  0  0  0  0
    9.1024   10.0837   21.2603 H   0  0  0  0  0  0  0  0  0  0  0  0
    9.5193    7.7372   23.2016 H   0  0  0  0  0  0  0  0  0  0  0  0
    9.7978    7.6946   21.4634 H   0  0  0  0  0  0  0  0  0  0  0  0
   10.4599   12.9378   22.4330 H   0  0  0  0  0  0  0  0  0  0  0  0
  1  2  2  0  0  0  0
  1  3  1  0  0  0  0
  2  5  1  0  0  0  0
  3  6  2  0  0  0  0
  4  5  2  0  0  0  0
  4  8  1  0  0  0  0
  5  7  1  0  0  0  0
  6  7  1  0  0  0  0
  6 10  1  0  0  0  0
  7 14  2  0  0  0  0
  8  9  2  0  0  0  0
  8 15  1  0  0  0  0
  9 12  1  0  0  0  0
  9 14  1  0  0  0  0
 11 13  1  0  0  0  0
 12 13  1  0  0  0  0
  1 16  1  0  0  0  0
  2 17  1  0  0  0  0
  3 18  1  0  0  0  0
  4 19  1  0  0  0  0
 10 20  1  0  0  0  0
 10 21  1  0  0  0  0
 10 22  1  0  0  0  0
 11 23  1  0  0  0  0
 11 24  1  0  0  0  0
 11 25  1  0  0  0  0
 12 26  1  0  0  0  0
 12 27  1  0  0  0  0
 13 28  1  0  0  0  0
 13 29  1  0  0  0  0
 15 30  1  0  0  0  0
M  END
> <id>
EN300-801111

> <smiles>
CCCC=1N=C2C(C)=CC=CC2=CC1O

> <MDLNUMBER>
MFCD31471790

> <IUPAC Name>
8-methyl-2-propylquinolin-3-ol

> <CAS>
2138427-60-6

> <URL>
https://www.enaminestore.com/catalog/EN300-801111

> <ROCS_ShapeQuery>
_x1140_x0812_0A_x1140_0A_x1097_0A_x0365_0A_x1097_0A_x0310_0A

> <ROCS_TanimotoCombo>
0.613 

> <ROCS_ShapeTanimoto>
0.205 

> <ROCS_ColorTanimoto>
0.408 

> <ROCS_RefTversky>
0.190 

> <ROCS_RefColorTversky>
0.514 

> <ROCS_RefTverskyCombo>
0.703 

> <ROCS_FitTversky>
1.654 

> <ROCS_FitColorTversky>
0.665 

> <ROCS_FitTverskyCombo>
2.319 

> <ROCS_ColorScore>
-4.060

> <ROCS_Overlap>
1943.548

> <ROCS_Rank>
340                 

$$$$
untitled-dbase-111251_7
  -OEChem-02092423213D

 37 38  0     0  0  0  0  0  0999 V2000
    6.4921   11.0359   27.4683 C   0  0  0  0  0  0  0  0  0  0  0  0
    6.9391   10.2152   26.4298 C   0  0  0  0  0  0  0  0  0  0  0  0
    6.8593   12.3754   27.5028 C   0  0  0  0  0  0  0  0  0  0  0  0
    8.9425   12.5578   24.4294 C   0  0  0  0  0  0  0  0  0  0  0  0
    8.1225   12.0651   25.4535 C   0  0  0  0  0  0  0  0  0  0  0  0
    7.7535   10.7042   25.4120 C   0  0  0  0  0  0  0  0  0  0  0  0
    7.6731   12.8908   26.4981 C   0  0  0  0  0  0  0  0  0  0  0  0
    9.3696   11.7170   23.4118 C   0  0  0  0  0  0  0  0  0  0  0  0
    8.9568   10.4008   23.4562 C   0  0  0  0  0  0  0  0  0  0  0  0
   11.7652    9.7832   21.6439 C   0  0  0  0  0  0  0  0  0  0  0  0
   11.3506    8.9203   23.9475 C   0  0  0  0  0  0  0  0  0  0  0  0
   10.9356    7.4515   21.9583 C   0  0  0  0  0  0  0  0  0  0  0  0
    7.1513   15.1356   25.9114 C   0  0  0  0  0  0  0  0  0  0  0  0
    9.3833    9.4466   22.3893 C   0  0  0  0  0  0  0  0  0  0  0  0
   10.8397    8.8896   22.4966 C   0  0  0  0  0  0  0  0  0  0  0  0
    8.1664    9.8858   24.4258 N   0  0  0  0  0  0  0  0  0  0  0  0
   10.1635   12.1899   22.4185 O   0  0  0  0  0  0  0  0  0  0  0  0
    8.0175   14.2102   26.5623 O   0  0  0  0  0  0  0  0  0  0  0  0
    5.8578   10.6251   28.2485 H   0  0  0  0  0  0  0  0  0  0  0  0
    6.6379    9.1692   26.4260 H   0  0  0  0  0  0  0  0  0  0  0  0
    6.5117   13.0102   28.3129 H   0  0  0  0  0  0  0  0  0  0  0  0
    9.2553   13.5996   24.4165 H   0  0  0  0  0  0  0  0  0  0  0  0
   11.4454    9.7977   20.5958 H   0  0  0  0  0  0  0  0  0  0  0  0
   11.7635   10.8179   22.0050 H   0  0  0  0  0  0  0  0  0  0  0  0
   12.7999    9.4234   21.6733 H   0  0  0  0  0  0  0  0  0  0  0  0
   10.7268    8.2993   24.5999 H   0  0  0  0  0  0  0  0  0  0  0  0
   12.3828    8.5627   24.0224 H   0  0  0  0  0  0  0  0  0  0  0  0
   11.3351    9.9406   24.3483 H   0  0  0  0  0  0  0  0  0  0  0  0
   10.2938    6.7730   22.5324 H   0  0  0  0  0  0  0  0  0  0  0  0
   10.6158    7.3865   20.9132 H   0  0  0  0  0  0  0  0  0  0  0  0
   11.9610    7.0716   22.0249 H   0  0  0  0  0  0  0  0  0  0  0  0
    7.5388   16.1495   26.0379 H   0  0  0  0  0  0  0  0  0  0  0  0
    6.1487   15.0611   26.3400 H   0  0  0  0  0  0  0  0  0  0  0  0
    7.1090   14.8944   24.8466 H   0  0  0  0  0  0  0  0  0  0  0  0
    9.2676    9.9244   21.3988 H   0  0  0  0  0  0  0  0  0  0  0  0
    8.6858    8.5890   22.3605 H   0  0  0  0  0  0  0  0  0  0  0  0
   10.3504   13.1343   22.5522 H   0  0  0  0  0  0  0  0  0  0  0  0
  1  2  1  0  0  0  0
  1  3  2  0  0  0  0
  2  6  2  0  0  0  0
  3  7  1  0  0  0  0
  4  5  1  0  0  0  0
  4  8  2  0  0  0  0
  5  6  1  0  0  0  0
  5  7  2  0  0  0  0
  6 16  1  0  0  0  0
  7 18  1  0  0  0  0
  8  9  1  0  0  0  0
  8 17  1  0  0  0  0
  9 14  1  0  0  0  0
  9 16  2  0  0  0  0
 10 15  1  0  0  0  0
 11 15  1  0  0  0  0
 12 15  1  0  0  0  0
 13 18  1  0  0  0  0
 14 15  1  0  0  0  0
  1 19  1  0  0  0  0
  2 20  1  0  0  0  0
  3 21  1  0  0  0  0
  4 22  1  0  0  0  0
 10 23  1  0  0  0  0
 10 24  1  0  0  0  0
 10 25  1  0  0  0  0
 11 26  1  0  0  0  0
 11 27  1  0  0  0  0
 11 28  1  0  0  0  0
 12 29  1  0  0  0  0
 12 30  1  0  0  0  0
 12 31  1  0  0  0  0
 13 32  1  0  0  0  0
 13 33  1  0  0  0  0
 13 34  1  0  0  0  0
 14 35  1  0  0  0  0
 14 36  1  0  0  0  0
 17 37  1  0  0  0  0
M  END
> <id>
EN300-801383

> <smiles>
COC=1C=CC=C2N=C(CC(C)(C)C)C(O)=CC12

> <MDLNUMBER>
MFCD31590740

> <IUPAC Name>
2-(2,2-dimethylpropyl)-5-methoxyquinolin-3-ol

> <CAS>
2138163-52-5

> <URL>
https://www.enaminestore.com/catalog/EN300-801383

> <ROCS_ShapeQuery>
_x1140_x0812_0A_x1140_0A_x1097_0A_x0365_0A_x1097_0A_x0310_0A

> <ROCS_TanimotoCombo>
0.613 

> <ROCS_ShapeTanimoto>
0.244 

> <ROCS_ColorTanimoto>
0.369 

> <ROCS_RefTversky>
0.221 

> <ROCS_RefColorTversky>
0.509 

> <ROCS_RefTverskyCombo>
0.730 

> <ROCS_FitTversky>
1.743 

> <ROCS_FitColorTversky>
0.573 

> <ROCS_FitTverskyCombo>
2.317 

> <ROCS_ColorScore>
-4.046

> <ROCS_Overlap>
2266.481

> <ROCS_Rank>
341                 

$$$$
untitled-dbase-424161_2
  -OEChem-02092423213D

 26 26  0     0  0  0  0  0  0999 V2000
    8.9350   12.5311   24.4941 C   0  0  0  0  0  0  0  0  0  0  0  0
    7.8489   10.6047   25.3691 C   0  0  0  0  0  0  0  0  0  0  0  0
    9.3962   11.7538   23.4376 C   0  0  0  0  0  0  0  0  0  0  0  0
    8.1461   11.9533   25.4825 C   0  0  0  0  0  0  0  0  0  0  0  0
    9.0433   10.4141   23.4158 C   0  0  0  0  0  0  0  0  0  0  0  0
   11.2757    9.3408   23.9580 C   0  0  0  0  0  0  0  0  0  0  0  0
   10.4689    7.4504   22.5142 C   0  0  0  0  0  0  0  0  0  0  0  0
   11.6814    9.3886   21.4745 C   0  0  0  0  0  0  0  0  0  0  0  0
   10.7267    8.9539   22.5855 C   0  0  0  0  0  0  0  0  0  0  0  0
    8.2787    9.8174   24.3577 N   0  0  0  0  0  0  0  0  0  0  0  0
   10.1948   12.3255   22.4313 N   0  0  0  0  0  0  0  0  0  0  0  0
    9.4752    9.6146   22.3939 O   0  0  0  0  0  0  0  0  0  0  0  0
    7.6890   12.6777   26.5101 F   0  0  0  0  0  0  0  0  0  0  0  0
    9.1832   13.5873   24.5570 H   0  0  0  0  0  0  0  0  0  0  0  0
    7.2385   10.1073   26.1155 H   0  0  0  0  0  0  0  0  0  0  0  0
   11.4621   10.4193   24.0132 H   0  0  0  0  0  0  0  0  0  0  0  0
   10.5843    9.0658   24.7611 H   0  0  0  0  0  0  0  0  0  0  0  0
   12.2377    8.8508   24.1466 H   0  0  0  0  0  0  0  0  0  0  0  0
   10.0749    7.1683   21.5311 H   0  0  0  0  0  0  0  0  0  0  0  0
    9.7126    7.1488   23.2479 H   0  0  0  0  0  0  0  0  0  0  0  0
   11.3813    6.8747   22.7002 H   0  0  0  0  0  0  0  0  0  0  0  0
   11.2878    9.1112   20.4899 H   0  0  0  0  0  0  0  0  0  0  0  0
   11.8492   10.4704   21.4873 H   0  0  0  0  0  0  0  0  0  0  0  0
   12.6497    8.8848   21.5735 H   0  0  0  0  0  0  0  0  0  0  0  0
   10.3898   13.3081   22.4566 H   0  0  0  0  0  0  0  0  0  0  0  0
   10.4805   11.7643   21.6518 H   0  0  0  0  0  0  0  0  0  0  0  0
  1  3  1  0  0  0  0
  1  4  2  0  0  0  0
  2  4  1  0  0  0  0
  2 10  2  0  0  0  0
  3  5  2  0  0  0  0
  3 11  1  0  0  0  0
  4 13  1  0  0  0  0
  5 10  1  0  0  0  0
  5 12  1  0  0  0  0
  6  9  1  0  0  0  0
  7  9  1  0  0  0  0
  8  9  1  0  0  0  0
  9 12  1  0  0  0  0
  1 14  1  0  0  0  0
  2 15  1  0  0  0  0
  6 16  1  0  0  0  0
  6 17  1  0  0  0  0
  6 18  1  0  0  0  0
  7 19  1  0  0  0  0
  7 20  1  0  0  0  0
  7 21  1  0  0  0  0
  8 22  1  0  0  0  0
  8 23  1  0  0  0  0
  8 24  1  0  0  0  0
 11 25  1  0  0  0  0
 11 26  1  0  0  0  0
M  END
> <id>
EN300-1295426

> <smiles>
CC(C)(C)OC=1N=CC(F)=CC1N

> <IUPAC Name>
2-(tert-butoxy)-5-fluoropyridin-3-amine

> <CAS>
1936290-28-6

> <URL>
https://www.enaminestore.com/catalog/EN300-1295426

> <ROCS_ShapeQuery>
_x1140_x0812_0A_x1140_0A_x1097_0A_x0365_0A_x1097_0A_x0310_0A

> <ROCS_TanimotoCombo>
0.613 

> <ROCS_ShapeTanimoto>
0.214 

> <ROCS_ColorTanimoto>
0.399 

> <ROCS_RefTversky>
0.195 

> <ROCS_RefColorTversky>
0.506 

> <ROCS_RefTverskyCombo>
0.701 

> <ROCS_FitTversky>
1.848 

> <ROCS_FitColorTversky>
0.654 

> <ROCS_FitTverskyCombo>
2.503 

> <ROCS_ColorScore>
-3.997

> <ROCS_Overlap>
1996.291

> <ROCS_Rank>
342                 

$$$$
untitled-dbase-33683_6
  -OEChem-02092423213D

 24 24  0     0  0  0  0  0  0999 V2000
    8.6106   12.4696   24.2030 C   0  0  0  0  0  0  0  0  0  0  0  0
    8.9364   10.1814   23.6423 C   0  0  0  0  0  0  0  0  0  0  0  0
    9.2956   11.5082   23.4684 C   0  0  0  0  0  0  0  0  0  0  0  0
    7.6015   12.0803   25.0769 C   0  0  0  0  0  0  0  0  0  0  0  0
    7.3180   10.7279   25.1787 C   0  0  0  0  0  0  0  0  0  0  0  0
   10.3545   11.8824   22.5474 C   0  0  0  0  0  0  0  0  0  0  0  0
   12.2125   14.3531   21.8706 C   0  0  0  0  0  0  0  0  0  0  0  0
   12.4813   12.9545   22.3837 C   0  0  0  0  0  0  0  0  0  0  0  0
    7.9618    9.7649   24.4816 N   0  0  0  0  0  0  0  0  0  0  0  0
    6.1471    8.9967   26.4254 N   0  0  0  0  0  0  0  0  0  0  0  0
    6.2927   10.3119   26.0641 N   0  0  0  0  0  0  0  0  0  0  0  0
   10.3426   11.6471   21.3307 O   0  0  0  0  0  0  0  0  0  0  0  0
   11.3749   12.5322   23.1881 O   0  0  0  0  0  0  0  0  0  0  0  0
    6.7624   13.2842   25.9799 Cl  0  0  0  0  0  0  0  0  0  0  0  0
    8.8673   13.5206   24.0906 H   0  0  0  0  0  0  0  0  0  0  0  0
    9.4348    9.3858   23.0968 H   0  0  0  0  0  0  0  0  0  0  0  0
   11.3068   14.3768   21.2582 H   0  0  0  0  0  0  0  0  0  0  0  0
   12.0944   15.0539   22.7036 H   0  0  0  0  0  0  0  0  0  0  0  0
   13.0546   14.7121   21.2696 H   0  0  0  0  0  0  0  0  0  0  0  0
   13.3883   12.9379   22.9953 H   0  0  0  0  0  0  0  0  0  0  0  0
   12.5982   12.2556   21.5501 H   0  0  0  0  0  0  0  0  0  0  0  0
    5.1550    8.7672   26.3890 H   0  0  0  0  0  0  0  0  0  0  0  0
    6.4231    8.8965   27.4014 H   0  0  0  0  0  0  0  0  0  0  0  0
    5.8086   11.0234   26.5869 H   0  0  0  0  0  0  0  0  0  0  0  0
  1  3  2  0  0  0  0
  1  4  1  0  0  0  0
  2  3  1  0  0  0  0
  2  9  2  0  0  0  0
  3  6  1  0  0  0  0
  4  5  2  0  0  0  0
  4 14  1  0  0  0  0
  5  9  1  0  0  0  0
  5 11  1  0  0  0  0
  6 12  2  0  0  0  0
  6 13  1  0  0  0  0
  7  8  1  0  0  0  0
  8 13  1  0  0  0  0
 10 11  1  0  0  0  0
  1 15  1  0  0  0  0
  2 16  1  0  0  0  0
  7 17  1  0  0  0  0
  7 18  1  0  0  0  0
  7 19  1  0  0  0  0
  8 20  1  0  0  0  0
  8 21  1  0  0  0  0
 10 22  1  0  0  0  0
 10 23  1  0  0  0  0
 11 24  1  0  0  0  0
M  END
> <id>
EN300-108856

> <smiles>
CCOC(=O)C=1C=NC(NN)=C(Cl)C1

> <MDLNUMBER>
MFCD27980620

> <IUPAC Name>
ethyl 5-chloro-6-hydrazinylpyridine-3-carboxylate

> <CAS>
1195318-86-5

> <URL>
https://www.enaminestore.com/catalog/EN300-108856

> <ROCS_ShapeQuery>
_x1140_x0812_0A_x1140_0A_x1097_0A_x0365_0A_x1097_0A_x0310_0A

> <ROCS_TanimotoCombo>
0.613 

> <ROCS_ShapeTanimoto>
0.237 

> <ROCS_ColorTanimoto>
0.376 

> <ROCS_RefTversky>
0.212 

> <ROCS_RefColorTversky>
0.462 

> <ROCS_RefTverskyCombo>
0.675 

> <ROCS_FitTversky>
1.960 

> <ROCS_FitColorTversky>
0.668 

> <ROCS_FitTverskyCombo>
2.629 

> <ROCS_ColorScore>
-3.636

> <ROCS_Overlap>
2176.522

> <ROCS_Rank>
343                 

$$$$
untitled-dbase-15146_3
  -OEChem-02092423213D

 20 20  0     0  0  0  0  0  0999 V2000
    7.1826   11.9327   24.8425 C   0  0  0  0  0  0  0  0  0  0  0  0
    8.0690   12.3463   23.8543 C   0  0  0  0  0  0  0  0  0  0  0  0
    7.2716   10.6233   25.2869 C   0  0  0  0  0  0  0  0  0  0  0  0
    9.0041   11.4506   23.3478 C   0  0  0  0  0  0  0  0  0  0  0  0
    9.0117   10.1629   23.8592 C   0  0  0  0  0  0  0  0  0  0  0  0
    9.9248   11.8920   22.3092 C   0  0  0  0  0  0  0  0  0  0  0  0
   10.0066    8.8725   21.9695 C   0  0  0  0  0  0  0  0  0  0  0  0
    8.1665    9.7245   24.8190 N   0  0  0  0  0  0  0  0  0  0  0  0
   11.1380   12.4399   22.7124 N   0  0  0  0  0  0  0  0  0  0  0  0
    9.9605    9.2429   23.3460 N   0  0  0  0  0  0  0  0  0  0  0  0
    9.6329   11.7995   21.1051 O   0  0  0  0  0  0  0  0  0  0  0  0
    6.4443   12.6134   25.2507 H   0  0  0  0  0  0  0  0  0  0  0  0
    8.0212   13.3680   23.4869 H   0  0  0  0  0  0  0  0  0  0  0  0
    6.6030   10.2515   26.0563 H   0  0  0  0  0  0  0  0  0  0  0  0
    9.2167    9.4050   21.4194 H   0  0  0  0  0  0  0  0  0  0  0  0
   10.9883    9.1391   21.5509 H   0  0  0  0  0  0  0  0  0  0  0  0
    9.8506    7.7876   21.8764 H   0  0  0  0  0  0  0  0  0  0  0  0
   11.3440   12.5154   23.7026 H   0  0  0  0  0  0  0  0  0  0  0  0
   11.8213   12.7657   22.0365 H   0  0  0  0  0  0  0  0  0  0  0  0
   10.6078    8.8559   24.0016 H   0  0  0  0  0  0  0  0  0  0  0  0
  1  2  2  0  0  0  0
  1  3  1  0  0  0  0
  2  4  1  0  0  0  0
  3  8  2  0  0  0  0
  4  5  2  0  0  0  0
  4  6  1  0  0  0  0
  5  8  1  0  0  0  0
  5 10  1  0  0  0  0
  6  9  1  0  0  0  0
  6 11  2  0  0  0  0
  7 10  1  0  0  0  0
  1 12  1  0  0  0  0
  2 13  1  0  0  0  0
  3 14  1  0  0  0  0
  7 15  1  0  0  0  0
  7 16  1  0  0  0  0
  7 17  1  0  0  0  0
  9 18  1  0  0  0  0
  9 19  1  0  0  0  0
 10 20  1  0  0  0  0
M  END
> <id>
EN300-82953

> <smiles>
CNC=1N=CC=CC1C(=O)N

> <MDLNUMBER>
MFCD11052030

> <IUPAC Name>
2-(methylamino)pyridine-3-carboxamide

> <CAS>
103976-52-9

> <Purity>
95

> <URL>
https://www.enaminestore.com/catalog/EN300-82953

> <MP>
182-184

> <ROCS_ShapeQuery>
_x1140_x0812_0A_x1140_0A_x1097_0A_x0365_0A_x1097_0A_x0310_0A

> <ROCS_TanimotoCombo>
0.613 

> <ROCS_ShapeTanimoto>
0.214 

> <ROCS_ColorTanimoto>
0.399 

> <ROCS_RefTversky>
0.194 

> <ROCS_RefColorTversky>
0.472 

> <ROCS_RefTverskyCombo>
0.666 

> <ROCS_FitTversky>
1.994 

> <ROCS_FitColorTversky>
0.719 

> <ROCS_FitTverskyCombo>
2.714 

> <ROCS_ColorScore>
-3.704

> <ROCS_Overlap>
1984.884

> <ROCS_Rank>
344                 

$$$$
untitled-dbase-536331_5
  -OEChem-02092423213D

 27 27  0     0  0  0  0  0  0999 V2000
    8.3923   12.3366   24.1836 C   0  0  0  0  0  0  0  0  0  0  0  0
    9.1921   11.4621   23.4765 C   0  0  0  0  0  0  0  0  0  0  0  0
    8.9570   10.1215   23.7036 C   0  0  0  0  0  0  0  0  0  0  0  0
    7.3016   10.6105   25.1827 C   0  0  0  0  0  0  0  0  0  0  0  0
   10.2076   11.9515   22.5602 C   0  0  0  0  0  0  0  0  0  0  0  0
    9.7612    9.0813   22.9951 C   0  0  0  0  0  0  0  0  0  0  0  0
   13.0996   14.1008   23.2836 C   0  0  0  0  0  0  0  0  0  0  0  0
    5.4735   11.0556   26.8214 C   0  0  0  0  0  0  0  0  0  0  0  0
   12.1875   13.2755   22.4012 C   0  0  0  0  0  0  0  0  0  0  0  0
    7.4338   11.9439   25.0482 N   0  0  0  0  0  0  0  0  0  0  0  0
    8.0165    9.6586   24.5531 N   0  0  0  0  0  0  0  0  0  0  0  0
    6.3079   10.1626   26.0803 N   0  0  0  0  0  0  0  0  0  0  0  0
   10.2386   11.6995   21.3474 O   0  0  0  0  0  0  0  0  0  0  0  0
   11.1323   12.7310   23.2011 O   0  0  0  0  0  0  0  0  0  0  0  0
    8.4963   13.4122   24.0778 H   0  0  0  0  0  0  0  0  0  0  0  0
   10.6521    8.8261   23.5805 H   0  0  0  0  0  0  0  0  0  0  0  0
    9.1748    8.1682   22.8347 H   0  0  0  0  0  0  0  0  0  0  0  0
   10.0812    9.4331   22.0065 H   0  0  0  0  0  0  0  0  0  0  0  0
   12.5520   14.9259   23.7473 H   0  0  0  0  0  0  0  0  0  0  0  0
   13.5388   13.4806   24.0719 H   0  0  0  0  0  0  0  0  0  0  0  0
   13.9312   14.5117   22.7015 H   0  0  0  0  0  0  0  0  0  0  0  0
    5.7359   12.0946   26.5731 H   0  0  0  0  0  0  0  0  0  0  0  0
    4.4200   10.8719   26.5635 H   0  0  0  0  0  0  0  0  0  0  0  0
    5.6220   10.8874   27.8983 H   0  0  0  0  0  0  0  0  0  0  0  0
   12.7413   12.4520   21.9404 H   0  0  0  0  0  0  0  0  0  0  0  0
   11.7489   13.8968   21.6146 H   0  0  0  0  0  0  0  0  0  0  0  0
    6.2052    9.1715   26.1843 H   0  0  0  0  0  0  0  0  0  0  0  0
  1  2  1  0  0  0  0
  1 10  2  0  0  0  0
  2  3  2  0  0  0  0
  2  5  1  0  0  0  0
  3  6  1  0  0  0  0
  3 11  1  0  0  0  0
  4 10  1  0  0  0  0
  4 11  2  0  0  0  0
  4 12  1  0  0  0  0
  5 13  2  0  0  0  0
  5 14  1  0  0  0  0
  7  9  1  0  0  0  0
  8 12  1  0  0  0  0
  9 14  1  0  0  0  0
  1 15  1  0  0  0  0
  6 16  1  0  0  0  0
  6 17  1  0  0  0  0
  6 18  1  0  0  0  0
  7 19  1  0  0  0  0
  7 20  1  0  0  0  0
  7 21  1  0  0  0  0
  8 22  1  0  0  0  0
  8 23  1  0  0  0  0
  8 24  1  0  0  0  0
  9 25  1  0  0  0  0
  9 26  1  0  0  0  0
 12 27  1  0  0  0  0
M  END
> <id>
EN300-685400

> <smiles>
CCOC(=O)C=1C=NC(NC)=NC1C

> <MDLNUMBER>
MFCD20669985

> <IUPAC Name>
ethyl 4-methyl-2-(methylamino)pyrimidine-5-carboxylate

> <CAS>
102494-92-8

> <URL>
https://www.enaminestore.com/catalog/EN300-685400

> <ROCS_ShapeQuery>
_x1140_x0812_0A_x1140_0A_x1097_0A_x0365_0A_x1097_0A_x0310_0A

> <ROCS_TanimotoCombo>
0.613 

> <ROCS_ShapeTanimoto>
0.253 

> <ROCS_ColorTanimoto>
0.360 

> <ROCS_RefTversky>
0.224 

> <ROCS_RefColorTversky>
0.438 

> <ROCS_RefTverskyCombo>
0.662 

> <ROCS_FitTversky>
2.052 

> <ROCS_FitColorTversky>
0.667 

> <ROCS_FitTverskyCombo>
2.720 

> <ROCS_ColorScore>
-3.440

> <ROCS_Overlap>
2298.462

> <ROCS_Rank>
345                 

$$$$
untitled-dbase-491810_8
  -OEChem-02092423213D

 33 33  0     0  0  0  0  0  0999 V2000
    8.4788   12.8209   25.3187 C   0  0  0  0  0  0  0  0  0  0  0  0
    9.1482   12.4093   24.1716 C   0  0  0  0  0  0  0  0  0  0  0  0
    7.5497   11.9762   25.9156 C   0  0  0  0  0  0  0  0  0  0  0  0
    8.8549   11.1535   23.6650 C   0  0  0  0  0  0  0  0  0  0  0  0
    7.3277   10.7398   25.3308 C   0  0  0  0  0  0  0  0  0  0  0  0
    9.5391   10.6615   22.4426 C   0  0  0  0  0  0  0  0  0  0  0  0
   11.9187    9.8107   23.0899 C   0  0  0  0  0  0  0  0  0  0  0  0
   10.9969    7.4767   23.2002 C   0  0  0  0  0  0  0  0  0  0  0  0
   11.3735    8.5685   20.9699 C   0  0  0  0  0  0  0  0  0  0  0  0
    6.0800    8.5805   25.4082 C   0  0  0  0  0  0  0  0  0  0  0  0
   10.9862    8.7956   22.4304 C   0  0  0  0  0  0  0  0  0  0  0  0
    7.9587   10.3051   24.2170 N   0  0  0  0  0  0  0  0  0  0  0  0
    6.8710   12.3911   27.0768 N   0  0  0  0  0  0  0  0  0  0  0  0
    6.3818    9.8720   25.9326 N   0  0  0  0  0  0  0  0  0  0  0  0
    9.9328   11.3992   21.5525 O   0  0  0  0  0  0  0  0  0  0  0  0
    9.6538    9.3078   22.4731 O   0  0  0  0  0  0  0  0  0  0  0  0
    8.6892   13.8013   25.7382 H   0  0  0  0  0  0  0  0  0  0  0  0
    9.8753   13.0596   23.6970 H   0  0  0  0  0  0  0  0  0  0  0  0
   11.9138   10.7588   22.5403 H   0  0  0  0  0  0  0  0  0  0  0  0
   11.6304   10.0087   24.1274 H   0  0  0  0  0  0  0  0  0  0  0  0
   12.9548    9.4535   23.0807 H   0  0  0  0  0  0  0  0  0  0  0  0
   10.3292    6.7454   22.7305 H   0  0  0  0  0  0  0  0  0  0  0  0
   10.6289    7.6186   24.2227 H   0  0  0  0  0  0  0  0  0  0  0  0
   12.0023    7.0463   23.2501 H   0  0  0  0  0  0  0  0  0  0  0  0
   10.7048    7.8405   20.4966 H   0  0  0  0  0  0  0  0  0  0  0  0
   11.3355    9.4984   20.3932 H   0  0  0  0  0  0  0  0  0  0  0  0
   12.3852    8.1535   20.8950 H   0  0  0  0  0  0  0  0  0  0  0  0
    6.6844    8.3996   24.5072 H   0  0  0  0  0  0  0  0  0  0  0  0
    6.3104    7.8151   26.1639 H   0  0  0  0  0  0  0  0  0  0  0  0
    5.0120    8.5304   25.1494 H   0  0  0  0  0  0  0  0  0  0  0  0
    7.0993   13.2744   27.4895 H   0  0  0  0  0  0  0  0  0  0  0  0
    6.2385   11.7590   27.5275 H   0  0  0  0  0  0  0  0  0  0  0  0
    5.9253   10.2095   26.7548 H   0  0  0  0  0  0  0  0  0  0  0  0
  1  2  2  0  0  0  0
  1  3  1  0  0  0  0
  2  4  1  0  0  0  0
  3  5  2  0  0  0  0
  3 13  1  0  0  0  0
  4  6  1  0  0  0  0
  4 12  2  0  0  0  0
  5 12  1  0  0  0  0
  5 14  1  0  0  0  0
  6 15  2  0  0  0  0
  6 16  1  0  0  0  0
  7 11  1  0  0  0  0
  8 11  1  0  0  0  0
  9 11  1  0  0  0  0
 10 14  1  0  0  0  0
 11 16  1  0  0  0  0
  1 17  1  0  0  0  0
  2 18  1  0  0  0  0
  7 19  1  0  0  0  0
  7 20  1  0  0  0  0
  7 21  1  0  0  0  0
  8 22  1  0  0  0  0
  8 23  1  0  0  0  0
  8 24  1  0  0  0  0
  9 25  1  0  0  0  0
  9 26  1  0  0  0  0
  9 27  1  0  0  0  0
 10 28  1  0  0  0  0
 10 29  1  0  0  0  0
 10 30  1  0  0  0  0
 13 31  1  0  0  0  0
 13 32  1  0  0  0  0
 14 33  1  0  0  0  0
M  END
> <id>
EN300-27782357

> <smiles>
CNC=1N=C(C=CC1N)C(=O)OC(C)(C)C

> <IUPAC Name>
tert-butyl 5-amino-6-(methylamino)pyridine-2-carboxylate

> <CAS>
2639454-63-8

> <URL>
https://www.enaminestore.com/catalog/EN300-27782357

> <ROCS_ShapeQuery>
_x1140_x0812_0A_x1140_0A_x1097_0A_x0365_0A_x1097_0A_x0310_0A

> <ROCS_TanimotoCombo>
0.613 

> <ROCS_ShapeTanimoto>
0.228 

> <ROCS_ColorTanimoto>
0.385 

> <ROCS_RefTversky>
0.208 

> <ROCS_RefColorTversky>
0.524 

> <ROCS_RefTverskyCombo>
0.732 

> <ROCS_FitTversky>
1.764 

> <ROCS_FitColorTversky>
0.591 

> <ROCS_FitTverskyCombo>
2.355 

> <ROCS_ColorScore>
-4.169

> <ROCS_Overlap>
2129.402

> <ROCS_Rank>
346                 

$$$$
untitled-dbase-388813_2
  -OEChem-02092423213D

 33 33  0     0  0  0  0  0  0999 V2000
    8.2351   12.3891   24.0396 C   0  0  0  0  0  0  0  0  0  0  0  0
    9.1729   11.5933   23.4139 C   0  0  0  0  0  0  0  0  0  0  0  0
    9.1075   10.2473   23.7110 C   0  0  0  0  0  0  0  0  0  0  0  0
    7.3401   10.5882   25.0992 C   0  0  0  0  0  0  0  0  0  0  0  0
   10.1533   12.1647   22.5068 C   0  0  0  0  0  0  0  0  0  0  0  0
   12.7024   14.7186   23.2044 C   0  0  0  0  0  0  0  0  0  0  0  0
    9.3714    8.2380   22.2122 C   0  0  0  0  0  0  0  0  0  0  0  0
   10.9547    8.5873   24.1425 C   0  0  0  0  0  0  0  0  0  0  0  0
    5.4006   10.8710   26.6432 C   0  0  0  0  0  0  0  0  0  0  0  0
   11.9460   13.7322   22.3404 C   0  0  0  0  0  0  0  0  0  0  0  0
   10.0870    9.2728   23.0840 C   0  0  0  0  0  0  0  0  0  0  0  0
    7.3007   11.9181   24.8913 N   0  0  0  0  0  0  0  0  0  0  0  0
    8.2008    9.7085   24.5525 N   0  0  0  0  0  0  0  0  0  0  0  0
    6.3766   10.0597   25.9860 N   0  0  0  0  0  0  0  0  0  0  0  0
   10.2693   11.8546   21.3128 O   0  0  0  0  0  0  0  0  0  0  0  0
   10.9386   13.0946   23.1331 O   0  0  0  0  0  0  0  0  0  0  0  0
    8.2005   13.4617   23.8744 H   0  0  0  0  0  0  0  0  0  0  0  0
   12.0312   15.4863   23.5991 H   0  0  0  0  0  0  0  0  0  0  0  0
   13.1854   14.2061   24.0428 H   0  0  0  0  0  0  0  0  0  0  0  0
   13.4967   15.2056   22.6289 H   0  0  0  0  0  0  0  0  0  0  0  0
    8.6692    7.6287   22.7917 H   0  0  0  0  0  0  0  0  0  0  0  0
   10.0953    7.5594   21.7479 H   0  0  0  0  0  0  0  0  0  0  0  0
    8.8066    8.7257   21.4097 H   0  0  0  0  0  0  0  0  0  0  0  0
   10.3384    8.0058   24.8373 H   0  0  0  0  0  0  0  0  0  0  0  0
   11.5078    9.3307   24.7267 H   0  0  0  0  0  0  0  0  0  0  0  0
   11.6862    7.9059   23.6945 H   0  0  0  0  0  0  0  0  0  0  0  0
    5.5338   11.9209   26.3436 H   0  0  0  0  0  0  0  0  0  0  0  0
    4.3926   10.5339   26.3595 H   0  0  0  0  0  0  0  0  0  0  0  0
    5.5237   10.7822   27.7327 H   0  0  0  0  0  0  0  0  0  0  0  0
   12.6230   12.9671   21.9488 H   0  0  0  0  0  0  0  0  0  0  0  0
   11.4633   14.2459   21.5036 H   0  0  0  0  0  0  0  0  0  0  0  0
   10.7650    9.8333   22.4267 H   0  0  0  0  0  0  0  0  0  0  0  0
    6.4013    9.0708   26.1444 H   0  0  0  0  0  0  0  0  0  0  0  0
  1  2  1  0  0  0  0
  1 12  2  0  0  0  0
  2  3  2  0  0  0  0
  2  5  1  0  0  0  0
  3 11  1  0  0  0  0
  3 13  1  0  0  0  0
  4 12  1  0  0  0  0
  4 13  2  0  0  0  0
  4 14  1  0  0  0  0
  5 15  2  0  0  0  0
  5 16  1  0  0  0  0
  6 10  1  0  0  0  0
  7 11  1  0  0  0  0
  8 11  1  0  0  0  0
  9 14  1  0  0  0  0
 10 16  1  0  0  0  0
  1 17  1  0  0  0  0
  6 18  1  0  0  0  0
  6 19  1  0  0  0  0
  6 20  1  0  0  0  0
  7 21  1  0  0  0  0
  7 22  1  0  0  0  0
  7 23  1  0  0  0  0
  8 24  1  0  0  0  0
  8 25  1  0  0  0  0
  8 26  1  0  0  0  0
  9 27  1  0  0  0  0
  9 28  1  0  0  0  0
  9 29  1  0  0  0  0
 10 30  1  0  0  0  0
 10 31  1  0  0  0  0
 11 32  1  0  0  0  0
 14 33  1  0  0  0  0
M  END
> <id>
EN300-685408

> <smiles>
CCOC(=O)C=1C=NC(NC)=NC1C(C)C

> <MDLNUMBER>
MFCD31428042

> <IUPAC Name>
ethyl 2-(methylamino)-4-(propan-2-yl)pyrimidine-5-carboxylate

> <CAS>
1601936-95-1

> <URL>
https://www.enaminestore.com/catalog/EN300-685408

> <ROCS_ShapeQuery>
_x1140_x0812_0A_x1140_0A_x1097_0A_x0365_0A_x1097_0A_x0310_0A

> <ROCS_TanimotoCombo>
0.613 

> <ROCS_ShapeTanimoto>
0.268 

> <ROCS_ColorTanimoto>
0.345 

> <ROCS_RefTversky>
0.236 

> <ROCS_RefColorTversky>
0.455 

> <ROCS_RefTverskyCombo>
0.691 

> <ROCS_FitTversky>
2.022 

> <ROCS_FitColorTversky>
0.588 

> <ROCS_FitTverskyCombo>
2.610 

> <ROCS_ColorScore>
-3.593

> <ROCS_Overlap>
2418.862

> <ROCS_Rank>
347                 

$$$$
untitled-dbase-291597_6
  -OEChem-02092423213D

 31 31  0     0  0  0  0  0  0999 V2000
    7.5440   12.0901   25.1789 C   0  0  0  0  0  0  0  0  0  0  0  0
    8.4429   12.5126   24.2059 C   0  0  0  0  0  0  0  0  0  0  0  0
    7.4644   10.7322   25.4424 C   0  0  0  0  0  0  0  0  0  0  0  0
    9.2237   11.5775   23.5356 C   0  0  0  0  0  0  0  0  0  0  0  0
    9.0691   10.2426   23.8729 C   0  0  0  0  0  0  0  0  0  0  0  0
   10.1768   12.0384   22.4947 C   0  0  0  0  0  0  0  0  0  0  0  0
   10.4331   14.7409   21.6383 C   0  0  0  0  0  0  0  0  0  0  0  0
   12.5884   14.7450   22.9283 C   0  0  0  0  0  0  0  0  0  0  0  0
   12.3013   13.1890   20.9779 C   0  0  0  0  0  0  0  0  0  0  0  0
   10.2748    8.0594   23.7966 C   0  0  0  0  0  0  0  0  0  0  0  0
   11.5989   13.8899   22.1398 C   0  0  0  0  0  0  0  0  0  0  0  0
    8.2065    9.7941   24.8123 N   0  0  0  0  0  0  0  0  0  0  0  0
    9.8598    9.2828   23.1921 N   0  0  0  0  0  0  0  0  0  0  0  0
   10.1216   11.6781   21.3291 O   0  0  0  0  0  0  0  0  0  0  0  0
   11.0866   12.8956   23.0278 O   0  0  0  0  0  0  0  0  0  0  0  0
    6.9241   12.8012   25.7128 H   0  0  0  0  0  0  0  0  0  0  0  0
    8.5257   13.5722   23.9785 H   0  0  0  0  0  0  0  0  0  0  0  0
    6.7788   10.3514   26.1923 H   0  0  0  0  0  0  0  0  0  0  0  0
    9.7206   14.1307   21.0718 H   0  0  0  0  0  0  0  0  0  0  0  0
    9.8994   15.2212   22.4648 H   0  0  0  0  0  0  0  0  0  0  0  0
   10.7848   15.5211   20.9535 H   0  0  0  0  0  0  0  0  0  0  0  0
   13.4264   14.1384   23.2901 H   0  0  0  0  0  0  0  0  0  0  0  0
   12.1116   15.1742   23.8171 H   0  0  0  0  0  0  0  0  0  0  0  0
   12.9892   15.5629   22.3209 H   0  0  0  0  0  0  0  0  0  0  0  0
   13.1375   12.5784   21.3374 H   0  0  0  0  0  0  0  0  0  0  0  0
   11.6145   12.5418   20.4227 H   0  0  0  0  0  0  0  0  0  0  0  0
   12.7290   13.9205   20.2828 H   0  0  0  0  0  0  0  0  0  0  0  0
    9.8867    8.0076   24.8245 H   0  0  0  0  0  0  0  0  0  0  0  0
    9.8842    7.2119   23.2142 H   0  0  0  0  0  0  0  0  0  0  0  0
   11.3737    8.0149   23.8169 H   0  0  0  0  0  0  0  0  0  0  0  0
   10.1209    9.5034   22.2532 H   0  0  0  0  0  0  0  0  0  0  0  0
  1  2  2  0  0  0  0
  1  3  1  0  0  0  0
  2  4  1  0  0  0  0
  3 12  2  0  0  0  0
  4  5  2  0  0  0  0
  4  6  1  0  0  0  0
  5 12  1  0  0  0  0
  5 13  1  0  0  0  0
  6 14  2  0  0  0  0
  6 15  1  0  0  0  0
  7 11  1  0  0  0  0
  8 11  1  0  0  0  0
  9 11  1  0  0  0  0
 10 13  1  0  0  0  0
 11 15  1  0  0  0  0
  1 16  1  0  0  0  0
  2 17  1  0  0  0  0
  3 18  1  0  0  0  0
  7 19  1  0  0  0  0
  7 20  1  0  0  0  0
  7 21  1  0  0  0  0
  8 22  1  0  0  0  0
  8 23  1  0  0  0  0
  8 24  1  0  0  0  0
  9 25  1  0  0  0  0
  9 26  1  0  0  0  0
  9 27  1  0  0  0  0
 10 28  1  0  0  0  0
 10 29  1  0  0  0  0
 10 30  1  0  0  0  0
 13 31  1  0  0  0  0
M  END
> <id>
EN300-6508542

> <smiles>
CNC=1N=CC=CC1C(=O)OC(C)(C)C

> <MDLNUMBER>
MFCD24564534

> <IUPAC Name>
tert-butyl 2-(methylamino)pyridine-3-carboxylate

> <CAS>
338990-70-8

> <URL>
https://www.enaminestore.com/catalog/EN300-6508542

> <ROCS_ShapeQuery>
_x1140_x0812_0A_x1140_0A_x1097_0A_x0365_0A_x1097_0A_x0310_0A

> <ROCS_TanimotoCombo>
0.613 

> <ROCS_ShapeTanimoto>
0.241 

> <ROCS_ColorTanimoto>
0.372 

> <ROCS_RefTversky>
0.216 

> <ROCS_RefColorTversky>
0.449 

> <ROCS_RefTverskyCombo>
0.665 

> <ROCS_FitTversky>
1.902 

> <ROCS_FitColorTversky>
0.685 

> <ROCS_FitTverskyCombo>
2.587 

> <ROCS_ColorScore>
-3.526

> <ROCS_Overlap>
2214.960

> <ROCS_Rank>
348                 

$$$$
untitled-dbase-144753_0
  -OEChem-02092423213D

 16 16  0     0  0  0  0  0  0999 V2000
    9.2747   11.6226   23.4382 C   0  0  0  0  0  0  0  0  0  0  0  0
    9.1301   10.2792   23.7187 C   0  0  0  0  0  0  0  0  0  0  0  0
    8.3641   12.4612   24.0479 C   0  0  0  0  0  0  0  0  0  0  0  0
    7.3472   10.7006   25.0644 C   0  0  0  0  0  0  0  0  0  0  0  0
    8.1741    9.7816   24.5303 N   0  0  0  0  0  0  0  0  0  0  0  0
    7.3837   12.0327   24.8698 N   0  0  0  0  0  0  0  0  0  0  0  0
   10.2824   12.1045   22.5882 N   0  0  0  0  0  0  0  0  0  0  0  0
   10.0328    9.3630   23.1240 N   0  0  0  0  0  0  0  0  0  0  0  0
    6.3340   10.2157   25.9198 N   0  0  0  0  0  0  0  0  0  0  0  0
    8.3786   14.1674   23.8252 Cl  0  0  0  0  0  0  0  0  0  0  0  0
   10.9526   11.4648   22.2032 H   0  0  0  0  0  0  0  0  0  0  0  0
   10.3808   13.0932   22.4489 H   0  0  0  0  0  0  0  0  0  0  0  0
   10.7157    9.7066   22.4845 H   0  0  0  0  0  0  0  0  0  0  0  0
    9.9043    8.3878   23.2853 H   0  0  0  0  0  0  0  0  0  0  0  0
    6.2416    9.2299   26.0543 H   0  0  0  0  0  0  0  0  0  0  0  0
    5.6699   10.8584   26.2999 H   0  0  0  0  0  0  0  0  0  0  0  0
  1  2  1  0  0  0  0
  1  3  2  0  0  0  0
  1  7  1  0  0  0  0
  2  5  2  0  0  0  0
  2  8  1  0  0  0  0
  3  6  1  0  0  0  0
  3 10  1  0  0  0  0
  4  5  1  0  0  0  0
  4  6  2  0  0  0  0
  4  9  1  0  0  0  0
  7 11  1  0  0  0  0
  7 12  1  0  0  0  0
  8 13  1  0  0  0  0
  8 14  1  0  0  0  0
  9 15  1  0  0  0  0
  9 16  1  0  0  0  0
M  END
> <id>
EN300-1273031

> <smiles>
NC=1N=C(N)C(N)=C(Cl)N1

> <MDLNUMBER>
MFCD11114448

> <IUPAC Name>
6-chloropyrimidine-2,4,5-triamine

> <CAS>
1194-78-1

> <Purity>
95

> <URL>
https://www.enaminestore.com/catalog/EN300-1273031

> <MP>
226-227

> <ROCS_ShapeQuery>
_x1140_x0812_0A_x1140_0A_x1097_0A_x0365_0A_x1097_0A_x0310_0A

> <ROCS_TanimotoCombo>
0.613 

> <ROCS_ShapeTanimoto>
0.212 

> <ROCS_ColorTanimoto>
0.401 

> <ROCS_RefTversky>
0.191 

> <ROCS_RefColorTversky>
0.605 

> <ROCS_RefTverskyCombo>
0.796 

> <ROCS_FitTversky>
2.055 

> <ROCS_FitColorTversky>
0.543 

> <ROCS_FitTverskyCombo>
2.598 

> <ROCS_ColorScore>
-4.874

> <ROCS_Overlap>
1955.326

> <ROCS_Rank>
349                 

$$$$
untitled-dbase-481376_7
  -OEChem-02092423213D

 29 29  0     0  0  0  0  0  0999 V2000
    7.8874   11.9550   25.4122 C   0  0  0  0  0  0  0  0  0  0  0  0
    7.3443   10.7003   25.2660 C   0  0  0  0  0  0  0  0  0  0  0  0
    8.7336   10.9087   23.6670 C   0  0  0  0  0  0  0  0  0  0  0  0
    9.5362   10.5955   22.4577 C   0  0  0  0  0  0  0  0  0  0  0  0
   11.9424    9.9083   23.1945 C   0  0  0  0  0  0  0  0  0  0  0  0
   11.2456    7.5001   23.0391 C   0  0  0  0  0  0  0  0  0  0  0  0
   11.6515    8.8223   20.9427 C   0  0  0  0  0  0  0  0  0  0  0  0
    9.6016   13.2261   24.1069 C   0  0  0  0  0  0  0  0  0  0  0  0
   11.1548    8.8778   22.3866 C   0  0  0  0  0  0  0  0  0  0  0  0
    7.8754   10.0540   24.1780 N   0  0  0  0  0  0  0  0  0  0  0  0
    8.7759   12.0739   24.3809 N   0  0  0  0  0  0  0  0  0  0  0  0
    6.4106   10.1460   26.0681 N   0  0  0  0  0  0  0  0  0  0  0  0
    9.9108   11.4447   21.6640 O   0  0  0  0  0  0  0  0  0  0  0  0
    9.7791    9.2608   22.3798 O   0  0  0  0  0  0  0  0  0  0  0  0
    7.7268   12.7456   26.1326 H   0  0  0  0  0  0  0  0  0  0  0  0
   11.8797   10.8986   22.7294 H   0  0  0  0  0  0  0  0  0  0  0  0
   11.5730    9.9829   24.2224 H   0  0  0  0  0  0  0  0  0  0  0  0
   13.0068    9.6490   23.2272 H   0  0  0  0  0  0  0  0  0  0  0  0
   10.6819    6.7575   22.4628 H   0  0  0  0  0  0  0  0  0  0  0  0
   10.8033    7.5132   24.0418 H   0  0  0  0  0  0  0  0  0  0  0  0
   12.2829    7.1599   23.1222 H   0  0  0  0  0  0  0  0  0  0  0  0
   11.0868    8.0832   20.3630 H   0  0  0  0  0  0  0  0  0  0  0  0
   11.5594    9.7940   20.4468 H   0  0  0  0  0  0  0  0  0  0  0  0
   12.7012    8.5094   20.9035 H   0  0  0  0  0  0  0  0  0  0  0  0
   10.5453   13.1002   24.6442 H   0  0  0  0  0  0  0  0  0  0  0  0
    9.7811   13.2978   23.0306 H   0  0  0  0  0  0  0  0  0  0  0  0
    9.0855   14.1291   24.4449 H   0  0  0  0  0  0  0  0  0  0  0  0
    6.0557   10.6251   26.9089 H   0  0  0  0  0  0  0  0  0  0  0  0
    6.0761    9.1803   25.9337 H   0  0  0  0  0  0  0  0  0  0  0  0
  1  2  2  0  0  0  0
  1 11  1  0  0  0  0
  2 10  1  0  0  0  0
  2 12  1  0  0  0  0
  3  4  1  0  0  0  0
  3 10  2  0  0  0  0
  3 11  1  0  0  0  0
  4 13  2  0  0  0  0
  4 14  1  0  0  0  0
  5  9  1  0  0  0  0
  6  9  1  0  0  0  0
  7  9  1  0  0  0  0
  8 11  1  0  0  0  0
  9 14  1  0  0  0  0
  1 15  1  0  0  0  0
  5 16  1  0  0  0  0
  5 17  1  0  0  0  0
  5 18  1  0  0  0  0
  6 19  1  0  0  0  0
  6 20  1  0  0  0  0
  6 21  1  0  0  0  0
  7 22  1  0  0  0  0
  7 23  1  0  0  0  0
  7 24  1  0  0  0  0
  8 25  1  0  0  0  0
  8 26  1  0  0  0  0
  8 27  1  0  0  0  0
 12 28  1  0  0  0  0
 12 29  1  0  0  0  0
M  END
> <id>
EN300-8638539

> <smiles>
CN1C=C(N)N=C1C(=O)OC(C)(C)C

> <MDLNUMBER>
MFCD20694651

> <IUPAC Name>
tert-butyl 4-amino-1-methyl-1H-imidazole-2-carboxylate

> <CAS>
1238706-89-2

> <URL>
https://www.enaminestore.com/catalog/EN300-8638539

> <ROCS_ShapeQuery>
_x1140_x0812_0A_x1140_0A_x1097_0A_x0365_0A_x1097_0A_x0310_0A

> <ROCS_TanimotoCombo>
0.613 

> <ROCS_ShapeTanimoto>
0.219 

> <ROCS_ColorTanimoto>
0.393 

> <ROCS_RefTversky>
0.200 

> <ROCS_RefColorTversky>
0.533 

> <ROCS_RefTverskyCombo>
0.732 

> <ROCS_FitTversky>
1.810 

> <ROCS_FitColorTversky>
0.600 

> <ROCS_FitTverskyCombo>
2.410 

> <ROCS_ColorScore>
-4.237

> <ROCS_Overlap>
2045.649

> <ROCS_Rank>
350                 

$$$$
untitled-dbase-460088_0
  -OEChem-02092423213D

 18 18  0     0  0  0  0  0  0999 V2000
    8.5005   12.4354   24.6439 C   0  0  0  0  0  0  0  0  0  0  0  0
    9.3669   11.6441   23.9174 C   0  0  0  0  0  0  0  0  0  0  0  0
    9.0944   10.2914   23.9317 C   0  0  0  0  0  0  0  0  0  0  0  0
    7.2865   10.6186   25.2703 C   0  0  0  0  0  0  0  0  0  0  0  0
   10.5090   12.2449   23.1797 C   0  0  0  0  0  0  0  0  0  0  0  0
    7.4462   11.9542   25.3347 N   0  0  0  0  0  0  0  0  0  0  0  0
    8.0589    9.7423   24.6001 N   0  0  0  0  0  0  0  0  0  0  0  0
    9.9494    9.4281   23.2034 N   0  0  0  0  0  0  0  0  0  0  0  0
    6.1925   10.0792   25.9817 N   0  0  0  0  0  0  0  0  0  0  0  0
   10.3875   11.9520   21.7914 O   0  0  0  0  0  0  0  0  0  0  0  0
    8.6274   13.5122   24.6968 H   0  0  0  0  0  0  0  0  0  0  0  0
   10.5416   13.3379   23.3026 H   0  0  0  0  0  0  0  0  0  0  0  0
   11.4713   11.8490   23.5376 H   0  0  0  0  0  0  0  0  0  0  0  0
   10.6901    9.8244   22.6665 H   0  0  0  0  0  0  0  0  0  0  0  0
    9.7347    8.4552   23.1682 H   0  0  0  0  0  0  0  0  0  0  0  0
    5.6218   10.6882   26.5309 H   0  0  0  0  0  0  0  0  0  0  0  0
    6.0652    9.0883   25.9992 H   0  0  0  0  0  0  0  0  0  0  0  0
   11.1502   12.3618   21.3537 H   0  0  0  0  0  0  0  0  0  0  0  0
  1  2  1  0  0  0  0
  1  6  2  0  0  0  0
  2  3  2  0  0  0  0
  2  5  1  0  0  0  0
  3  7  1  0  0  0  0
  3  8  1  0  0  0  0
  4  6  1  0  0  0  0
  4  7  2  0  0  0  0
  4  9  1  0  0  0  0
  5 10  1  0  0  0  0
  1 11  1  0  0  0  0
  5 12  1  0  0  0  0
  5 13  1  0  0  0  0
  8 14  1  0  0  0  0
  8 15  1  0  0  0  0
  9 16  1  0  0  0  0
  9 17  1  0  0  0  0
 10 18  1  0  0  0  0
M  END
> <id>
EN300-396107

> <smiles>
NC=1N=CC(CO)=C(N)N1

> <MDLNUMBER>
MFCD06410821

> <IUPAC Name>
(2,4-diaminopyrimidin-5-yl)methanol

> <CAS>
42310-45-2

> <Purity>
95

> <URL>
https://www.enaminestore.com/catalog/EN300-396107

> <MP>
234-236

> <ROCS_ShapeQuery>
_x1140_x0812_0A_x1140_0A_x1097_0A_x0365_0A_x1097_0A_x0310_0A

> <ROCS_TanimotoCombo>
0.613 

> <ROCS_ShapeTanimoto>
0.214 

> <ROCS_ColorTanimoto>
0.399 

> <ROCS_RefTversky>
0.193 

> <ROCS_RefColorTversky>
0.603 

> <ROCS_RefTverskyCombo>
0.795 

> <ROCS_FitTversky>
2.067 

> <ROCS_FitColorTversky>
0.541 

> <ROCS_FitTverskyCombo>
2.607 

> <ROCS_ColorScore>
-4.854

> <ROCS_Overlap>
1973.270

> <ROCS_Rank>
351                 

$$$$
untitled-dbase-131122_6
  -OEChem-02092423213D

 22 22  0     0  0  0  0  0  0999 V2000
    7.9949   11.9770   25.6504 C   0  0  0  0  0  0  0  0  0  0  0  0
    7.5354   10.7095   25.3600 C   0  0  0  0  0  0  0  0  0  0  0  0
    9.0839   10.8610   23.8143 C   0  0  0  0  0  0  0  0  0  0  0  0
    9.9493   10.4823   22.6680 C   0  0  0  0  0  0  0  0  0  0  0  0
    6.4525   10.0008   26.0701 C   0  0  0  0  0  0  0  0  0  0  0  0
   12.3110    9.6816   22.5883 C   0  0  0  0  0  0  0  0  0  0  0  0
   10.4579    8.2306   21.7158 C   0  0  0  0  0  0  0  0  0  0  0  0
   10.8558    9.2584   22.7683 C   0  0  0  0  0  0  0  0  0  0  0  0
    8.1584   10.0681   24.3072 N   0  0  0  0  0  0  0  0  0  0  0  0
    9.9023   11.1702   21.6489 O   0  0  0  0  0  0  0  0  0  0  0  0
   10.7754    8.6613   23.9935 F   0  0  0  0  0  0  0  0  0  0  0  0
    9.2595   12.3923   24.5689 S   0  0  0  0  0  0  0  0  0  0  0  0
    7.6633   12.6585   26.4209 H   0  0  0  0  0  0  0  0  0  0  0  0
    5.4729   10.2089   25.6095 H   0  0  0  0  0  0  0  0  0  0  0  0
    6.6002    8.9074   26.0642 H   0  0  0  0  0  0  0  0  0  0  0  0
    6.3929   10.2945   27.1321 H   0  0  0  0  0  0  0  0  0  0  0  0
   12.9982    8.8315   22.6533 H   0  0  0  0  0  0  0  0  0  0  0  0
   12.4528   10.1575   21.6116 H   0  0  0  0  0  0  0  0  0  0  0  0
   12.5956   10.4184   23.3470 H   0  0  0  0  0  0  0  0  0  0  0  0
   11.1008    7.3462   21.7764 H   0  0  0  0  0  0  0  0  0  0  0  0
   10.5233    8.6422   20.7029 H   0  0  0  0  0  0  0  0  0  0  0  0
    9.4297    7.8878   21.8706 H   0  0  0  0  0  0  0  0  0  0  0  0
  1  2  2  0  0  0  0
  1 12  1  0  0  0  0
  2  5  1  0  0  0  0
  2  9  1  0  0  0  0
  3  4  1  0  0  0  0
  3  9  2  0  0  0  0
  3 12  1  0  0  0  0
  4  8  1  0  0  0  0
  4 10  2  0  0  0  0
  6  8  1  0  0  0  0
  7  8  1  0  0  0  0
  8 11  1  0  0  0  0
  1 13  1  0  0  0  0
  5 14  1  0  0  0  0
  5 15  1  0  0  0  0
  5 16  1  0  0  0  0
  6 17  1  0  0  0  0
  6 18  1  0  0  0  0
  6 19  1  0  0  0  0
  7 20  1  0  0  0  0
  7 21  1  0  0  0  0
  7 22  1  0  0  0  0
M  END
> <id>
EN300-1268931

> <smiles>
CC1=CSC(=N1)C(=O)C(C)(C)F

> <IUPAC Name>
2-fluoro-2-methyl-1-(4-methyl-1,3-thiazol-2-yl)propan-1-one

> <CAS>
2172532-50-0

> <URL>
https://www.enaminestore.com/catalog/EN300-1268931

> <ROCS_ShapeQuery>
_x1140_x0812_0A_x1140_0A_x1097_0A_x0365_0A_x1097_0A_x0310_0A

> <ROCS_TanimotoCombo>
0.613 

> <ROCS_ShapeTanimoto>
0.190 

> <ROCS_ColorTanimoto>
0.423 

> <ROCS_RefTversky>
0.175 

> <ROCS_RefColorTversky>
0.457 

> <ROCS_RefTverskyCombo>
0.632 

> <ROCS_FitTversky>
1.762 

> <ROCS_FitColorTversky>
0.849 

> <ROCS_FitTverskyCombo>
2.611 

> <ROCS_ColorScore>
-3.567

> <ROCS_Overlap>
1795.020

> <ROCS_Rank>
352                 

$$$$
untitled-dbase-53817_6
  -OEChem-02092423213D

 22 22  0     0  0  0  0  0  0999 V2000
    7.9892   12.1391   25.3417 C   0  0  0  0  0  0  0  0  0  0  0  0
    8.8423   12.5934   24.3422 C   0  0  0  0  0  0  0  0  0  0  0  0
    7.6910   10.7864   25.3744 C   0  0  0  0  0  0  0  0  0  0  0  0
    9.3638   11.6939   23.4190 C   0  0  0  0  0  0  0  0  0  0  0  0
    9.0042   10.3611   23.5379 C   0  0  0  0  0  0  0  0  0  0  0  0
   11.3558    8.2645   23.6043 C   0  0  0  0  0  0  0  0  0  0  0  0
   11.3265    8.9339   21.1747 C   0  0  0  0  0  0  0  0  0  0  0  0
   10.9149    9.3090   22.5902 C   0  0  0  0  0  0  0  0  0  0  0  0
    8.1783    9.8825   24.4951 N   0  0  0  0  0  0  0  0  0  0  0  0
   10.1973   12.1229   22.4374 O   0  0  0  0  0  0  0  0  0  0  0  0
    9.4985    9.4477   22.6457 O   0  0  0  0  0  0  0  0  0  0  0  0
    7.5707   12.8221   26.0718 H   0  0  0  0  0  0  0  0  0  0  0  0
    9.0965   13.6481   24.2873 H   0  0  0  0  0  0  0  0  0  0  0  0
    7.0278   10.3821   26.1321 H   0  0  0  0  0  0  0  0  0  0  0  0
   10.9366    7.2813   23.3695 H   0  0  0  0  0  0  0  0  0  0  0  0
   12.4481    8.1849   23.6190 H   0  0  0  0  0  0  0  0  0  0  0  0
   11.0476    8.5439   24.6179 H   0  0  0  0  0  0  0  0  0  0  0  0
   10.9066    7.9667   20.8820 H   0  0  0  0  0  0  0  0  0  0  0  0
   12.4177    8.8799   21.0967 H   0  0  0  0  0  0  0  0  0  0  0  0
   10.9970    9.6912   20.4548 H   0  0  0  0  0  0  0  0  0  0  0  0
   11.3499   10.2791   22.8523 H   0  0  0  0  0  0  0  0  0  0  0  0
   10.3383   13.0820   22.5060 H   0  0  0  0  0  0  0  0  0  0  0  0
  1  2  2  0  0  0  0
  1  3  1  0  0  0  0
  2  4  1  0  0  0  0
  3  9  2  0  0  0  0
  4  5  2  0  0  0  0
  4 10  1  0  0  0  0
  5  9  1  0  0  0  0
  5 11  1  0  0  0  0
  6  8  1  0  0  0  0
  7  8  1  0  0  0  0
  8 11  1  0  0  0  0
  1 12  1  0  0  0  0
  2 13  1  0  0  0  0
  3 14  1  0  0  0  0
  6 15  1  0  0  0  0
  6 16  1  0  0  0  0
  6 17  1  0  0  0  0
  7 18  1  0  0  0  0
  7 19  1  0  0  0  0
  7 20  1  0  0  0  0
  8 21  1  0  0  0  0
 10 22  1  0  0  0  0
M  END
> <id>
EN300-129445

> <smiles>
CC(C)OC=1N=CC=CC1O

> <MDLNUMBER>
MFCD16997444

> <IUPAC Name>
2-(propan-2-yloxy)pyridin-3-ol

> <CAS>
1231977-15-3

> <Purity>
95

> <URL>
https://www.enaminestore.com/catalog/EN300-129445

> <ROCS_ShapeQuery>
_x1140_x0812_0A_x1140_0A_x1097_0A_x0365_0A_x1097_0A_x0310_0A

> <ROCS_TanimotoCombo>
0.612 

> <ROCS_ShapeTanimoto>
0.201 

> <ROCS_ColorTanimoto>
0.411 

> <ROCS_RefTversky>
0.184 

> <ROCS_RefColorTversky>
0.517 

> <ROCS_RefTverskyCombo>
0.700 

> <ROCS_FitTversky>
1.896 

> <ROCS_FitColorTversky>
0.668 

> <ROCS_FitTverskyCombo>
2.565 

> <ROCS_ColorScore>
-4.084

> <ROCS_Overlap>
1880.086

> <ROCS_Rank>
353                 

$$$$
untitled-dbase-328808_9
  -OEChem-02092423213D

 35 35  0     0  0  0  0  0  0999 V2000
    9.1604   12.4811   24.1209 C   0  0  0  0  0  0  0  0  0  0  0  0
    7.8871   10.4293   24.1964 C   0  0  0  0  0  0  0  0  0  0  0  0
    8.8547   11.2288   23.5880 C   0  0  0  0  0  0  0  0  0  0  0  0
    8.4987   12.9338   25.2623 C   0  0  0  0  0  0  0  0  0  0  0  0
    7.5310   12.1343   25.8707 C   0  0  0  0  0  0  0  0  0  0  0  0
    7.2252   10.8820   25.3377 C   0  0  0  0  0  0  0  0  0  0  0  0
    9.5588   10.7472   22.3727 C   0  0  0  0  0  0  0  0  0  0  0  0
    6.8238   12.6235   27.0954 C   0  0  0  0  0  0  0  0  0  0  0  0
   11.7254    9.3646   23.5960 C   0  0  0  0  0  0  0  0  0  0  0  0
   10.8664    7.3385   22.3850 C   0  0  0  0  0  0  0  0  0  0  0  0
   11.6693    9.3287   21.0800 C   0  0  0  0  0  0  0  0  0  0  0  0
    8.8457   14.2781   25.8133 C   0  0  0  0  0  0  0  0  0  0  0  0
   10.9797    8.8613   22.3610 C   0  0  0  0  0  0  0  0  0  0  0  0
    6.2490   10.0576   25.9395 N   0  0  0  0  0  0  0  0  0  0  0  0
    9.9822   11.4936   21.5038 O   0  0  0  0  0  0  0  0  0  0  0  0
    9.6539    9.3917   22.3831 O   0  0  0  0  0  0  0  0  0  0  0  0
    9.8115   14.9271   25.0996 F   0  0  0  0  0  0  0  0  0  0  0  0
    7.7883   15.1404   25.8514 F   0  0  0  0  0  0  0  0  0  0  0  0
    9.3144   14.2136   27.0927 F   0  0  0  0  0  0  0  0  0  0  0  0
    9.9150   13.1052   23.6472 H   0  0  0  0  0  0  0  0  0  0  0  0
    7.6491    9.4527   23.7801 H   0  0  0  0  0  0  0  0  0  0  0  0
    5.9207   13.1753   26.8140 H   0  0  0  0  0  0  0  0  0  0  0  0
    6.5380   11.7882   27.7447 H   0  0  0  0  0  0  0  0  0  0  0  0
    7.4700   13.2833   27.6856 H   0  0  0  0  0  0  0  0  0  0  0  0
   11.8088   10.4572   23.5825 H   0  0  0  0  0  0  0  0  0  0  0  0
   11.2217    9.0657   24.5210 H   0  0  0  0  0  0  0  0  0  0  0  0
   12.7502    8.9766   23.6191 H   0  0  0  0  0  0  0  0  0  0  0  0
   10.3320    6.9730   21.5007 H   0  0  0  0  0  0  0  0  0  0  0  0
   10.2894    7.0038   23.2546 H   0  0  0  0  0  0  0  0  0  0  0  0
   11.8509    6.8607   22.4173 H   0  0  0  0  0  0  0  0  0  0  0  0
   11.1345    8.9678   20.1940 H   0  0  0  0  0  0  0  0  0  0  0  0
   11.7264   10.4208   21.0282 H   0  0  0  0  0  0  0  0  0  0  0  0
   12.6854    8.9232   21.0143 H   0  0  0  0  0  0  0  0  0  0  0  0
    6.0170    9.1862   25.5097 H   0  0  0  0  0  0  0  0  0  0  0  0
    5.7422   10.4018   26.7286 H   0  0  0  0  0  0  0  0  0  0  0  0
  1  3  2  0  0  0  0
  1  4  1  0  0  0  0
  2  3  1  0  0  0  0
  2  6  2  0  0  0  0
  3  7  1  0  0  0  0
  4  5  2  0  0  0  0
  4 12  1  0  0  0  0
  5  6  1  0  0  0  0
  5  8  1  0  0  0  0
  6 14  1  0  0  0  0
  7 15  2  0  0  0  0
  7 16  1  0  0  0  0
  9 13  1  0  0  0  0
 10 13  1  0  0  0  0
 11 13  1  0  0  0  0
 12 17  1  0  0  0  0
 12 18  1  0  0  0  0
 12 19  1  0  0  0  0
 13 16  1  0  0  0  0
  1 20  1  0  0  0  0
  2 21  1  0  0  0  0
  8 22  1  0  0  0  0
  8 23  1  0  0  0  0
  8 24  1  0  0  0  0
  9 25  1  0  0  0  0
  9 26  1  0  0  0  0
  9 27  1  0  0  0  0
 10 28  1  0  0  0  0
 10 29  1  0  0  0  0
 10 30  1  0  0  0  0
 11 31  1  0  0  0  0
 11 32  1  0  0  0  0
 11 33  1  0  0  0  0
 14 34  1  0  0  0  0
 14 35  1  0  0  0  0
M  END
> <id>
EN300-37102155

> <smiles>
CC=1C(N)=CC(=CC1C(F)(F)F)C(=O)OC(C)(C)C

> <IUPAC Name>
tert-butyl 3-amino-4-methyl-5-(trifluoromethyl)benzoate

> <CAS>
2757924-79-9

> <URL>
https://www.enaminestore.com/catalog/EN300-37102155

> <ROCS_ShapeQuery>
_x1140_x0812_0A_x1140_0A_x1097_0A_x0365_0A_x1097_0A_x0310_0A

> <ROCS_TanimotoCombo>
0.612 

> <ROCS_ShapeTanimoto>
0.228 

> <ROCS_ColorTanimoto>
0.384 

> <ROCS_RefTversky>
0.210 

> <ROCS_RefColorTversky>
0.460 

> <ROCS_RefTverskyCombo>
0.670 

> <ROCS_FitTversky>
1.605 

> <ROCS_FitColorTversky>
0.701 

> <ROCS_FitTverskyCombo>
2.306 

> <ROCS_ColorScore>
-3.609

> <ROCS_Overlap>
2154.053

> <ROCS_Rank>
354                 

$$$$
untitled-dbase-119674_4
  -OEChem-02092423213D

 39 40  0     0  0  0  0  0  0999 V2000
    6.8657   12.3880   27.5023 C   0  0  0  0  0  0  0  0  0  0  0  0
    7.6796   12.9006   26.4963 C   0  0  0  0  0  0  0  0  0  0  0  0
    6.4964   11.0490   27.4700 C   0  0  0  0  0  0  0  0  0  0  0  0
    8.9472   12.5627   24.4274 C   0  0  0  0  0  0  0  0  0  0  0  0
    8.1271   12.0728   25.4527 C   0  0  0  0  0  0  0  0  0  0  0  0
    6.9415   10.2262   26.4324 C   0  0  0  0  0  0  0  0  0  0  0  0
    7.7560   10.7124   25.4134 C   0  0  0  0  0  0  0  0  0  0  0  0
    9.3724   11.7197   23.4108 C   0  0  0  0  0  0  0  0  0  0  0  0
    8.9576   10.4042   23.4573 C   0  0  0  0  0  0  0  0  0  0  0  0
    5.4018    8.5137   25.4407 C   0  0  0  0  0  0  0  0  0  0  0  0
   11.7625    9.7805   21.6417 C   0  0  0  0  0  0  0  0  0  0  0  0
   11.3500    8.9207   23.9469 C   0  0  0  0  0  0  0  0  0  0  0  0
   10.9299    7.4504   21.9599 C   0  0  0  0  0  0  0  0  0  0  0  0
    6.5175    8.7901   26.4417 C   0  0  0  0  0  0  0  0  0  0  0  0
    9.3812    9.4483   22.3909 C   0  0  0  0  0  0  0  0  0  0  0  0
   10.8370    8.8892   22.4967 C   0  0  0  0  0  0  0  0  0  0  0  0
    8.1671    9.8919   24.4282 N   0  0  0  0  0  0  0  0  0  0  0  0
   10.1654   12.1905   22.4158 O   0  0  0  0  0  0  0  0  0  0  0  0
    6.5224   13.0300   28.3078 H   0  0  0  0  0  0  0  0  0  0  0  0
    7.9643   13.9497   26.5321 H   0  0  0  0  0  0  0  0  0  0  0  0
    5.8595   10.6511   28.2559 H   0  0  0  0  0  0  0  0  0  0  0  0
    9.2570   13.6059   24.4220 H   0  0  0  0  0  0  0  0  0  0  0  0
    4.5295    9.1463   25.6373 H   0  0  0  0  0  0  0  0  0  0  0  0
    5.0828    7.4684   25.5005 H   0  0  0  0  0  0  0  0  0  0  0  0
    5.7341    8.7089   24.4155 H   0  0  0  0  0  0  0  0  0  0  0  0
   11.4413    9.7943   20.5940 H   0  0  0  0  0  0  0  0  0  0  0  0
   11.7629   10.8156   22.0017 H   0  0  0  0  0  0  0  0  0  0  0  0
   12.7968    9.4192   21.6700 H   0  0  0  0  0  0  0  0  0  0  0  0
   10.7261    8.3014   24.6008 H   0  0  0  0  0  0  0  0  0  0  0  0
   12.3816    8.5617   24.0207 H   0  0  0  0  0  0  0  0  0  0  0  0
   11.3365    9.9415   24.3466 H   0  0  0  0  0  0  0  0  0  0  0  0
   10.2879    6.7735   22.5357 H   0  0  0  0  0  0  0  0  0  0  0  0
   10.6085    7.3847   20.9153 H   0  0  0  0  0  0  0  0  0  0  0  0
   11.9548    7.0690   22.0254 H   0  0  0  0  0  0  0  0  0  0  0  0
    7.3766    8.1408   26.2179 H   0  0  0  0  0  0  0  0  0  0  0  0
    6.1831    8.5012   27.4489 H   0  0  0  0  0  0  0  0  0  0  0  0
    9.2648    9.9252   21.4000 H   0  0  0  0  0  0  0  0  0  0  0  0
    8.6823    8.5916   22.3640 H   0  0  0  0  0  0  0  0  0  0  0  0
   10.3532   13.1350   22.5477 H   0  0  0  0  0  0  0  0  0  0  0  0
  1  2  1  0  0  0  0
  1  3  2  0  0  0  0
  2  5  2  0  0  0  0
  3  6  1  0  0  0  0
  4  5  1  0  0  0  0
  4  8  2  0  0  0  0
  5  7  1  0  0  0  0
  6  7  2  0  0  0  0
  6 14  1  0  0  0  0
  7 17  1  0  0  0  0
  8  9  1  0  0  0  0
  8 18  1  0  0  0  0
  9 15  1  0  0  0  0
  9 17  2  0  0  0  0
 10 14  1  0  0  0  0
 11 16  1  0  0  0  0
 12 16  1  0  0  0  0
 13 16  1  0  0  0  0
 15 16  1  0  0  0  0
  1 19  1  0  0  0  0
  2 20  1  0  0  0  0
  3 21  1  0  0  0  0
  4 22  1  0  0  0  0
 10 23  1  0  0  0  0
 10 24  1  0  0  0  0
 10 25  1  0  0  0  0
 11 26  1  0  0  0  0
 11 27  1  0  0  0  0
 11 28  1  0  0  0  0
 12 29  1  0  0  0  0
 12 30  1  0  0  0  0
 12 31  1  0  0  0  0
 13 32  1  0  0  0  0
 13 33  1  0  0  0  0
 13 34  1  0  0  0  0
 14 35  1  0  0  0  0
 14 36  1  0  0  0  0
 15 37  1  0  0  0  0
 15 38  1  0  0  0  0
 18 39  1  0  0  0  0
M  END
> <id>
EN300-801367

> <smiles>
CCC=1C=CC=C2C=C(O)C(CC(C)(C)C)=NC12

> <MDLNUMBER>
MFCD31601660

> <IUPAC Name>
2-(2,2-dimethylpropyl)-8-ethylquinolin-3-ol

> <CAS>
2138418-88-7

> <URL>
https://www.enaminestore.com/catalog/EN300-801367

> <ROCS_ShapeQuery>
_x1140_x0812_0A_x1140_0A_x1097_0A_x0365_0A_x1097_0A_x0310_0A

> <ROCS_TanimotoCombo>
0.612 

> <ROCS_ShapeTanimoto>
0.243 

> <ROCS_ColorTanimoto>
0.369 

> <ROCS_RefTversky>
0.220 

> <ROCS_RefColorTversky>
0.509 

> <ROCS_RefTverskyCombo>
0.729 

> <ROCS_FitTversky>
1.747 

> <ROCS_FitColorTversky>
0.573 

> <ROCS_FitTverskyCombo>
2.320 

> <ROCS_ColorScore>
-4.046

> <ROCS_Overlap>
2259.014

> <ROCS_Rank>
355                 

$$$$
untitled-dbase-537069_0
  -OEChem-02092423213D

 20 21  0     0  0  0  0  0  0999 V2000
    6.5039   12.4733   25.8833 C   0  0  0  0  0  0  0  0  0  0  0  0
    9.0958   10.2904   23.5853 C   0  0  0  0  0  0  0  0  0  0  0  0
    5.8527   11.3924   26.4376 C   0  0  0  0  0  0  0  0  0  0  0  0
    7.4998   11.9700   25.0050 C   0  0  0  0  0  0  0  0  0  0  0  0
    8.4731   12.5291   24.1613 C   0  0  0  0  0  0  0  0  0  0  0  0
    9.2858   11.6579   23.4383 C   0  0  0  0  0  0  0  0  0  0  0  0
    7.4184   10.5815   25.0568 C   0  0  0  0  0  0  0  0  0  0  0  0
    8.6474   14.0087   24.0275 C   0  0  0  0  0  0  0  0  0  0  0  0
    8.1764    9.6969   24.3815 N   0  0  0  0  0  0  0  0  0  0  0  0
    6.4157   10.2504   25.9297 N   0  0  0  0  0  0  0  0  0  0  0  0
   10.2861   12.1373   22.5697 N   0  0  0  0  0  0  0  0  0  0  0  0
    6.2830   13.5111   26.0926 H   0  0  0  0  0  0  0  0  0  0  0  0
    9.7168    9.5876   23.0341 H   0  0  0  0  0  0  0  0  0  0  0  0
    5.0412   11.3346   27.1492 H   0  0  0  0  0  0  0  0  0  0  0  0
    9.3680   14.3725   24.7679 H   0  0  0  0  0  0  0  0  0  0  0  0
    9.0074   14.2741   23.0267 H   0  0  0  0  0  0  0  0  0  0  0  0
    7.6959   14.5325   24.1759 H   0  0  0  0  0  0  0  0  0  0  0  0
    6.1339    9.3083   26.1625 H   0  0  0  0  0  0  0  0  0  0  0  0
   10.8824   11.4839   22.1019 H   0  0  0  0  0  0  0  0  0  0  0  0
   10.4472   13.1229   22.5058 H   0  0  0  0  0  0  0  0  0  0  0  0
  1  3  2  0  0  0  0
  1  4  1  0  0  0  0
  2  6  2  0  0  0  0
  2  9  1  0  0  0  0
  3 10  1  0  0  0  0
  4  5  2  0  0  0  0
  4  7  1  0  0  0  0
  5  6  1  0  0  0  0
  5  8  1  0  0  0  0
  6 11  1  0  0  0  0
  7  9  2  0  0  0  0
  7 10  1  0  0  0  0
  1 12  1  0  0  0  0
  2 13  1  0  0  0  0
  3 14  1  0  0  0  0
  8 15  1  0  0  0  0
  8 16  1  0  0  0  0
  8 17  1  0  0  0  0
 10 18  1  0  0  0  0
 11 19  1  0  0  0  0
 11 20  1  0  0  0  0
M  END
> <id>
EN300-702728

> <smiles>
CC=1C(N)=CN=C2NC=CC12

> <MDLNUMBER>
MFCD27987560

> <IUPAC Name>
4-methyl-1H-pyrrolo[2,3-b]pyridin-5-amine

> <CAS>
1550719-66-8

> <Purity>
95

> <URL>
https://www.enaminestore.com/catalog/EN300-702728

> <ROCS_ShapeQuery>
_x1140_x0812_0A_x1140_0A_x1097_0A_x0365_0A_x1097_0A_x0310_0A

> <ROCS_TanimotoCombo>
0.612 

> <ROCS_ShapeTanimoto>
0.225 

> <ROCS_ColorTanimoto>
0.387 

> <ROCS_RefTversky>
0.202 

> <ROCS_RefColorTversky>
0.496 

> <ROCS_RefTverskyCombo>
0.697 

> <ROCS_FitTversky>
2.026 

> <ROCS_FitColorTversky>
0.640 

> <ROCS_FitTverskyCombo>
2.666 

> <ROCS_ColorScore>
-3.915

> <ROCS_Overlap>
2068.250

> <ROCS_Rank>
356                 

$$$$
untitled-dbase-192086_3
  -OEChem-02092423213D

 25 25  0     0  0  0  0  0  0999 V2000
    8.7674   13.4881   25.2049 C   0  0  0  0  0  0  0  0  0  0  0  0
    9.4624   12.8246   24.1937 C   0  0  0  0  0  0  0  0  0  0  0  0
    7.7847   12.8166   25.9322 C   0  0  0  0  0  0  0  0  0  0  0  0
    9.1745   11.4896   23.9099 C   0  0  0  0  0  0  0  0  0  0  0  0
    7.4969   11.4817   25.6483 C   0  0  0  0  0  0  0  0  0  0  0  0
    8.1918   10.8181   24.6372 C   0  0  0  0  0  0  0  0  0  0  0  0
   11.4043    8.9404   22.2558 C   0  0  0  0  0  0  0  0  0  0  0  0
   10.7229    9.6037   23.1953 C   0  0  0  0  0  0  0  0  0  0  0  0
    9.9132   10.8173   22.8499 C   0  0  0  0  0  0  0  0  0  0  0  0
    6.8980    9.2621   23.3878 C   0  0  0  0  0  0  0  0  0  0  0  0
    6.4412   10.7805   26.4380 C   0  0  0  0  0  0  0  0  0  0  0  0
    9.8553   11.2224   21.6798 O   0  0  0  0  0  0  0  0  0  0  0  0
    7.9081    9.5124   24.3618 O   0  0  0  0  0  0  0  0  0  0  0  0
    5.8569   11.5680   27.3880 F   0  0  0  0  0  0  0  0  0  0  0  0
    5.4090   10.3150   25.6753 F   0  0  0  0  0  0  0  0  0  0  0  0
    6.9232    9.6938   27.1071 F   0  0  0  0  0  0  0  0  0  0  0  0
    8.9920   14.5275   25.4262 H   0  0  0  0  0  0  0  0  0  0  0  0
   10.2265   13.3583   23.6343 H   0  0  0  0  0  0  0  0  0  0  0  0
    7.2489   13.3421   26.7183 H   0  0  0  0  0  0  0  0  0  0  0  0
   11.9797    8.0602   22.5234 H   0  0  0  0  0  0  0  0  0  0  0  0
   11.4135    9.2450   21.2152 H   0  0  0  0  0  0  0  0  0  0  0  0
   10.7397    9.2562   24.2213 H   0  0  0  0  0  0  0  0  0  0  0  0
    6.7702    8.1841   23.2630 H   0  0  0  0  0  0  0  0  0  0  0  0
    7.1861    9.7182   22.4373 H   0  0  0  0  0  0  0  0  0  0  0  0
    5.9578    9.7010   23.7300 H   0  0  0  0  0  0  0  0  0  0  0  0
  1  2  1  0  0  0  0
  1  3  2  0  0  0  0
  2  4  2  0  0  0  0
  3  5  1  0  0  0  0
  4  6  1  0  0  0  0
  4  9  1  0  0  0  0
  5  6  2  0  0  0  0
  5 11  1  0  0  0  0
  6 13  1  0  0  0  0
  7  8  2  0  0  0  0
  8  9  1  0  0  0  0
  9 12  2  0  0  0  0
 10 13  1  0  0  0  0
 11 14  1  0  0  0  0
 11 15  1  0  0  0  0
 11 16  1  0  0  0  0
  1 17  1  0  0  0  0
  2 18  1  0  0  0  0
  3 19  1  0  0  0  0
  7 20  1  0  0  0  0
  7 21  1  0  0  0  0
  8 22  1  0  0  0  0
 10 23  1  0  0  0  0
 10 24  1  0  0  0  0
 10 25  1  0  0  0  0
M  END
> <id>
EN300-1941884

> <smiles>
COC=1C(=CC=CC1C(F)(F)F)C(=O)C=C

> <IUPAC Name>
1-[2-methoxy-3-(trifluoromethyl)phenyl]prop-2-en-1-one

> <CAS>
2229522-02-3

> <URL>
https://www.enaminestore.com/catalog/EN300-1941884

> <ROCS_ShapeQuery>
_x1140_x0812_0A_x1140_0A_x1097_0A_x0365_0A_x1097_0A_x0310_0A

> <ROCS_TanimotoCombo>
0.612 

> <ROCS_ShapeTanimoto>
0.247 

> <ROCS_ColorTanimoto>
0.366 

> <ROCS_RefTversky>
0.221 

> <ROCS_RefColorTversky>
0.412 

> <ROCS_RefTverskyCombo>
0.633 

> <ROCS_FitTversky>
1.864 

> <ROCS_FitColorTversky>
0.765 

> <ROCS_FitTverskyCombo>
2.629 

> <ROCS_ColorScore>
-3.213

> <ROCS_Overlap>
2270.066

> <ROCS_Rank>
357                 

$$$$
untitled-dbase-300491_4
  -OEChem-02092423213D

 39 40  0     1  0  0  0  0  0999 V2000
   10.4649   12.1061   21.5661 C   0  0  0  0  0  0  0  0  0  0  0  0
    9.6135   12.2713   25.2905 C   0  0  0  0  0  0  0  0  0  0  0  0
    8.3030   11.7729   25.9221 C   0  0  0  0  0  0  0  0  0  0  0  0
    8.0121   11.9916   23.5484 C   0  0  0  0  0  0  0  0  0  0  0  0
    9.5414   10.2447   23.8386 C   0  0  0  0  0  0  0  0  0  0  0  0
    9.4936   11.7762   23.8352 C   0  0  2  0  0  0  0  0  0  0  0  0
    7.6008   11.1131   24.7239 C   0  0  2  0  0  0  0  0  0  0  0  0
   10.2822   12.9854   18.8563 C   0  0  0  0  0  0  0  0  0  0  0  0
   12.7065   13.6007   19.0870 C   0  0  0  0  0  0  0  0  0  0  0  0
   11.9966   11.2033   19.3247 C   0  0  0  0  0  0  0  0  0  0  0  0
    6.1200   10.8813   24.9007 C   0  0  0  0  0  0  0  0  0  0  0  0
   11.5996   12.6602   19.5586 C   0  0  0  0  0  0  0  0  0  0  0  0
    5.8783   10.0213   26.0178 N   0  0  0  0  0  0  0  0  0  0  0  0
   10.3959   12.3961   22.9244 N   0  0  0  0  0  0  0  0  0  0  0  0
    9.7624   11.2857   20.9848 O   0  0  0  0  0  0  0  0  0  0  0  0
    8.2942    9.8665   24.4696 O   0  0  0  0  0  0  0  0  0  0  0  0
   11.4289   12.8660   20.9655 O   0  0  0  0  0  0  0  0  0  0  0  0
    9.6564   13.3658   25.3419 H   0  0  0  0  0  0  0  0  0  0  0  0
   10.4929   11.8677   25.8034 H   0  0  0  0  0  0  0  0  0  0  0  0
    8.5051   11.0584   26.7270 H   0  0  0  0  0  0  0  0  0  0  0  0
    7.7302   12.6151   26.3247 H   0  0  0  0  0  0  0  0  0  0  0  0
    7.6816   13.0316   23.6396 H   0  0  0  0  0  0  0  0  0  0  0  0
    7.7064   11.5806   22.5796 H   0  0  0  0  0  0  0  0  0  0  0  0
    9.5437    9.8187   22.8293 H   0  0  0  0  0  0  0  0  0  0  0  0
   10.3782    9.8311   24.4097 H   0  0  0  0  0  0  0  0  0  0  0  0
    9.4851   12.3124   19.1921 H   0  0  0  0  0  0  0  0  0  0  0  0
    9.9685   14.0173   19.0449 H   0  0  0  0  0  0  0  0  0  0  0  0
   10.3710   12.8431   17.7731 H   0  0  0  0  0  0  0  0  0  0  0  0
   13.6536   13.3710   19.5884 H   0  0  0  0  0  0  0  0  0  0  0  0
   12.4685   14.6406   19.3385 H   0  0  0  0  0  0  0  0  0  0  0  0
   12.8613   13.5322   18.0054 H   0  0  0  0  0  0  0  0  0  0  0  0
   12.9416   10.9697   19.8284 H   0  0  0  0  0  0  0  0  0  0  0  0
   11.2300   10.5126   19.6908 H   0  0  0  0  0  0  0  0  0  0  0  0
   12.1588   11.0100   18.2581 H   0  0  0  0  0  0  0  0  0  0  0  0
    5.6409   11.8507   25.0674 H   0  0  0  0  0  0  0  0  0  0  0  0
    5.7359   10.4195   23.9861 H   0  0  0  0  0  0  0  0  0  0  0  0
    5.3892    9.2001   25.7160 H   0  0  0  0  0  0  0  0  0  0  0  0
    6.7493    9.7501   26.4329 H   0  0  0  0  0  0  0  0  0  0  0  0
   11.0381   13.1041   23.2953 H   0  0  0  0  0  0  0  0  0  0  0  0
  1 14  1  0  0  0  0
  1 15  2  0  0  0  0
  1 17  1  0  0  0  0
  2  3  1  0  0  0  0
  2  6  1  0  0  0  0
  3  7  1  0  0  0  0
  4  6  1  0  0  0  0
  4  7  1  0  0  0  0
  5  6  1  0  0  0  0
  5 16  1  0  0  0  0
  6 14  1  0  0  0  0
  7 11  1  0  0  0  0
  7 16  1  0  0  0  0
  8 12  1  0  0  0  0
  9 12  1  0  0  0  0
 10 12  1  0  0  0  0
 11 13  1  0  0  0  0
 12 17  1  0  0  0  0
  2 18  1  0  0  0  0
  2 19  1  0  0  0  0
  3 20  1  0  0  0  0
  3 21  1  0  0  0  0
  4 22  1  0  0  0  0
  4 23  1  0  0  0  0
  5 24  1  0  0  0  0
  5 25  1  0  0  0  0
  8 26  1  0  0  0  0
  8 27  1  0  0  0  0
  8 28  1  0  0  0  0
  9 29  1  0  0  0  0
  9 30  1  0  0  0  0
  9 31  1  0  0  0  0
 10 32  1  0  0  0  0
 10 33  1  0  0  0  0
 10 34  1  0  0  0  0
 11 35  1  0  0  0  0
 11 36  1  0  0  0  0
 13 37  1  0  0  0  0
 13 38  1  0  0  0  0
 14 39  1  0  0  0  0
M  END
> <id>
EN300-6735272

> <smiles>
CC(C)(C)OC(=O)NC1(CCC2(CN)C1)CO2

> <MDLNUMBER>
MFCD31746372

> <IUPAC Name>
tert-butyl N-[1-(aminomethyl)-2-oxabicyclo[2.2.1]heptan-4-yl]carbamate

> <CAS>
2287261-45-2

> <Purity>
95

> <URL>
https://www.enaminestore.com/catalog/EN300-6735272

> <ROCS_ShapeQuery>
_x1140_x0812_0A_x1140_0A_x1097_0A_x0365_0A_x1097_0A_x0310_0A

> <ROCS_TanimotoCombo>
0.612 

> <ROCS_ShapeTanimoto>
0.219 

> <ROCS_ColorTanimoto>
0.393 

> <ROCS_RefTversky>
0.202 

> <ROCS_RefColorTversky>
0.700 

> <ROCS_RefTverskyCombo>
0.901 

> <ROCS_FitTversky>
1.645 

> <ROCS_FitColorTversky>
0.473 

> <ROCS_FitTverskyCombo>
2.118 

> <ROCS_ColorScore>
-5.752

> <ROCS_Overlap>
2068.927

> <ROCS_Rank>
358                 

$$$$
untitled-dbase-534250_6
  -OEChem-02092423213D

 29 29  0     0  0  0  0  0  0999 V2000
    7.9261   12.2915   25.1703 C   0  0  0  0  0  0  0  0  0  0  0  0
    9.7040   11.4713   23.7735 C   0  0  0  0  0  0  0  0  0  0  0  0
    9.0810   12.5255   24.4322 C   0  0  0  0  0  0  0  0  0  0  0  0
    7.4383   10.9955   25.2178 C   0  0  0  0  0  0  0  0  0  0  0  0
    9.1367   10.2120   23.8837 C   0  0  0  0  0  0  0  0  0  0  0  0
    6.2008   10.7078   26.0005 C   0  0  0  0  0  0  0  0  0  0  0  0
   11.1377    8.2390   21.4453 C   0  0  0  0  0  0  0  0  0  0  0  0
   12.1823    9.4773   23.3744 C   0  0  0  0  0  0  0  0  0  0  0  0
   10.7860   13.9477   23.5801 C   0  0  0  0  0  0  0  0  0  0  0  0
   10.9912    9.3886   22.4316 C   0  0  0  0  0  0  0  0  0  0  0  0
    8.0159    9.9460   24.5913 N   0  0  0  0  0  0  0  0  0  0  0  0
    9.7589    9.1875   23.2323 N   0  0  0  0  0  0  0  0  0  0  0  0
    9.5992   13.7810   24.3548 O   0  0  0  0  0  0  0  0  0  0  0  0
    7.4260   13.1016   25.6911 H   0  0  0  0  0  0  0  0  0  0  0  0
   10.6063   11.6389   23.1935 H   0  0  0  0  0  0  0  0  0  0  0  0
    5.3138   10.8186   25.3653 H   0  0  0  0  0  0  0  0  0  0  0  0
    6.2145    9.6878   26.4053 H   0  0  0  0  0  0  0  0  0  0  0  0
    6.1043   11.3884   26.8561 H   0  0  0  0  0  0  0  0  0  0  0  0
   11.2420    7.2846   21.9715 H   0  0  0  0  0  0  0  0  0  0  0  0
   10.2694    8.1692   20.7805 H   0  0  0  0  0  0  0  0  0  0  0  0
   12.0235    8.3777   20.8158 H   0  0  0  0  0  0  0  0  0  0  0  0
   12.3048    8.5435   23.9341 H   0  0  0  0  0  0  0  0  0  0  0  0
   12.0489   10.2900   24.0959 H   0  0  0  0  0  0  0  0  0  0  0  0
   13.1141    9.6570   22.8265 H   0  0  0  0  0  0  0  0  0  0  0  0
   11.0922   14.9965   23.6021 H   0  0  0  0  0  0  0  0  0  0  0  0
   10.5971   13.6338   22.5504 H   0  0  0  0  0  0  0  0  0  0  0  0
   11.5793   13.3299   24.0075 H   0  0  0  0  0  0  0  0  0  0  0  0
   10.8885   10.3316   21.8838 H   0  0  0  0  0  0  0  0  0  0  0  0
    9.4068    8.2566   23.2678 H   0  0  0  0  0  0  0  0  0  0  0  0
  1  3  1  0  0  0  0
  1  4  2  0  0  0  0
  2  3  2  0  0  0  0
  2  5  1  0  0  0  0
  3 13  1  0  0  0  0
  4  6  1  0  0  0  0
  4 11  1  0  0  0  0
  5 11  2  0  0  0  0
  5 12  1  0  0  0  0
  7 10  1  0  0  0  0
  8 10  1  0  0  0  0
  9 13  1  0  0  0  0
 10 12  1  0  0  0  0
  1 14  1  0  0  0  0
  2 15  1  0  0  0  0
  6 16  1  0  0  0  0
  6 17  1  0  0  0  0
  6 18  1  0  0  0  0
  7 19  1  0  0  0  0
  7 20  1  0  0  0  0
  7 21  1  0  0  0  0
  8 22  1  0  0  0  0
  8 23  1  0  0  0  0
  8 24  1  0  0  0  0
  9 25  1  0  0  0  0
  9 26  1  0  0  0  0
  9 27  1  0  0  0  0
 10 28  1  0  0  0  0
 12 29  1  0  0  0  0
M  END
> <id>
EN300-696438

> <smiles>
COC=1C=C(C)N=C(NC(C)C)C1

> <MDLNUMBER>
MFCD31431124

> <IUPAC Name>
4-methoxy-6-methyl-N-(propan-2-yl)pyridin-2-amine

> <CAS>
2137692-01-2

> <URL>
https://www.enaminestore.com/catalog/EN300-696438

> <ROCS_ShapeQuery>
_x1140_x0812_0A_x1140_0A_x1097_0A_x0365_0A_x1097_0A_x0310_0A

> <ROCS_TanimotoCombo>
0.612 

> <ROCS_ShapeTanimoto>
0.219 

> <ROCS_ColorTanimoto>
0.394 

> <ROCS_RefTversky>
0.198 

> <ROCS_RefColorTversky>
0.468 

> <ROCS_RefTverskyCombo>
0.666 

> <ROCS_FitTversky>
1.901 

> <ROCS_FitColorTversky>
0.713 

> <ROCS_FitTverskyCombo>
2.614 

> <ROCS_ColorScore>
-3.671

> <ROCS_Overlap>
2029.641

> <ROCS_Rank>
359                 

$$$$
untitled-dbase-297418_2
  -OEChem-02092423213D

 29 29  0     0  0  0  0  0  0999 V2000
    8.9363   12.5305   24.4961 C   0  0  0  0  0  0  0  0  0  0  0  0
    7.8500   10.6036   25.3699 C   0  0  0  0  0  0  0  0  0  0  0  0
    8.1479   11.9519   25.4845 C   0  0  0  0  0  0  0  0  0  0  0  0
    9.3962   11.7540   23.4383 C   0  0  0  0  0  0  0  0  0  0  0  0
    9.0426   10.4145   23.4154 C   0  0  0  0  0  0  0  0  0  0  0  0
    7.6398   12.7549   26.6285 C   0  0  0  0  0  0  0  0  0  0  0  0
   11.2740    9.3398   23.9592 C   0  0  0  0  0  0  0  0  0  0  0  0
   10.4678    7.4507   22.5133 C   0  0  0  0  0  0  0  0  0  0  0  0
   11.6823    9.3891   21.4761 C   0  0  0  0  0  0  0  0  0  0  0  0
   10.7263    8.9541   22.5859 C   0  0  0  0  0  0  0  0  0  0  0  0
    8.2786    9.8172   24.3572 N   0  0  0  0  0  0  0  0  0  0  0  0
   10.1948   12.3256   22.4318 N   0  0  0  0  0  0  0  0  0  0  0  0
    9.4753    9.6155   22.3934 O   0  0  0  0  0  0  0  0  0  0  0  0
    9.1911   13.5863   24.5529 H   0  0  0  0  0  0  0  0  0  0  0  0
    7.2384   10.0979   26.1108 H   0  0  0  0  0  0  0  0  0  0  0  0
    6.6629   13.1954   26.3874 H   0  0  0  0  0  0  0  0  0  0  0  0
    7.5268   12.1405   27.5330 H   0  0  0  0  0  0  0  0  0  0  0  0
    8.3309   13.5699   26.8868 H   0  0  0  0  0  0  0  0  0  0  0  0
   11.4609   10.4182   24.0153 H   0  0  0  0  0  0  0  0  0  0  0  0
   10.5816    9.0647   24.7614 H   0  0  0  0  0  0  0  0  0  0  0  0
   12.2356    8.8492   24.1485 H   0  0  0  0  0  0  0  0  0  0  0  0
   10.0747    7.1694   21.5297 H   0  0  0  0  0  0  0  0  0  0  0  0
    9.7106    7.1491   23.2461 H   0  0  0  0  0  0  0  0  0  0  0  0
   11.3798    6.8745   22.6999 H   0  0  0  0  0  0  0  0  0  0  0  0
   11.2896    9.1125   20.4910 H   0  0  0  0  0  0  0  0  0  0  0  0
   11.8506   10.4708   21.4898 H   0  0  0  0  0  0  0  0  0  0  0  0
   12.6503    8.8848   21.5758 H   0  0  0  0  0  0  0  0  0  0  0  0
   10.3909   13.3078   22.4576 H   0  0  0  0  0  0  0  0  0  0  0  0
   10.4792   11.7646   21.6517 H   0  0  0  0  0  0  0  0  0  0  0  0
  1  3  2  0  0  0  0
  1  4  1  0  0  0  0
  2  3  1  0  0  0  0
  2 11  2  0  0  0  0
  3  6  1  0  0  0  0
  4  5  2  0  0  0  0
  4 12  1  0  0  0  0
  5 11  1  0  0  0  0
  5 13  1  0  0  0  0
  7 10  1  0  0  0  0
  8 10  1  0  0  0  0
  9 10  1  0  0  0  0
 10 13  1  0  0  0  0
  1 14  1  0  0  0  0
  2 15  1  0  0  0  0
  6 16  1  0  0  0  0
  6 17  1  0  0  0  0
  6 18  1  0  0  0  0
  7 19  1  0  0  0  0
  7 20  1  0  0  0  0
  7 21  1  0  0  0  0
  8 22  1  0  0  0  0
  8 23  1  0  0  0  0
  8 24  1  0  0  0  0
  9 25  1  0  0  0  0
  9 26  1  0  0  0  0
  9 27  1  0  0  0  0
 12 28  1  0  0  0  0
 12 29  1  0  0  0  0
M  END
> <id>
EN300-1295931

> <smiles>
CC=1C=NC(OC(C)(C)C)=C(N)C1

> <MDLNUMBER>
MFCD21738794

> <IUPAC Name>
2-(tert-butoxy)-5-methylpyridin-3-amine

> <CAS>
1523114-85-3

> <URL>
https://www.enaminestore.com/catalog/EN300-1295931

> <ROCS_ShapeQuery>
_x1140_x0812_0A_x1140_0A_x1097_0A_x0365_0A_x1097_0A_x0310_0A

> <ROCS_TanimotoCombo>
0.612 

> <ROCS_ShapeTanimoto>
0.213 

> <ROCS_ColorTanimoto>
0.399 

> <ROCS_RefTversky>
0.194 

> <ROCS_RefColorTversky>
0.506 

> <ROCS_RefTverskyCombo>
0.700 

> <ROCS_FitTversky>
1.849 

> <ROCS_FitColorTversky>
0.654 

> <ROCS_FitTverskyCombo>
2.503 

> <ROCS_ColorScore>
-3.997

> <ROCS_Overlap>
1988.127

> <ROCS_Rank>
360                 

$$$$
untitled-dbase-136337_2
  -OEChem-02092423213D

 26 26  0     0  0  0  0  0  0999 V2000
    8.9405   12.5331   24.4969 C   0  0  0  0  0  0  0  0  0  0  0  0
    8.1511   11.9559   25.4853 C   0  0  0  0  0  0  0  0  0  0  0  0
    9.3992   11.7559   23.4391 C   0  0  0  0  0  0  0  0  0  0  0  0
    9.0434   10.4170   23.4161 C   0  0  0  0  0  0  0  0  0  0  0  0
    7.8509   10.6081   25.3705 C   0  0  0  0  0  0  0  0  0  0  0  0
   11.2733    9.3381   23.9574 C   0  0  0  0  0  0  0  0  0  0  0  0
   10.4622    7.4507   22.5121 C   0  0  0  0  0  0  0  0  0  0  0  0
   11.6792    9.3870   21.4740 C   0  0  0  0  0  0  0  0  0  0  0  0
   10.7235    8.9536   22.5846 C   0  0  0  0  0  0  0  0  0  0  0  0
    8.2783    9.8209   24.3579 N   0  0  0  0  0  0  0  0  0  0  0  0
   10.1984   12.3267   22.4328 N   0  0  0  0  0  0  0  0  0  0  0  0
    9.4735    9.6173   22.3936 O   0  0  0  0  0  0  0  0  0  0  0  0
    6.8835    9.8121   26.5429 Cl  0  0  0  0  0  0  0  0  0  0  0  0
    9.1920   13.5885   24.5608 H   0  0  0  0  0  0  0  0  0  0  0  0
    7.7884   12.5538   26.3145 H   0  0  0  0  0  0  0  0  0  0  0  0
   11.4622   10.4162   24.0135 H   0  0  0  0  0  0  0  0  0  0  0  0
   10.5813    9.0641   24.7604 H   0  0  0  0  0  0  0  0  0  0  0  0
   12.2343    8.8458   24.1457 H   0  0  0  0  0  0  0  0  0  0  0  0
   10.0676    7.1703   21.5288 H   0  0  0  0  0  0  0  0  0  0  0  0
    9.7052    7.1503   23.2456 H   0  0  0  0  0  0  0  0  0  0  0  0
   11.3734    6.8728   22.6977 H   0  0  0  0  0  0  0  0  0  0  0  0
   11.2851    9.1113   20.4892 H   0  0  0  0  0  0  0  0  0  0  0  0
   11.8495   10.4685   21.4877 H   0  0  0  0  0  0  0  0  0  0  0  0
   12.6464    8.8810   21.5727 H   0  0  0  0  0  0  0  0  0  0  0  0
   10.3956   13.3088   22.4589 H   0  0  0  0  0  0  0  0  0  0  0  0
   10.4821   11.7656   21.6526 H   0  0  0  0  0  0  0  0  0  0  0  0
  1  2  2  0  0  0  0
  1  3  1  0  0  0  0
  2  5  1  0  0  0  0
  3  4  2  0  0  0  0
  3 11  1  0  0  0  0
  4 10  1  0  0  0  0
  4 12  1  0  0  0  0
  5 10  2  0  0  0  0
  5 13  1  0  0  0  0
  6  9  1  0  0  0  0
  7  9  1  0  0  0  0
  8  9  1  0  0  0  0
  9 12  1  0  0  0  0
  1 14  1  0  0  0  0
  2 15  1  0  0  0  0
  6 16  1  0  0  0  0
  6 17  1  0  0  0  0
  6 18  1  0  0  0  0
  7 19  1  0  0  0  0
  7 20  1  0  0  0  0
  7 21  1  0  0  0  0
  8 22  1  0  0  0  0
  8 23  1  0  0  0  0
  8 24  1  0  0  0  0
 11 25  1  0  0  0  0
 11 26  1  0  0  0  0
M  END
> <id>
EN300-1295042

> <smiles>
CC(C)(C)OC=1N=C(Cl)C=CC1N

> <MDLNUMBER>
MFCD24215935

> <IUPAC Name>
2-(tert-butoxy)-6-chloropyridin-3-amine

> <CAS>
1548267-72-6

> <URL>
https://www.enaminestore.com/catalog/EN300-1295042

> <ROCS_ShapeQuery>
_x1140_x0812_0A_x1140_0A_x1097_0A_x0365_0A_x1097_0A_x0310_0A

> <ROCS_TanimotoCombo>
0.612 

> <ROCS_ShapeTanimoto>
0.213 

> <ROCS_ColorTanimoto>
0.399 

> <ROCS_RefTversky>
0.194 

> <ROCS_RefColorTversky>
0.506 

> <ROCS_RefTverskyCombo>
0.700 

> <ROCS_FitTversky>
1.857 

> <ROCS_FitColorTversky>
0.654 

> <ROCS_FitTverskyCombo>
2.511 

> <ROCS_ColorScore>
-3.997

> <ROCS_Overlap>
1986.878

> <ROCS_Rank>
361                 

$$$$
untitled-dbase-122077_7
  -OEChem-02092423213D

 27 27  0     0  0  0  0  0  0999 V2000
   11.4255    6.5188   21.8794 C   0  0  0  0  0  0  0  0  0  0  0  0
   10.6851    7.1382   22.5933 C   0  0  0  0  0  0  0  0  0  0  0  0
    8.4393   12.5160   24.2018 C   0  0  0  0  0  0  0  0  0  0  0  0
    7.5411   12.0938   25.1757 C   0  0  0  0  0  0  0  0  0  0  0  0
    9.2209   11.5809   23.5326 C   0  0  0  0  0  0  0  0  0  0  0  0
    9.0678   10.2461   23.8714 C   0  0  0  0  0  0  0  0  0  0  0  0
    7.4631   10.7361   25.4408 C   0  0  0  0  0  0  0  0  0  0  0  0
   10.1587   12.0332   22.5142 C   0  0  0  0  0  0  0  0  0  0  0  0
   13.2616   12.4887   22.1146 C   0  0  0  0  0  0  0  0  0  0  0  0
    9.7804    7.8894   23.4671 C   0  0  0  0  0  0  0  0  0  0  0  0
   12.0634   13.4137   22.1260 C   0  0  0  0  0  0  0  0  0  0  0  0
    8.2059    9.7980   24.8116 N   0  0  0  0  0  0  0  0  0  0  0  0
    9.8612    9.2869   23.1934 N   0  0  0  0  0  0  0  0  0  0  0  0
   10.1242   11.6829   21.3284 O   0  0  0  0  0  0  0  0  0  0  0  0
   11.0837   12.8965   23.0329 O   0  0  0  0  0  0  0  0  0  0  0  0
    6.3832   10.1245   26.6256 Cl  0  0  0  0  0  0  0  0  0  0  0  0
   12.0827    5.9698   21.2464 H   0  0  0  0  0  0  0  0  0  0  0  0
    8.5212   13.5754   23.9734 H   0  0  0  0  0  0  0  0  0  0  0  0
    6.9269   12.8156   25.7034 H   0  0  0  0  0  0  0  0  0  0  0  0
   13.7099   12.4184   23.1096 H   0  0  0  0  0  0  0  0  0  0  0  0
   12.9716   11.4853   21.7858 H   0  0  0  0  0  0  0  0  0  0  0  0
   14.0195   12.8477   21.4103 H   0  0  0  0  0  0  0  0  0  0  0  0
   10.0342    7.7152   24.5173 H   0  0  0  0  0  0  0  0  0  0  0  0
    8.7494    7.5529   23.3185 H   0  0  0  0  0  0  0  0  0  0  0  0
   11.6198   13.4795   21.1281 H   0  0  0  0  0  0  0  0  0  0  0  0
   12.3547   14.4155   22.4556 H   0  0  0  0  0  0  0  0  0  0  0  0
   10.4932    9.6367   22.5029 H   0  0  0  0  0  0  0  0  0  0  0  0
  1  2  3  0  0  0  0
  2 10  1  0  0  0  0
  3  4  2  0  0  0  0
  3  5  1  0  0  0  0
  4  7  1  0  0  0  0
  5  6  2  0  0  0  0
  5  8  1  0  0  0  0
  6 12  1  0  0  0  0
  6 13  1  0  0  0  0
  7 12  2  0  0  0  0
  7 16  1  0  0  0  0
  8 14  2  0  0  0  0
  8 15  1  0  0  0  0
  9 11  1  0  0  0  0
 10 13  1  0  0  0  0
 11 15  1  0  0  0  0
  1 17  1  0  0  0  0
  3 18  1  0  0  0  0
  4 19  1  0  0  0  0
  9 20  1  0  0  0  0
  9 21  1  0  0  0  0
  9 22  1  0  0  0  0
 10 23  1  0  0  0  0
 10 24  1  0  0  0  0
 11 25  1  0  0  0  0
 11 26  1  0  0  0  0
 13 27  1  0  0  0  0
M  END
> <id>
EN300-1081987

> <smiles>
CCOC(=O)C=1C=CC(Cl)=NC1NCC#C

> <MDLNUMBER>
MFCD31558997

> <IUPAC Name>
ethyl 6-chloro-2-[(prop-2-yn-1-yl)amino]pyridine-3-carboxylate

> <CAS>
2138560-61-7

> <Purity>
95

> <URL>
https://www.enaminestore.com/catalog/EN300-1081987

> <ROCS_ShapeQuery>
_x1140_x0812_0A_x1140_0A_x1097_0A_x0365_0A_x1097_0A_x0310_0A

> <ROCS_TanimotoCombo>
0.612 

> <ROCS_ShapeTanimoto>
0.240 

> <ROCS_ColorTanimoto>
0.372 

> <ROCS_RefTversky>
0.216 

> <ROCS_RefColorTversky>
0.449 

> <ROCS_RefTverskyCombo>
0.665 

> <ROCS_FitTversky>
1.859 

> <ROCS_FitColorTversky>
0.684 

> <ROCS_FitTverskyCombo>
2.544 

> <ROCS_ColorScore>
-3.525

> <ROCS_Overlap>
2214.965

> <ROCS_Rank>
362                 

$$$$
untitled-dbase-388770_8
  -OEChem-02092423213D

 22 22  0     0  0  0  0  0  0999 V2000
    8.5507   12.1054   24.2006 C   0  0  0  0  0  0  0  0  0  0  0  0
    8.8174   10.8835   23.6347 C   0  0  0  0  0  0  0  0  0  0  0  0
    7.3796   10.5813   25.1395 C   0  0  0  0  0  0  0  0  0  0  0  0
    9.7697   10.6039   22.5304 C   0  0  0  0  0  0  0  0  0  0  0  0
   12.6091    9.3380   22.0889 C   0  0  0  0  0  0  0  0  0  0  0  0
    5.7572   10.9563   26.9977 C   0  0  0  0  0  0  0  0  0  0  0  0
   11.2135    8.9618   21.6389 C   0  0  0  0  0  0  0  0  0  0  0  0
    8.0641    9.9107   24.2407 N   0  0  0  0  0  0  0  0  0  0  0  0
    6.4708   10.1232   26.0307 N   0  0  0  0  0  0  0  0  0  0  0  0
   10.0363   11.4126   21.6550 O   0  0  0  0  0  0  0  0  0  0  0  0
    7.6196   11.9206   25.1775 O   0  0  0  0  0  0  0  0  0  0  0  0
   10.2848    9.3473   22.6411 O   0  0  0  0  0  0  0  0  0  0  0  0
    8.8962   13.1173   24.0497 H   0  0  0  0  0  0  0  0  0  0  0  0
   12.6913   10.4174   22.2441 H   0  0  0  0  0  0  0  0  0  0  0  0
   12.8648    8.8261   23.0223 H   0  0  0  0  0  0  0  0  0  0  0  0
   13.3506    9.0309   21.3439 H   0  0  0  0  0  0  0  0  0  0  0  0
    6.0736   12.0037   26.8841 H   0  0  0  0  0  0  0  0  0  0  0  0
    4.6745   10.8791   26.8195 H   0  0  0  0  0  0  0  0  0  0  0  0
    5.9864   10.6127   28.0172 H   0  0  0  0  0  0  0  0  0  0  0  0
   11.1380    7.8812   21.4854 H   0  0  0  0  0  0  0  0  0  0  0  0
   10.9592    9.4748   20.7066 H   0  0  0  0  0  0  0  0  0  0  0  0
    6.2417    9.1195   26.0584 H   0  0  0  0  0  0  0  0  0  0  0  0
  1  2  2  0  0  0  0
  1 11  1  0  0  0  0
  2  4  1  0  0  0  0
  2  8  1  0  0  0  0
  3  8  2  0  0  0  0
  3  9  1  0  0  0  0
  3 11  1  0  0  0  0
  4 10  2  0  0  0  0
  4 12  1  0  0  0  0
  5  7  1  0  0  0  0
  6  9  1  0  0  0  0
  7 12  1  0  0  0  0
  1 13  1  0  0  0  0
  5 14  1  0  0  0  0
  5 15  1  0  0  0  0
  5 16  1  0  0  0  0
  6 17  1  0  0  0  0
  6 18  1  0  0  0  0
  6 19  1  0  0  0  0
  7 20  1  0  0  0  0
  7 21  1  0  0  0  0
  9 22  1  0  0  0  0
M  END
> <id>
EN300-254518

> <smiles>
Cl.CCOC(=O)C1=COC(NC)=N1

> <MDLNUMBER>
MFCD29060352

> <IUPAC Name>
ethyl 2-(methylamino)-1,3-oxazole-4-carboxylate hydrochloride

> <CAS>
1909315-93-0

> <Purity>
95

> <URL>
https://www.enaminestore.com/catalog/EN300-254518

> <Saltdate>
Cl

> <ROCS_ShapeQuery>
_x1140_x0812_0A_x1140_0A_x1097_0A_x0365_0A_x1097_0A_x0310_0A

> <ROCS_TanimotoCombo>
0.612 

> <ROCS_ShapeTanimoto>
0.206 

> <ROCS_ColorTanimoto>
0.406 

> <ROCS_RefTversky>
0.188 

> <ROCS_RefColorTversky>
0.444 

> <ROCS_RefTverskyCombo>
0.632 

> <ROCS_FitTversky>
1.857 

> <ROCS_FitColorTversky>
0.825 

> <ROCS_FitTverskyCombo>
2.682 

> <ROCS_ColorScore>
-3.464

> <ROCS_Overlap>
1929.098

> <ROCS_Rank>
363                 

$$$$
untitled-dbase-532930_8
  -OEChem-02092423213D

 22 22  0     0  0  0  0  0  0999 V2000
    8.5507   12.1054   24.2006 C   0  0  0  0  0  0  0  0  0  0  0  0
    8.8174   10.8835   23.6347 C   0  0  0  0  0  0  0  0  0  0  0  0
    7.3796   10.5813   25.1395 C   0  0  0  0  0  0  0  0  0  0  0  0
    9.7697   10.6039   22.5304 C   0  0  0  0  0  0  0  0  0  0  0  0
   12.6091    9.3380   22.0889 C   0  0  0  0  0  0  0  0  0  0  0  0
    5.7572   10.9563   26.9977 C   0  0  0  0  0  0  0  0  0  0  0  0
   11.2135    8.9618   21.6389 C   0  0  0  0  0  0  0  0  0  0  0  0
    8.0641    9.9107   24.2407 N   0  0  0  0  0  0  0  0  0  0  0  0
    6.4708   10.1232   26.0307 N   0  0  0  0  0  0  0  0  0  0  0  0
   10.0363   11.4126   21.6550 O   0  0  0  0  0  0  0  0  0  0  0  0
    7.6196   11.9206   25.1775 O   0  0  0  0  0  0  0  0  0  0  0  0
   10.2848    9.3473   22.6411 O   0  0  0  0  0  0  0  0  0  0  0  0
    8.8962   13.1173   24.0497 H   0  0  0  0  0  0  0  0  0  0  0  0
   12.6913   10.4174   22.2441 H   0  0  0  0  0  0  0  0  0  0  0  0
   12.8648    8.8261   23.0223 H   0  0  0  0  0  0  0  0  0  0  0  0
   13.3506    9.0309   21.3439 H   0  0  0  0  0  0  0  0  0  0  0  0
    6.0736   12.0037   26.8841 H   0  0  0  0  0  0  0  0  0  0  0  0
    4.6745   10.8791   26.8195 H   0  0  0  0  0  0  0  0  0  0  0  0
    5.9864   10.6127   28.0172 H   0  0  0  0  0  0  0  0  0  0  0  0
   11.1380    7.8812   21.4854 H   0  0  0  0  0  0  0  0  0  0  0  0
   10.9592    9.4748   20.7066 H   0  0  0  0  0  0  0  0  0  0  0  0
    6.2417    9.1195   26.0584 H   0  0  0  0  0  0  0  0  0  0  0  0
  1  2  2  0  0  0  0
  1 11  1  0  0  0  0
  2  4  1  0  0  0  0
  2  8  1  0  0  0  0
  3  8  2  0  0  0  0
  3  9  1  0  0  0  0
  3 11  1  0  0  0  0
  4 10  2  0  0  0  0
  4 12  1  0  0  0  0
  5  7  1  0  0  0  0
  6  9  1  0  0  0  0
  7 12  1  0  0  0  0
  1 13  1  0  0  0  0
  5 14  1  0  0  0  0
  5 15  1  0  0  0  0
  5 16  1  0  0  0  0
  6 17  1  0  0  0  0
  6 18  1  0  0  0  0
  6 19  1  0  0  0  0
  7 20  1  0  0  0  0
  7 21  1  0  0  0  0
  9 22  1  0  0  0  0
M  END
> <id>
EN300-254519

> <smiles>
CCOC(=O)C1=COC(NC)=N1

> <MDLNUMBER>
MFCD26827389

> <IUPAC Name>
ethyl 2-(methylamino)-1,3-oxazole-4-carboxylate

> <CAS>
1567098-73-0

> <Purity>
95

> <URL>
https://www.enaminestore.com/catalog/EN300-254519

> <ROCS_ShapeQuery>
_x1140_x0812_0A_x1140_0A_x1097_0A_x0365_0A_x1097_0A_x0310_0A

> <ROCS_TanimotoCombo>
0.612 

> <ROCS_ShapeTanimoto>
0.206 

> <ROCS_ColorTanimoto>
0.406 

> <ROCS_RefTversky>
0.188 

> <ROCS_RefColorTversky>
0.444 

> <ROCS_RefTverskyCombo>
0.632 

> <ROCS_FitTversky>
1.857 

> <ROCS_FitColorTversky>
0.825 

> <ROCS_FitTverskyCombo>
2.682 

> <ROCS_ColorScore>
-3.464

> <ROCS_Overlap>
1929.098

> <ROCS_Rank>
364                 

$$$$
untitled-dbase-564737_7
  -OEChem-02092423213D

 29 29  0     0  0  0  0  0  0999 V2000
    8.4446   12.3380   23.9174 C   0  0  0  0  0  0  0  0  0  0  0  0
    7.6368   10.2966   25.5378 C   0  0  0  0  0  0  0  0  0  0  0  0
    7.3142   11.5930   25.9053 C   0  0  0  0  0  0  0  0  0  0  0  0
    7.7295   12.6275   25.0742 C   0  0  0  0  0  0  0  0  0  0  0  0
    8.7168   11.0082   23.6391 C   0  0  0  0  0  0  0  0  0  0  0  0
    9.4761   10.6395   22.4176 C   0  0  0  0  0  0  0  0  0  0  0  0
    6.5460   11.8298   27.1603 C   0  0  0  0  0  0  0  0  0  0  0  0
   11.6652    9.2696   23.6151 C   0  0  0  0  0  0  0  0  0  0  0  0
   10.9314    7.2956   22.2462 C   0  0  0  0  0  0  0  0  0  0  0  0
   11.6834    9.4010   21.1017 C   0  0  0  0  0  0  0  0  0  0  0  0
   10.9783    8.8199   22.3264 C   0  0  0  0  0  0  0  0  0  0  0  0
    8.3298    9.9764   24.4222 N   0  0  0  0  0  0  0  0  0  0  0  0
    9.8913   11.4599   21.6139 O   0  0  0  0  0  0  0  0  0  0  0  0
    9.6304    9.2916   22.3415 O   0  0  0  0  0  0  0  0  0  0  0  0
    7.3770   14.2745   25.4463 Cl  0  0  0  0  0  0  0  0  0  0  0  0
    8.7814   13.1263   23.2510 H   0  0  0  0  0  0  0  0  0  0  0  0
    7.3398    9.4477   26.1463 H   0  0  0  0  0  0  0  0  0  0  0  0
    7.2294   11.9608   28.0086 H   0  0  0  0  0  0  0  0  0  0  0  0
    5.9164   12.7259   27.0802 H   0  0  0  0  0  0  0  0  0  0  0  0
    5.8743   10.9897   27.3820 H   0  0  0  0  0  0  0  0  0  0  0  0
   11.7008   10.3632   23.6765 H   0  0  0  0  0  0  0  0  0  0  0  0
   11.1485    8.8882   24.5019 H   0  0  0  0  0  0  0  0  0  0  0  0
   12.7049    8.9243   23.6450 H   0  0  0  0  0  0  0  0  0  0  0  0
   10.4393    6.9684   21.3231 H   0  0  0  0  0  0  0  0  0  0  0  0
   10.3447    6.8790   23.0730 H   0  0  0  0  0  0  0  0  0  0  0  0
   11.9345    6.8582   22.2781 H   0  0  0  0  0  0  0  0  0  0  0  0
   11.1909    9.0785   20.1772 H   0  0  0  0  0  0  0  0  0  0  0  0
   11.6940   10.4955   21.1240 H   0  0  0  0  0  0  0  0  0  0  0  0
   12.7179    9.0438   21.0417 H   0  0  0  0  0  0  0  0  0  0  0  0
  1  4  1  0  0  0  0
  1  5  2  0  0  0  0
  2  3  1  0  0  0  0
  2 12  2  0  0  0  0
  3  4  2  0  0  0  0
  3  7  1  0  0  0  0
  4 15  1  0  0  0  0
  5  6  1  0  0  0  0
  5 12  1  0  0  0  0
  6 13  2  0  0  0  0
  6 14  1  0  0  0  0
  8 11  1  0  0  0  0
  9 11  1  0  0  0  0
 10 11  1  0  0  0  0
 11 14  1  0  0  0  0
  1 16  1  0  0  0  0
  2 17  1  0  0  0  0
  7 18  1  0  0  0  0
  7 19  1  0  0  0  0
  7 20  1  0  0  0  0
  8 21  1  0  0  0  0
  8 22  1  0  0  0  0
  8 23  1  0  0  0  0
  9 24  1  0  0  0  0
  9 25  1  0  0  0  0
  9 26  1  0  0  0  0
 10 27  1  0  0  0  0
 10 28  1  0  0  0  0
 10 29  1  0  0  0  0
M  END
> <id>
EN300-37458937

> <smiles>
CC=1C=NC(=CC1Cl)C(=O)OC(C)(C)C

> <IUPAC Name>
tert-butyl 4-chloro-5-methylpyridine-2-carboxylate

> <Purity>
95

> <URL>
https://www.enaminestore.com/catalog/EN300-37458937

> <ROCS_ShapeQuery>
_x1140_x0812_0A_x1140_0A_x1097_0A_x0365_0A_x1097_0A_x0310_0A

> <ROCS_TanimotoCombo>
0.612 

> <ROCS_ShapeTanimoto>
0.219 

> <ROCS_ColorTanimoto>
0.393 

> <ROCS_RefTversky>
0.200 

> <ROCS_RefColorTversky>
0.434 

> <ROCS_RefTverskyCombo>
0.634 

> <ROCS_FitTversky>
1.776 

> <ROCS_FitColorTversky>
0.806 

> <ROCS_FitTverskyCombo>
2.581 

> <ROCS_ColorScore>
-3.383

> <ROCS_Overlap>
2050.918

> <ROCS_Rank>
365                 

$$$$
untitled-dbase-407832_8
  -OEChem-02092423213D

 22 22  0     0  0  0  0  0  0999 V2000
    7.9094   11.9463   25.6317 C   0  0  0  0  0  0  0  0  0  0  0  0
    7.5507   10.6420   25.3631 C   0  0  0  0  0  0  0  0  0  0  0  0
    9.0799   10.8897   23.8107 C   0  0  0  0  0  0  0  0  0  0  0  0
    9.9643   10.5641   22.6764 C   0  0  0  0  0  0  0  0  0  0  0  0
    6.5281    9.8620   26.0875 C   0  0  0  0  0  0  0  0  0  0  0  0
   12.1810    9.6718   21.9292 C   0  0  0  0  0  0  0  0  0  0  0  0
   10.3055    8.0816   22.4246 C   0  0  0  0  0  0  0  0  0  0  0  0
   10.9639    9.4081   22.8111 C   0  0  0  0  0  0  0  0  0  0  0  0
    8.2205   10.0346   24.3190 N   0  0  0  0  0  0  0  0  0  0  0  0
    9.9306   11.2043   21.6218 O   0  0  0  0  0  0  0  0  0  0  0  0
    9.1357   12.4421   24.5401 S   0  0  0  0  0  0  0  0  0  0  0  0
    7.5264   12.6120   26.3921 H   0  0  0  0  0  0  0  0  0  0  0  0
    5.5344    9.9848   25.6265 H   0  0  0  0  0  0  0  0  0  0  0  0
    6.7614    8.7836   26.0988 H   0  0  0  0  0  0  0  0  0  0  0  0
    6.4472   10.1672   27.1449 H   0  0  0  0  0  0  0  0  0  0  0  0
   11.8925    9.7763   20.8773 H   0  0  0  0  0  0  0  0  0  0  0  0
   12.9015    8.8507   22.0044 H   0  0  0  0  0  0  0  0  0  0  0  0
   12.6924   10.5955   22.2181 H   0  0  0  0  0  0  0  0  0  0  0  0
    9.9692    8.1053   21.3827 H   0  0  0  0  0  0  0  0  0  0  0  0
    9.4360    7.8626   23.0544 H   0  0  0  0  0  0  0  0  0  0  0  0
   11.0120    7.2516   22.5343 H   0  0  0  0  0  0  0  0  0  0  0  0
   11.2704    9.3065   23.8570 H   0  0  0  0  0  0  0  0  0  0  0  0
  1  2  2  0  0  0  0
  1 11  1  0  0  0  0
  2  5  1  0  0  0  0
  2  9  1  0  0  0  0
  3  4  1  0  0  0  0
  3  9  2  0  0  0  0
  3 11  1  0  0  0  0
  4  8  1  0  0  0  0
  4 10  2  0  0  0  0
  6  8  1  0  0  0  0
  7  8  1  0  0  0  0
  1 12  1  0  0  0  0
  5 13  1  0  0  0  0
  5 14  1  0  0  0  0
  5 15  1  0  0  0  0
  6 16  1  0  0  0  0
  6 17  1  0  0  0  0
  6 18  1  0  0  0  0
  7 19  1  0  0  0  0
  7 20  1  0  0  0  0
  7 21  1  0  0  0  0
  8 22  1  0  0  0  0
M  END
> <id>
EN300-1268917

> <smiles>
CC(C)C(=O)C1=NC(C)=CS1

> <IUPAC Name>
2-methyl-1-(4-methyl-1,3-thiazol-2-yl)propan-1-one

> <CAS>
1516520-01-6

> <URL>
https://www.enaminestore.com/catalog/EN300-1268917

> <ROCS_ShapeQuery>
_x1140_x0812_0A_x1140_0A_x1097_0A_x0365_0A_x1097_0A_x0310_0A

> <ROCS_TanimotoCombo>
0.612 

> <ROCS_ShapeTanimoto>
0.182 

> <ROCS_ColorTanimoto>
0.429 

> <ROCS_RefTversky>
0.169 

> <ROCS_RefColorTversky>
0.462 

> <ROCS_RefTverskyCombo>
0.631 

> <ROCS_FitTversky>
1.789 

> <ROCS_FitColorTversky>
0.858 

> <ROCS_FitTverskyCombo>
2.648 

> <ROCS_ColorScore>
-3.605

> <ROCS_Overlap>
1729.539

> <ROCS_Rank>
366                 

$$$$
untitled-dbase-335879_3
  -OEChem-02092423213D

 36 37  0     0  0  0  0  0  0999 V2000
    6.4124   10.8891   27.4922 C   0  0  0  0  0  0  0  0  0  0  0  0
    6.8694   10.1091   26.4270 C   0  0  0  0  0  0  0  0  0  0  0  0
    6.7950   12.2210   27.5925 C   0  0  0  0  0  0  0  0  0  0  0  0
    8.9390   12.5110   24.5696 C   0  0  0  0  0  0  0  0  0  0  0  0
    8.0936   11.9845   25.5555 C   0  0  0  0  0  0  0  0  0  0  0  0
    7.7091   10.6316   25.4472 C   0  0  0  0  0  0  0  0  0  0  0  0
    9.3754   11.7101   23.5241 C   0  0  0  0  0  0  0  0  0  0  0  0
    7.6341   12.7694   26.6268 C   0  0  0  0  0  0  0  0  0  0  0  0
    8.9461   10.3986   23.5028 C   0  0  0  0  0  0  0  0  0  0  0  0
   11.5909    9.2559   21.2292 C   0  0  0  0  0  0  0  0  0  0  0  0
   11.5834    9.4950   23.7123 C   0  0  0  0  0  0  0  0  0  0  0  0
   10.8035    7.3622   22.6496 C   0  0  0  0  0  0  0  0  0  0  0  0
    9.3766    9.4788   22.4066 C   0  0  0  0  0  0  0  0  0  0  0  0
   10.8218    8.8950   22.5177 C   0  0  0  0  0  0  0  0  0  0  0  0
    8.1311    9.8519   24.4338 N   0  0  0  0  0  0  0  0  0  0  0  0
   10.8746   13.4373   22.6923 N   0  0  0  0  0  0  0  0  0  0  0  0
   10.2234   12.2336   22.5329 N   0  0  0  0  0  0  0  0  0  0  0  0
    8.0899   14.6055   26.8712 Br  0  0  0  0  0  0  0  0  0  0  0  0
    5.7580   10.4527   28.2411 H   0  0  0  0  0  0  0  0  0  0  0  0
    6.5552    9.0684   26.3712 H   0  0  0  0  0  0  0  0  0  0  0  0
    6.4289   12.8111   28.4285 H   0  0  0  0  0  0  0  0  0  0  0  0
    9.2745   13.5442   24.5904 H   0  0  0  0  0  0  0  0  0  0  0  0
   11.0897    8.8512   20.3426 H   0  0  0  0  0  0  0  0  0  0  0  0
   11.6656   10.3417   21.1006 H   0  0  0  0  0  0  0  0  0  0  0  0
   12.6101    8.8536   21.2505 H   0  0  0  0  0  0  0  0  0  0  0  0
   11.0786    9.2679   24.6579 H   0  0  0  0  0  0  0  0  0  0  0  0
   12.6081    9.1143   23.7735 H   0  0  0  0  0  0  0  0  0  0  0  0
   11.6514   10.5859   23.6274 H   0  0  0  0  0  0  0  0  0  0  0  0
   10.2664    7.0516   23.5534 H   0  0  0  0  0  0  0  0  0  0  0  0
   10.3019    6.8871   21.8002 H   0  0  0  0  0  0  0  0  0  0  0  0
   11.8199    6.9584   22.7142 H   0  0  0  0  0  0  0  0  0  0  0  0
    9.2857    9.9968   21.4341 H   0  0  0  0  0  0  0  0  0  0  0  0
    8.6662    8.6350   22.3333 H   0  0  0  0  0  0  0  0  0  0  0  0
   10.8004   13.9613   21.8217 H   0  0  0  0  0  0  0  0  0  0  0  0
   11.8681   13.2531   22.8258 H   0  0  0  0  0  0  0  0  0  0  0  0
   10.5223   11.6206   21.7847 H   0  0  0  0  0  0  0  0  0  0  0  0
  1  2  2  0  0  0  0
  1  3  1  0  0  0  0
  2  6  1  0  0  0  0
  3  8  2  0  0  0  0
  4  5  2  0  0  0  0
  4  7  1  0  0  0  0
  5  6  1  0  0  0  0
  5  8  1  0  0  0  0
  6 15  2  0  0  0  0
  7  9  2  0  0  0  0
  7 17  1  0  0  0  0
  8 18  1  0  0  0  0
  9 13  1  0  0  0  0
  9 15  1  0  0  0  0
 10 14  1  0  0  0  0
 11 14  1  0  0  0  0
 12 14  1  0  0  0  0
 13 14  1  0  0  0  0
 16 17  1  0  0  0  0
  1 19  1  0  0  0  0
  2 20  1  0  0  0  0
  3 21  1  0  0  0  0
  4 22  1  0  0  0  0
 10 23  1  0  0  0  0
 10 24  1  0  0  0  0
 10 25  1  0  0  0  0
 11 26  1  0  0  0  0
 11 27  1  0  0  0  0
 11 28  1  0  0  0  0
 12 29  1  0  0  0  0
 12 30  1  0  0  0  0
 12 31  1  0  0  0  0
 13 32  1  0  0  0  0
 13 33  1  0  0  0  0
 16 34  1  0  0  0  0
 16 35  1  0  0  0  0
 17 36  1  0  0  0  0
M  END
> <id>
EN300-801751

> <smiles>
CC(C)(C)CC=1N=C2C=CC=C(Br)C2=CC1NN

> <IUPAC Name>
5-bromo-2-(2,2-dimethylpropyl)-3-hydrazinylquinoline

> <CAS>
2138006-62-7

> <URL>
https://www.enaminestore.com/catalog/EN300-801751

> <ROCS_ShapeQuery>
_x1140_x0812_0A_x1140_0A_x1097_0A_x0365_0A_x1097_0A_x0310_0A

> <ROCS_TanimotoCombo>
0.612 

> <ROCS_ShapeTanimoto>
0.254 

> <ROCS_ColorTanimoto>
0.358 

> <ROCS_RefTversky>
0.228 

> <ROCS_RefColorTversky>
0.506 

> <ROCS_RefTverskyCombo>
0.734 

> <ROCS_FitTversky>
1.822 

> <ROCS_FitColorTversky>
0.549 

> <ROCS_FitTverskyCombo>
2.371 

> <ROCS_ColorScore>
-4.032

> <ROCS_Overlap>
2339.886

> <ROCS_Rank>
367                 

$$$$
untitled-dbase-60572_1
  -OEChem-02092423213D

 17 17  0     0  0  0  0  0  0999 V2000
    8.7602   12.5064   24.6009 C   0  0  0  0  0  0  0  0  0  0  0  0
    7.6366   12.0207   25.2605 C   0  0  0  0  0  0  0  0  0  0  0  0
    9.5778   11.6307   23.8952 C   0  0  0  0  0  0  0  0  0  0  0  0
    7.3765   10.6619   25.1842 C   0  0  0  0  0  0  0  0  0  0  0  0
    9.2310   10.2894   23.8801 C   0  0  0  0  0  0  0  0  0  0  0  0
    5.7150   10.7968   27.0407 C   0  0  0  0  0  0  0  0  0  0  0  0
    8.1475    9.7806   24.5086 N   0  0  0  0  0  0  0  0  0  0  0  0
    6.2263   10.1827   25.8589 N   0  0  0  0  0  0  0  0  0  0  0  0
   10.0195    9.4073   23.1889 O   0  0  0  0  0  0  0  0  0  0  0  0
    8.9979   13.5653   24.6381 H   0  0  0  0  0  0  0  0  0  0  0  0
    6.9938   12.6967   25.8147 H   0  0  0  0  0  0  0  0  0  0  0  0
   10.4585   11.9941   23.3770 H   0  0  0  0  0  0  0  0  0  0  0  0
    6.3441   11.6585   27.3084 H   0  0  0  0  0  0  0  0  0  0  0  0
    4.6846   11.1370   26.8606 H   0  0  0  0  0  0  0  0  0  0  0  0
    5.7217   10.0680   27.8647 H   0  0  0  0  0  0  0  0  0  0  0  0
    5.7789    9.3798   25.4662 H   0  0  0  0  0  0  0  0  0  0  0  0
   10.7586    9.8796   22.7808 H   0  0  0  0  0  0  0  0  0  0  0  0
  1  2  2  0  0  0  0
  1  3  1  0  0  0  0
  2  4  1  0  0  0  0
  3  5  2  0  0  0  0
  4  7  2  0  0  0  0
  4  8  1  0  0  0  0
  5  7  1  0  0  0  0
  5  9  1  0  0  0  0
  6  8  1  0  0  0  0
  1 10  1  0  0  0  0
  2 11  1  0  0  0  0
  3 12  1  0  0  0  0
  6 13  1  0  0  0  0
  6 14  1  0  0  0  0
  6 15  1  0  0  0  0
  8 16  1  0  0  0  0
  9 17  1  0  0  0  0
M  END
> <id>
EN300-251579

> <smiles>
CNC=1C=CC=C(O)N1

> <MDLNUMBER>
MFCD23110563

> <IUPAC Name>
6-(methylamino)pyridin-2-ol

> <CAS>
210551-80-7

> <Purity>
95

> <URL>
https://www.enaminestore.com/catalog/EN300-251579

> <ROCS_ShapeQuery>
_x1140_x0812_0A_x1140_0A_x1097_0A_x0365_0A_x1097_0A_x0310_0A

> <ROCS_TanimotoCombo>
0.612 

> <ROCS_ShapeTanimoto>
0.187 

> <ROCS_ColorTanimoto>
0.424 

> <ROCS_RefTversky>
0.172 

> <ROCS_RefColorTversky>
0.494 

> <ROCS_RefTverskyCombo>
0.666 

> <ROCS_FitTversky>
1.936 

> <ROCS_FitColorTversky>
0.751 

> <ROCS_FitTverskyCombo>
2.688 

> <ROCS_ColorScore>
-3.876

> <ROCS_Overlap>
1759.359

> <ROCS_Rank>
368                 

$$$$
untitled-dbase-119668_6
  -OEChem-02092423213D

 37 38  0     0  0  0  0  0  0999 V2000
    6.8636   12.3854   27.5012 C   0  0  0  0  0  0  0  0  0  0  0  0
    7.6773   12.8988   26.4954 C   0  0  0  0  0  0  0  0  0  0  0  0
    6.4949   11.0463   27.4684 C   0  0  0  0  0  0  0  0  0  0  0  0
    8.9452   12.5623   24.4264 C   0  0  0  0  0  0  0  0  0  0  0  0
    8.1253   12.0716   25.4515 C   0  0  0  0  0  0  0  0  0  0  0  0
    7.7547   10.7110   25.4117 C   0  0  0  0  0  0  0  0  0  0  0  0
    6.9404   10.2240   26.4305 C   0  0  0  0  0  0  0  0  0  0  0  0
    9.3707   11.7198   23.4094 C   0  0  0  0  0  0  0  0  0  0  0  0
    8.9565   10.4041   23.4555 C   0  0  0  0  0  0  0  0  0  0  0  0
   11.7632    9.7812   21.6422 C   0  0  0  0  0  0  0  0  0  0  0  0
   11.3490    8.9215   23.9472 C   0  0  0  0  0  0  0  0  0  0  0  0
   10.9311    7.4508   21.9600 C   0  0  0  0  0  0  0  0  0  0  0  0
    7.4046    7.9938   27.1135 C   0  0  0  0  0  0  0  0  0  0  0  0
    9.3813    9.4482   22.3895 C   0  0  0  0  0  0  0  0  0  0  0  0
   10.8372    8.8897   22.4966 C   0  0  0  0  0  0  0  0  0  0  0  0
    8.1662    9.8911   24.4261 N   0  0  0  0  0  0  0  0  0  0  0  0
   10.1653   12.1911   22.4160 O   0  0  0  0  0  0  0  0  0  0  0  0
    6.5554    8.9123   26.4328 O   0  0  0  0  0  0  0  0  0  0  0  0
    6.5195   13.0280   28.3057 H   0  0  0  0  0  0  0  0  0  0  0  0
    7.9598   13.9488   26.5307 H   0  0  0  0  0  0  0  0  0  0  0  0
    5.8596   10.6434   28.2528 H   0  0  0  0  0  0  0  0  0  0  0  0
    9.2543   13.6056   24.4211 H   0  0  0  0  0  0  0  0  0  0  0  0
   11.4428    9.7948   20.5943 H   0  0  0  0  0  0  0  0  0  0  0  0
   11.7629   10.8163   22.0021 H   0  0  0  0  0  0  0  0  0  0  0  0
   12.7975    9.4203   21.6715 H   0  0  0  0  0  0  0  0  0  0  0  0
   10.7249    8.3020   24.6007 H   0  0  0  0  0  0  0  0  0  0  0  0
   12.3807    8.5628   24.0219 H   0  0  0  0  0  0  0  0  0  0  0  0
   11.3349    9.9423   24.3468 H   0  0  0  0  0  0  0  0  0  0  0  0
   10.2888    6.7738   22.5353 H   0  0  0  0  0  0  0  0  0  0  0  0
   10.6106    7.3850   20.9151 H   0  0  0  0  0  0  0  0  0  0  0  0
   11.9561    7.0698   22.0264 H   0  0  0  0  0  0  0  0  0  0  0  0
    6.9862    6.9870   27.0408 H   0  0  0  0  0  0  0  0  0  0  0  0
    7.4942    8.2878   28.1624 H   0  0  0  0  0  0  0  0  0  0  0  0
    8.3923    8.0101   26.6469 H   0  0  0  0  0  0  0  0  0  0  0  0
    9.2656    9.9250   21.3984 H   0  0  0  0  0  0  0  0  0  0  0  0
    8.6828    8.5913   22.3621 H   0  0  0  0  0  0  0  0  0  0  0  0
   10.3537   13.1354   22.5492 H   0  0  0  0  0  0  0  0  0  0  0  0
  1  2  1  0  0  0  0
  1  3  2  0  0  0  0
  2  5  2  0  0  0  0
  3  7  1  0  0  0  0
  4  5  1  0  0  0  0
  4  8  2  0  0  0  0
  5  6  1  0  0  0  0
  6  7  2  0  0  0  0
  6 16  1  0  0  0  0
  7 18  1  0  0  0  0
  8  9  1  0  0  0  0
  8 17  1  0  0  0  0
  9 14  1  0  0  0  0
  9 16  2  0  0  0  0
 10 15  1  0  0  0  0
 11 15  1  0  0  0  0
 12 15  1  0  0  0  0
 13 18  1  0  0  0  0
 14 15  1  0  0  0  0
  1 19  1  0  0  0  0
  2 20  1  0  0  0  0
  3 21  1  0  0  0  0
  4 22  1  0  0  0  0
 10 23  1  0  0  0  0
 10 24  1  0  0  0  0
 10 25  1  0  0  0  0
 11 26  1  0  0  0  0
 11 27  1  0  0  0  0
 11 28  1  0  0  0  0
 12 29  1  0  0  0  0
 12 30  1  0  0  0  0
 12 31  1  0  0  0  0
 13 32  1  0  0  0  0
 13 33  1  0  0  0  0
 13 34  1  0  0  0  0
 14 35  1  0  0  0  0
 14 36  1  0  0  0  0
 17 37  1  0  0  0  0
M  END
> <id>
EN300-801351

> <smiles>
COC=1C=CC=C2C=C(O)C(CC(C)(C)C)=NC12

> <MDLNUMBER>
MFCD31601654

> <IUPAC Name>
2-(2,2-dimethylpropyl)-8-methoxyquinolin-3-ol

> <CAS>
2138377-05-4

> <URL>
https://www.enaminestore.com/catalog/EN300-801351

> <ROCS_ShapeQuery>
_x1140_x0812_0A_x1140_0A_x1097_0A_x0365_0A_x1097_0A_x0310_0A

> <ROCS_TanimotoCombo>
0.612 

> <ROCS_ShapeTanimoto>
0.242 

> <ROCS_ColorTanimoto>
0.369 

> <ROCS_RefTversky>
0.220 

> <ROCS_RefColorTversky>
0.509 

> <ROCS_RefTverskyCombo>
0.729 

> <ROCS_FitTversky>
1.734 

> <ROCS_FitColorTversky>
0.574 

> <ROCS_FitTverskyCombo>
2.308 

> <ROCS_ColorScore>
-4.047

> <ROCS_Overlap>
2256.018

> <ROCS_Rank>
369                 

$$$$
untitled-dbase-111525_3
  -OEChem-02092423213D

 36 37  0     0  0  0  0  0  0999 V2000
    6.7942   12.2245   27.5908 C   0  0  0  0  0  0  0  0  0  0  0  0
    7.6342   12.7720   26.6255 C   0  0  0  0  0  0  0  0  0  0  0  0
    6.4107   10.8928   27.4906 C   0  0  0  0  0  0  0  0  0  0  0  0
    8.9401   12.5123   24.5691 C   0  0  0  0  0  0  0  0  0  0  0  0
    8.0938   11.9867   25.5547 C   0  0  0  0  0  0  0  0  0  0  0  0
    7.7084   10.6340   25.4464 C   0  0  0  0  0  0  0  0  0  0  0  0
    9.3766   11.7109   23.5241 C   0  0  0  0  0  0  0  0  0  0  0  0
    6.8678   10.1122   26.4259 C   0  0  0  0  0  0  0  0  0  0  0  0
    8.9464   10.3997   23.5028 C   0  0  0  0  0  0  0  0  0  0  0  0
   11.5891    9.2550   21.2276 C   0  0  0  0  0  0  0  0  0  0  0  0
   11.5832    9.4941   23.7108 C   0  0  0  0  0  0  0  0  0  0  0  0
   10.8010    7.3619   22.6485 C   0  0  0  0  0  0  0  0  0  0  0  0
    9.3756    9.4797   22.4064 C   0  0  0  0  0  0  0  0  0  0  0  0
   10.8205    8.8947   22.5166 C   0  0  0  0  0  0  0  0  0  0  0  0
    8.1304    9.8538   24.4335 N   0  0  0  0  0  0  0  0  0  0  0  0
   10.8762   13.4385   22.6940 N   0  0  0  0  0  0  0  0  0  0  0  0
   10.2252   12.2348   22.5336 N   0  0  0  0  0  0  0  0  0  0  0  0
    6.2937    8.2978   26.3616 Br  0  0  0  0  0  0  0  0  0  0  0  0
    6.4412   12.8349   28.4164 H   0  0  0  0  0  0  0  0  0  0  0  0
    7.9289   13.8153   26.7136 H   0  0  0  0  0  0  0  0  0  0  0  0
    5.7536   10.4759   28.2497 H   0  0  0  0  0  0  0  0  0  0  0  0
    9.2572   13.5526   24.6208 H   0  0  0  0  0  0  0  0  0  0  0  0
   11.0870    8.8507   20.3414 H   0  0  0  0  0  0  0  0  0  0  0  0
   11.6646   10.3408   21.0990 H   0  0  0  0  0  0  0  0  0  0  0  0
   12.6079    8.8520   21.2484 H   0  0  0  0  0  0  0  0  0  0  0  0
   11.0788    9.2674   24.6566 H   0  0  0  0  0  0  0  0  0  0  0  0
   12.6077    9.1126   23.7714 H   0  0  0  0  0  0  0  0  0  0  0  0
   11.6520   10.5850   23.6258 H   0  0  0  0  0  0  0  0  0  0  0  0
   10.2642    7.0518   23.5527 H   0  0  0  0  0  0  0  0  0  0  0  0
   10.2986    6.8872   21.7994 H   0  0  0  0  0  0  0  0  0  0  0  0
   11.8171    6.9573   22.7125 H   0  0  0  0  0  0  0  0  0  0  0  0
    9.2846    9.9977   21.4339 H   0  0  0  0  0  0  0  0  0  0  0  0
    8.6645    8.6363   22.3334 H   0  0  0  0  0  0  0  0  0  0  0  0
   10.8025   13.9629   21.8235 H   0  0  0  0  0  0  0  0  0  0  0  0
   11.8696   13.2543   22.8280 H   0  0  0  0  0  0  0  0  0  0  0  0
   10.5246   11.6222   21.7854 H   0  0  0  0  0  0  0  0  0  0  0  0
  1  2  2  0  0  0  0
  1  3  1  0  0  0  0
  2  5  1  0  0  0  0
  3  8  2  0  0  0  0
  4  5  2  0  0  0  0
  4  7  1  0  0  0  0
  5  6  1  0  0  0  0
  6  8  1  0  0  0  0
  6 15  2  0  0  0  0
  7  9  2  0  0  0  0
  7 17  1  0  0  0  0
  8 18  1  0  0  0  0
  9 13  1  0  0  0  0
  9 15  1  0  0  0  0
 10 14  1  0  0  0  0
 11 14  1  0  0  0  0
 12 14  1  0  0  0  0
 13 14  1  0  0  0  0
 16 17  1  0  0  0  0
  1 19  1  0  0  0  0
  2 20  1  0  0  0  0
  3 21  1  0  0  0  0
  4 22  1  0  0  0  0
 10 23  1  0  0  0  0
 10 24  1  0  0  0  0
 10 25  1  0  0  0  0
 11 26  1  0  0  0  0
 11 27  1  0  0  0  0
 11 28  1  0  0  0  0
 12 29  1  0  0  0  0
 12 30  1  0  0  0  0
 12 31  1  0  0  0  0
 13 32  1  0  0  0  0
 13 33  1  0  0  0  0
 16 34  1  0  0  0  0
 16 35  1  0  0  0  0
 17 36  1  0  0  0  0
M  END
> <id>
EN300-801665

> <smiles>
CC(C)(C)CC=1N=C2C(Br)=CC=CC2=CC1NN

> <IUPAC Name>
8-bromo-2-(2,2-dimethylpropyl)-3-hydrazinylquinoline

> <CAS>
2137861-95-9

> <URL>
https://www.enaminestore.com/catalog/EN300-801665

> <ROCS_ShapeQuery>
_x1140_x0812_0A_x1140_0A_x1097_0A_x0365_0A_x1097_0A_x0310_0A

> <ROCS_TanimotoCombo>
0.612 

> <ROCS_ShapeTanimoto>
0.254 

> <ROCS_ColorTanimoto>
0.358 

> <ROCS_RefTversky>
0.228 

> <ROCS_RefColorTversky>
0.506 

> <ROCS_RefTverskyCombo>
0.734 

> <ROCS_FitTversky>
1.821 

> <ROCS_FitColorTversky>
0.549 

> <ROCS_FitTverskyCombo>
2.370 

> <ROCS_ColorScore>
-4.031

> <ROCS_Overlap>
2338.890

> <ROCS_Rank>
370                 

$$$$
untitled-dbase-108340_7
  -OEChem-02092423213D

 30 30  0     0  0  0  0  0  0999 V2000
    9.0329   11.9942   24.9495 C   0  0  0  0  0  0  0  0  0  0  0  0
    7.7434   11.9278   25.4177 C   0  0  0  0  0  0  0  0  0  0  0  0
    7.3894   10.5720   25.2828 C   0  0  0  0  0  0  0  0  0  0  0  0
    6.9329   13.0430   25.9393 C   0  0  0  0  0  0  0  0  0  0  0  0
   12.0561    9.5512   22.0364 C   0  0  0  0  0  0  0  0  0  0  0  0
   10.1953    8.0679   22.7864 C   0  0  0  0  0  0  0  0  0  0  0  0
   10.6793   10.2719   23.9942 C   0  0  0  0  0  0  0  0  0  0  0  0
    9.6698   10.2220   21.6195 C   0  0  0  0  0  0  0  0  0  0  0  0
   10.6254    9.5371   22.6213 C   0  0  0  0  0  0  0  0  0  0  0  0
    8.3744    9.8306   24.7688 N   0  0  0  0  0  0  0  0  0  0  0  0
    9.3600   10.7237   24.5766 N   0  0  0  0  0  0  0  0  0  0  0  0
    6.1648   10.1110   25.6494 N   0  0  0  0  0  0  0  0  0  0  0  0
   10.0626   11.5662   21.3757 O   0  0  0  0  0  0  0  0  0  0  0  0
    9.7283   12.8169   24.8516 H   0  0  0  0  0  0  0  0  0  0  0  0
    6.3597   13.5312   25.1332 H   0  0  0  0  0  0  0  0  0  0  0  0
    6.2120   12.7099   26.7065 H   0  0  0  0  0  0  0  0  0  0  0  0
    7.5538   13.8175   26.4232 H   0  0  0  0  0  0  0  0  0  0  0  0
   12.4230   10.5736   21.8939 H   0  0  0  0  0  0  0  0  0  0  0  0
   12.0917    9.0464   21.0643 H   0  0  0  0  0  0  0  0  0  0  0  0
   12.7592    9.0373   22.7020 H   0  0  0  0  0  0  0  0  0  0  0  0
    9.1832    7.9950   23.1997 H   0  0  0  0  0  0  0  0  0  0  0  0
   10.8692    7.5351   23.4674 H   0  0  0  0  0  0  0  0  0  0  0  0
   10.2125    7.5306   21.8325 H   0  0  0  0  0  0  0  0  0  0  0  0
   11.3391   11.1477   23.9201 H   0  0  0  0  0  0  0  0  0  0  0  0
   11.1692    9.6212   24.7328 H   0  0  0  0  0  0  0  0  0  0  0  0
    9.6731    9.6915   20.6603 H   0  0  0  0  0  0  0  0  0  0  0  0
    8.6395   10.2253   21.9906 H   0  0  0  0  0  0  0  0  0  0  0  0
    5.4655   10.7238   26.0832 H   0  0  0  0  0  0  0  0  0  0  0  0
    5.9251    9.1148   25.5943 H   0  0  0  0  0  0  0  0  0  0  0  0
    9.4245   11.9338   20.7430 H   0  0  0  0  0  0  0  0  0  0  0  0
  1  2  2  0  0  0  0
  1 11  1  0  0  0  0
  2  3  1  0  0  0  0
  2  4  1  0  0  0  0
  3 10  2  0  0  0  0
  3 12  1  0  0  0  0
  5  9  1  0  0  0  0
  6  9  1  0  0  0  0
  7  9  1  0  0  0  0
  7 11  1  0  0  0  0
  8  9  1  0  0  0  0
  8 13  1  0  0  0  0
 10 11  1  0  0  0  0
  1 14  1  0  0  0  0
  4 15  1  0  0  0  0
  4 16  1  0  0  0  0
  4 17  1  0  0  0  0
  5 18  1  0  0  0  0
  5 19  1  0  0  0  0
  5 20  1  0  0  0  0
  6 21  1  0  0  0  0
  6 22  1  0  0  0  0
  6 23  1  0  0  0  0
  7 24  1  0  0  0  0
  7 25  1  0  0  0  0
  8 26  1  0  0  0  0
  8 27  1  0  0  0  0
 12 28  1  0  0  0  0
 12 29  1  0  0  0  0
 13 30  1  0  0  0  0
M  END
> <id>
EN300-1110275

> <smiles>
CC1=CN(CC(C)(C)CO)N=C1N

> <IUPAC Name>
3-(3-amino-4-methyl-1H-pyrazol-1-yl)-2,2-dimethylpropan-1-ol

> <CAS>
2111414-61-8

> <URL>
https://www.enaminestore.com/catalog/EN300-1110275

> <ROCS_ShapeQuery>
_x1140_x0812_0A_x1140_0A_x1097_0A_x0365_0A_x1097_0A_x0310_0A

> <ROCS_TanimotoCombo>
0.612 

> <ROCS_ShapeTanimoto>
0.194 

> <ROCS_ColorTanimoto>
0.417 

> <ROCS_RefTversky>
0.180 

> <ROCS_RefColorTversky>
0.556 

> <ROCS_RefTverskyCombo>
0.735 

> <ROCS_FitTversky>
1.732 

> <ROCS_FitColorTversky>
0.626 

> <ROCS_FitTverskyCombo>
2.358 

> <ROCS_ColorScore>
-4.417

> <ROCS_Overlap>
1841.526

> <ROCS_Rank>
371                 

$$$$
untitled-dbase-256085_2
  -OEChem-02092423213D

 25 25  0     0  0  0  0  0  0999 V2000
    8.4481   12.4111   24.1817 C   0  0  0  0  0  0  0  0  0  0  0  0
    9.2109   11.4865   23.4770 C   0  0  0  0  0  0  0  0  0  0  0  0
    7.4690   11.9680   25.0640 C   0  0  0  0  0  0  0  0  0  0  0  0
    8.9575   10.1409   23.6887 C   0  0  0  0  0  0  0  0  0  0  0  0
    7.2935   10.6008   25.2045 C   0  0  0  0  0  0  0  0  0  0  0  0
   10.2382   11.9488   22.5561 C   0  0  0  0  0  0  0  0  0  0  0  0
    6.6525   12.9619   25.8179 C   0  0  0  0  0  0  0  0  0  0  0  0
    9.7451    9.1003   22.9612 C   0  0  0  0  0  0  0  0  0  0  0  0
   12.2534   13.2144   22.3932 C   0  0  0  0  0  0  0  0  0  0  0  0
    8.0152    9.6725   24.5373 N   0  0  0  0  0  0  0  0  0  0  0  0
    6.2969   10.1439   26.1028 N   0  0  0  0  0  0  0  0  0  0  0  0
   10.2555   11.6977   21.3442 O   0  0  0  0  0  0  0  0  0  0  0  0
   11.1860   12.6991   23.1963 O   0  0  0  0  0  0  0  0  0  0  0  0
    8.6139   13.4768   24.0426 H   0  0  0  0  0  0  0  0  0  0  0  0
    5.7522   13.2269   25.2497 H   0  0  0  0  0  0  0  0  0  0  0  0
    6.3434   12.5660   26.7941 H   0  0  0  0  0  0  0  0  0  0  0  0
    7.2224   13.8797   26.0140 H   0  0  0  0  0  0  0  0  0  0  0  0
   10.6354    8.8260   23.5384 H   0  0  0  0  0  0  0  0  0  0  0  0
    9.1461    8.1974   22.7914 H   0  0  0  0  0  0  0  0  0  0  0  0
   10.0641    9.4623   21.9761 H   0  0  0  0  0  0  0  0  0  0  0  0
   12.9369   13.7914   23.0209 H   0  0  0  0  0  0  0  0  0  0  0  0
   11.8430   13.8491   21.6038 H   0  0  0  0  0  0  0  0  0  0  0  0
   12.7941   12.3789   21.9421 H   0  0  0  0  0  0  0  0  0  0  0  0
    5.7884   10.8134   26.6379 H   0  0  0  0  0  0  0  0  0  0  0  0
    6.1934    9.1633   26.2476 H   0  0  0  0  0  0  0  0  0  0  0  0
  1  2  1  0  0  0  0
  1  3  2  0  0  0  0
  2  4  2  0  0  0  0
  2  6  1  0  0  0  0
  3  5  1  0  0  0  0
  3  7  1  0  0  0  0
  4  8  1  0  0  0  0
  4 10  1  0  0  0  0
  5 10  2  0  0  0  0
  5 11  1  0  0  0  0
  6 12  2  0  0  0  0
  6 13  1  0  0  0  0
  9 13  1  0  0  0  0
  1 14  1  0  0  0  0
  7 15  1  0  0  0  0
  7 16  1  0  0  0  0
  7 17  1  0  0  0  0
  8 18  1  0  0  0  0
  8 19  1  0  0  0  0
  8 20  1  0  0  0  0
  9 21  1  0  0  0  0
  9 22  1  0  0  0  0
  9 23  1  0  0  0  0
 11 24  1  0  0  0  0
 11 25  1  0  0  0  0
M  END
> <id>
EN300-2010066

> <smiles>
COC(=O)C=1C=C(C)C(N)=NC1C

> <MDLNUMBER>
MFCD22551660

> <IUPAC Name>
methyl 6-amino-2,5-dimethylpyridine-3-carboxylate

> <CAS>
1263061-47-7

> <Purity>
95

> <URL>
https://www.enaminestore.com/catalog/EN300-2010066

> <ROCS_ShapeQuery>
_x1140_x0812_0A_x1140_0A_x1097_0A_x0365_0A_x1097_0A_x0310_0A

> <ROCS_TanimotoCombo>
0.612 

> <ROCS_ShapeTanimoto>
0.251 

> <ROCS_ColorTanimoto>
0.361 

> <ROCS_RefTversky>
0.222 

> <ROCS_RefColorTversky>
0.439 

> <ROCS_RefTverskyCombo>
0.661 

> <ROCS_FitTversky>
2.103 

> <ROCS_FitColorTversky>
0.669 

> <ROCS_FitTverskyCombo>
2.772 

> <ROCS_ColorScore>
-3.449

> <ROCS_Overlap>
2271.059

> <ROCS_Rank>
372                 

$$$$
untitled-dbase-523169_1
  -OEChem-02092423213D

 24 25  0     0  0  0  0  0  0999 V2000
    5.8748   12.8267   26.5615 C   0  0  0  0  0  0  0  0  0  0  0  0
    5.5960   11.4883   26.7951 C   0  0  0  0  0  0  0  0  0  0  0  0
    6.9080   13.1723   25.6924 C   0  0  0  0  0  0  0  0  0  0  0  0
    6.3532   10.5070   26.1578 C   0  0  0  0  0  0  0  0  0  0  0  0
    7.6707   12.1994   25.0503 C   0  0  0  0  0  0  0  0  0  0  0  0
    7.3880   10.8417   25.2874 C   0  0  0  0  0  0  0  0  0  0  0  0
    9.3670   11.5775   23.6229 C   0  0  0  0  0  0  0  0  0  0  0  0
    9.0919   10.2559   23.8538 C   0  0  0  0  0  0  0  0  0  0  0  0
    8.6623   12.5579   24.2161 N   0  0  0  0  0  0  0  0  0  0  0  0
    8.1043    9.8767   24.6845 N   0  0  0  0  0  0  0  0  0  0  0  0
   10.5197   13.2060   22.2294 N   0  0  0  0  0  0  0  0  0  0  0  0
   11.0403    9.5447   22.5808 N   0  0  0  0  0  0  0  0  0  0  0  0
   10.4126   11.9362   22.7433 N   0  0  0  0  0  0  0  0  0  0  0  0
    9.8545    9.2550   23.2118 N   0  0  0  0  0  0  0  0  0  0  0  0
    5.2924   13.6009   27.0516 H   0  0  0  0  0  0  0  0  0  0  0  0
    4.7937   11.2057   27.4697 H   0  0  0  0  0  0  0  0  0  0  0  0
    7.1159   14.2261   25.5179 H   0  0  0  0  0  0  0  0  0  0  0  0
    6.1239    9.4608   26.3501 H   0  0  0  0  0  0  0  0  0  0  0  0
   10.7429   13.1303   21.2382 H   0  0  0  0  0  0  0  0  0  0  0  0
   11.3197   13.6647   22.6635 H   0  0  0  0  0  0  0  0  0  0  0  0
   11.0556    9.0508   21.6898 H   0  0  0  0  0  0  0  0  0  0  0  0
   11.8040    9.1547   23.1316 H   0  0  0  0  0  0  0  0  0  0  0  0
   11.1992   11.3093   22.6639 H   0  0  0  0  0  0  0  0  0  0  0  0
    9.6262    8.2911   23.4035 H   0  0  0  0  0  0  0  0  0  0  0  0
  1  2  1  0  0  0  0
  1  3  2  0  0  0  0
  2  4  2  0  0  0  0
  3  5  1  0  0  0  0
  4  6  1  0  0  0  0
  5  6  1  0  0  0  0
  5  9  2  0  0  0  0
  6 10  2  0  0  0  0
  7  8  2  0  0  0  0
  7  9  1  0  0  0  0
  7 13  1  0  0  0  0
  8 10  1  0  0  0  0
  8 14  1  0  0  0  0
 11 13  1  0  0  0  0
 12 14  1  0  0  0  0
  1 15  1  0  0  0  0
  2 16  1  0  0  0  0
  3 17  1  0  0  0  0
  4 18  1  0  0  0  0
 11 19  1  0  0  0  0
 11 20  1  0  0  0  0
 12 21  1  0  0  0  0
 12 22  1  0  0  0  0
 13 23  1  0  0  0  0
 14 24  1  0  0  0  0
M  END
> <id>
EN300-110842

> <smiles>
NNC=1N=C2C=CC=CC2=NC1NN

> <MDLNUMBER>
MFCD00181991

> <IUPAC Name>
2,3-dihydrazinylquinoxaline

> <CAS>
73029-86-4

> <URL>
https://www.enaminestore.com/catalog/EN300-110842

> <ROCS_ShapeQuery>
_x1140_x0812_0A_x1140_0A_x1097_0A_x0365_0A_x1097_0A_x0310_0A

> <ROCS_TanimotoCombo>
0.611 

> <ROCS_ShapeTanimoto>
0.275 

> <ROCS_ColorTanimoto>
0.336 

> <ROCS_RefTversky>
0.240 

> <ROCS_RefColorTversky>
0.521 

> <ROCS_RefTverskyCombo>
0.761 

> <ROCS_FitTversky>
2.140 

> <ROCS_FitColorTversky>
0.487 

> <ROCS_FitTverskyCombo>
2.627 

> <ROCS_ColorScore>
-4.183

> <ROCS_Overlap>
2459.590

> <ROCS_Rank>
373                 

$$$$
untitled-dbase-444210_8
  -OEChem-02092423213D

 21 21  0     0  0  0  0  0  0999 V2000
    8.6015   12.4848   24.0490 C   0  0  0  0  0  0  0  0  0  0  0  0
    7.4628   10.8291   25.3212 C   0  0  0  0  0  0  0  0  0  0  0  0
    7.6298   12.1642   24.9904 C   0  0  0  0  0  0  0  0  0  0  0  0
    9.3659   11.4748   23.4754 C   0  0  0  0  0  0  0  0  0  0  0  0
    9.1214   10.1706   23.8743 C   0  0  0  0  0  0  0  0  0  0  0  0
    9.5041    8.4497   22.1086 C   0  0  0  0  0  0  0  0  0  0  0  0
    6.7985   13.2222   25.6245 C   0  0  0  0  0  0  0  0  0  0  0  0
    8.1861    9.8204   24.7855 N   0  0  0  0  0  0  0  0  0  0  0  0
    9.8954    9.1313   23.2985 N   0  0  0  0  0  0  0  0  0  0  0  0
   10.3573   11.8064   22.5123 N   0  3  0  0  0  0  0  0  0  0  0  0
   11.5232   12.0541   22.9024 O   0  5  0  0  0  0  0  0  0  0  0  0
   10.0375   11.8422   21.3002 O   0  0  0  0  0  0  0  0  0  0  0  0
    7.3742   13.6723   26.7719 F   0  0  0  0  0  0  0  0  0  0  0  0
    5.5770   12.7368   25.9751 F   0  0  0  0  0  0  0  0  0  0  0  0
    8.7600   13.5234   23.7668 H   0  0  0  0  0  0  0  0  0  0  0  0
    6.7206   10.5188   26.0501 H   0  0  0  0  0  0  0  0  0  0  0  0
    8.5497    8.8602   21.7472 H   0  0  0  0  0  0  0  0  0  0  0  0
   10.2769    8.5852   21.3376 H   0  0  0  0  0  0  0  0  0  0  0  0
    9.3841    7.3775   22.3230 H   0  0  0  0  0  0  0  0  0  0  0  0
    6.6395   14.0840   24.9710 H   0  0  0  0  0  0  0  0  0  0  0  0
   10.7423    8.8908   23.7709 H   0  0  0  0  0  0  0  0  0  0  0  0
  1  3  2  0  0  0  0
  1  4  1  0  0  0  0
  2  3  1  0  0  0  0
  2  8  2  0  0  0  0
  3  7  1  0  0  0  0
  4  5  2  0  0  0  0
  4 10  1  0  0  0  0
  5  8  1  0  0  0  0
  5  9  1  0  0  0  0
  6  9  1  0  0  0  0
  7 13  1  0  0  0  0
  7 14  1  0  0  0  0
 10 11  1  0  0  0  0
 10 12  2  0  0  0  0
  1 15  1  0  0  0  0
  2 16  1  0  0  0  0
  6 17  1  0  0  0  0
  6 18  1  0  0  0  0
  6 19  1  0  0  0  0
  7 20  1  0  0  0  0
  9 21  1  0  0  0  0
M  CHG  2  10   1  11  -1
M  END
> <id>
EN300-306974

> <smiles>
CNC=1N=CC(=CC1[N+](=O)[O-])C(F)F

> <MDLNUMBER>
MFCD30342959

> <IUPAC Name>
5-(difluoromethyl)-N-methyl-3-nitropyridin-2-amine

> <CAS>
1989672-74-3

> <Purity>
95

> <URL>
https://www.enaminestore.com/catalog/EN300-306974

> <ROCS_ShapeQuery>
_x1140_x0812_0A_x1140_0A_x1097_0A_x0365_0A_x1097_0A_x0310_0A

> <ROCS_TanimotoCombo>
0.611 

> <ROCS_ShapeTanimoto>
0.250 

> <ROCS_ColorTanimoto>
0.362 

> <ROCS_RefTversky>
0.222 

> <ROCS_RefColorTversky>
0.441 

> <ROCS_RefTverskyCombo>
0.662 

> <ROCS_FitTversky>
2.009 

> <ROCS_FitColorTversky>
0.670 

> <ROCS_FitTverskyCombo>
2.679 

> <ROCS_ColorScore>
-3.459

> <ROCS_Overlap>
2273.298

> <ROCS_Rank>
374                 

$$$$
untitled-dbase-89131_5
  -OEChem-02092423213D

 28 29  0     0  0  0  0  0  0999 V2000
    7.9627   10.9505   25.3536 C   0  0  0  0  0  0  0  0  0  0  0  0
    9.0940   11.5700   23.5335 C   0  0  0  0  0  0  0  0  0  0  0  0
    8.5025   12.0493   24.7266 C   0  0  0  0  0  0  0  0  0  0  0  0
    8.8738   10.2123   23.5166 C   0  0  0  0  0  0  0  0  0  0  0  0
    9.7905   12.3072   22.5197 C   0  0  0  0  0  0  0  0  0  0  0  0
    7.1209   14.1215   25.5446 C   0  0  0  0  0  0  0  0  0  0  0  0
    7.8788   14.5653   24.3327 C   0  0  0  0  0  0  0  0  0  0  0  0
    8.4633   13.4837   25.2264 C   0  0  0  0  0  0  0  0  0  0  0  0
   12.5877   13.7341   22.0259 C   0  0  0  0  0  0  0  0  0  0  0  0
    9.2255    9.1414   22.5717 C   0  0  0  0  0  0  0  0  0  0  0  0
   11.1619   14.2361   22.1076 C   0  0  0  0  0  0  0  0  0  0  0  0
    9.8302   12.0047   21.3077 O   0  0  0  0  0  0  0  0  0  0  0  0
    8.1848    9.8267   24.6226 O   0  0  0  0  0  0  0  0  0  0  0  0
   10.4304   13.4155   23.0248 O   0  0  0  0  0  0  0  0  0  0  0  0
   11.1314    8.7365   22.6947 Br  0  0  0  0  0  0  0  0  0  0  0  0
    7.4181   10.8060   26.2756 H   0  0  0  0  0  0  0  0  0  0  0  0
    7.0665   14.8033   26.3846 H   0  0  0  0  0  0  0  0  0  0  0  0
    6.2248   13.5325   25.3901 H   0  0  0  0  0  0  0  0  0  0  0  0
    7.4940   14.2740   23.3626 H   0  0  0  0  0  0  0  0  0  0  0  0
    8.3368   15.5468   24.3539 H   0  0  0  0  0  0  0  0  0  0  0  0
    9.2985   13.7872   25.8604 H   0  0  0  0  0  0  0  0  0  0  0  0
   13.0753   13.7834   23.0035 H   0  0  0  0  0  0  0  0  0  0  0  0
   12.6128   12.6989   21.6701 H   0  0  0  0  0  0  0  0  0  0  0  0
   13.1662   14.3301   21.3122 H   0  0  0  0  0  0  0  0  0  0  0  0
    9.0327    9.4089   21.5182 H   0  0  0  0  0  0  0  0  0  0  0  0
    8.6940    8.1940   22.7690 H   0  0  0  0  0  0  0  0  0  0  0  0
   10.6800   14.1841   21.1267 H   0  0  0  0  0  0  0  0  0  0  0  0
   11.1386   15.2702   22.4640 H   0  0  0  0  0  0  0  0  0  0  0  0
  1  3  2  0  0  0  0
  1 13  1  0  0  0  0
  2  3  1  0  0  0  0
  2  4  2  0  0  0  0
  2  5  1  0  0  0  0
  3  8  1  0  0  0  0
  4 10  1  0  0  0  0
  4 13  1  0  0  0  0
  5 12  2  0  0  0  0
  5 14  1  0  0  0  0
  6  7  1  0  0  0  0
  6  8  1  0  0  0  0
  7  8  1  0  0  0  0
  9 11  1  0  0  0  0
 10 15  1  0  0  0  0
 11 14  1  0  0  0  0
  1 16  1  0  0  0  0
  6 17  1  0  0  0  0
  6 18  1  0  0  0  0
  7 19  1  0  0  0  0
  7 20  1  0  0  0  0
  8 21  1  0  0  0  0
  9 22  1  0  0  0  0
  9 23  1  0  0  0  0
  9 24  1  0  0  0  0
 10 25  1  0  0  0  0
 10 26  1  0  0  0  0
 11 27  1  0  0  0  0
 11 28  1  0  0  0  0
M  END
> <id>
EN300-703228

> <smiles>
CCOC(=O)C1=C(CBr)OC=C1C2CC2

> <MDLNUMBER>
MFCD31434155

> <IUPAC Name>
ethyl 2-(bromomethyl)-4-cyclopropylfuran-3-carboxylate

> <CAS>
2137675-06-8

> <URL>
https://www.enaminestore.com/catalog/EN300-703228

> <ROCS_ShapeQuery>
_x1140_x0812_0A_x1140_0A_x1097_0A_x0365_0A_x1097_0A_x0310_0A

> <ROCS_TanimotoCombo>
0.611 

> <ROCS_ShapeTanimoto>
0.230 

> <ROCS_ColorTanimoto>
0.381 

> <ROCS_RefTversky>
0.208 

> <ROCS_RefColorTversky>
0.425 

> <ROCS_RefTverskyCombo>
0.633 

> <ROCS_FitTversky>
1.855 

> <ROCS_FitColorTversky>
0.788 

> <ROCS_FitTverskyCombo>
2.644 

> <ROCS_ColorScore>
-3.312

> <ROCS_Overlap>
2133.881

> <ROCS_Rank>
375                 

$$$$
untitled-dbase-15692_7
  -OEChem-02092423213D

 25 25  0     0  0  0  0  0  0999 V2000
    8.1701   12.5857   25.2186 C   0  0  0  0  0  0  0  0  0  0  0  0
    7.6987   11.5382   26.0022 C   0  0  0  0  0  0  0  0  0  0  0  0
    8.7363   12.3177   23.9773 C   0  0  0  0  0  0  0  0  0  0  0  0
    7.8160   10.2511   25.5030 C   0  0  0  0  0  0  0  0  0  0  0  0
    8.8073   10.9956   23.5688 C   0  0  0  0  0  0  0  0  0  0  0  0
    9.3981   10.6521   22.2624 C   0  0  0  0  0  0  0  0  0  0  0  0
   10.9645    8.5143   23.7422 C   0  0  0  0  0  0  0  0  0  0  0  0
   11.9794    9.1320   21.5407 C   0  0  0  0  0  0  0  0  0  0  0  0
    9.4615    9.1838   21.8412 C   0  0  0  0  0  0  0  0  0  0  0  0
   10.7749    8.4793   22.2241 C   0  0  0  0  0  0  0  0  0  0  0  0
    8.3601    9.9517   24.3022 N   0  0  0  0  0  0  0  0  0  0  0  0
    9.8184   11.5346   21.5134 O   0  0  0  0  0  0  0  0  0  0  0  0
    8.0962   13.6089   25.5745 H   0  0  0  0  0  0  0  0  0  0  0  0
    7.2540   11.7232   26.9731 H   0  0  0  0  0  0  0  0  0  0  0  0
    9.1064   13.1267   23.3563 H   0  0  0  0  0  0  0  0  0  0  0  0
    7.4621    9.3995   26.0747 H   0  0  0  0  0  0  0  0  0  0  0  0
   11.0148    9.5467   24.1042 H   0  0  0  0  0  0  0  0  0  0  0  0
   11.8875    8.0051   24.0399 H   0  0  0  0  0  0  0  0  0  0  0  0
   10.1273    8.0242   24.2504 H   0  0  0  0  0  0  0  0  0  0  0  0
   12.0717   10.1875   21.8138 H   0  0  0  0  0  0  0  0  0  0  0  0
   11.8796    9.0810   20.4511 H   0  0  0  0  0  0  0  0  0  0  0  0
   12.9129    8.6296   21.8165 H   0  0  0  0  0  0  0  0  0  0  0  0
    8.6197    8.6459   22.2927 H   0  0  0  0  0  0  0  0  0  0  0  0
    9.3436    9.1623   20.7507 H   0  0  0  0  0  0  0  0  0  0  0  0
   10.7312    7.4273   21.9159 H   0  0  0  0  0  0  0  0  0  0  0  0
  1  2  1  0  0  0  0
  1  3  2  0  0  0  0
  2  4  2  0  0  0  0
  3  5  1  0  0  0  0
  4 11  1  0  0  0  0
  5  6  1  0  0  0  0
  5 11  2  0  0  0  0
  6  9  1  0  0  0  0
  6 12  2  0  0  0  0
  7 10  1  0  0  0  0
  8 10  1  0  0  0  0
  9 10  1  0  0  0  0
  1 13  1  0  0  0  0
  2 14  1  0  0  0  0
  3 15  1  0  0  0  0
  4 16  1  0  0  0  0
  7 17  1  0  0  0  0
  7 18  1  0  0  0  0
  7 19  1  0  0  0  0
  8 20  1  0  0  0  0
  8 21  1  0  0  0  0
  8 22  1  0  0  0  0
  9 23  1  0  0  0  0
  9 24  1  0  0  0  0
 10 25  1  0  0  0  0
M  END
> <id>
EN300-102661

> <smiles>
CC(C)CC(=O)C=1C=CC=CN1

> <MDLNUMBER>
MFCD07699213

> <IUPAC Name>
3-methyl-1-(pyridin-2-yl)butan-1-one

> <CAS>
6952-53-0

> <Purity>
95

> <URL>
https://www.enaminestore.com/catalog/EN300-102661

> <ROCS_ShapeQuery>
_x1140_x0812_0A_x1140_0A_x1097_0A_x0365_0A_x1097_0A_x0310_0A

> <ROCS_TanimotoCombo>
0.611 

> <ROCS_ShapeTanimoto>
0.187 

> <ROCS_ColorTanimoto>
0.424 

> <ROCS_RefTversky>
0.173 

> <ROCS_RefColorTversky>
0.458 

> <ROCS_RefTverskyCombo>
0.631 

> <ROCS_FitTversky>
1.739 

> <ROCS_FitColorTversky>
0.851 

> <ROCS_FitTverskyCombo>
2.590 

> <ROCS_ColorScore>
-3.573

> <ROCS_Overlap>
1776.619

> <ROCS_Rank>
376                 

$$$$
untitled-dbase-128578_0
  -OEChem-02092423213D

 21 21  0     0  0  0  0  0  0999 V2000
    8.5550   12.6003   24.0700 C   0  0  0  0  0  0  0  0  0  0  0  0
    7.6152   12.1918   25.0096 C   0  0  0  0  0  0  0  0  0  0  0  0
    9.3407   11.6528   23.4233 C   0  0  0  0  0  0  0  0  0  0  0  0
    7.5008   10.8347   25.2648 C   0  0  0  0  0  0  0  0  0  0  0  0
    9.1493   10.3199   23.7497 C   0  0  0  0  0  0  0  0  0  0  0  0
    6.7704   13.2014   25.7061 C   0  0  0  0  0  0  0  0  0  0  0  0
    6.5074   10.3380   26.2639 C   0  0  0  0  0  0  0  0  0  0  0  0
    8.2463    9.8848   24.6569 N   0  0  0  0  0  0  0  0  0  0  0  0
   10.2929   12.0646   22.4720 N   0  0  0  0  0  0  0  0  0  0  0  0
    9.9466    9.3466   23.0960 N   0  0  0  0  0  0  0  0  0  0  0  0
    8.6736   13.6573   23.8433 H   0  0  0  0  0  0  0  0  0  0  0  0
    5.8453   13.3819   25.1436 H   0  0  0  0  0  0  0  0  0  0  0  0
    6.5011   12.8689   26.7179 H   0  0  0  0  0  0  0  0  0  0  0  0
    7.2997   14.1575   25.8183 H   0  0  0  0  0  0  0  0  0  0  0  0
    5.5483   10.1318   25.7751 H   0  0  0  0  0  0  0  0  0  0  0  0
    6.8584    9.4184   26.7478 H   0  0  0  0  0  0  0  0  0  0  0  0
    6.3435   11.0753   27.0594 H   0  0  0  0  0  0  0  0  0  0  0  0
   10.3623   13.0352   22.2356 H   0  0  0  0  0  0  0  0  0  0  0  0
   10.8218   11.3736   21.9765 H   0  0  0  0  0  0  0  0  0  0  0  0
   10.5847    9.6432   22.3906 H   0  0  0  0  0  0  0  0  0  0  0  0
    9.7831    8.3830   23.2898 H   0  0  0  0  0  0  0  0  0  0  0  0
  1  2  1  0  0  0  0
  1  3  2  0  0  0  0
  2  4  2  0  0  0  0
  2  6  1  0  0  0  0
  3  5  1  0  0  0  0
  3  9  1  0  0  0  0
  4  7  1  0  0  0  0
  4  8  1  0  0  0  0
  5  8  2  0  0  0  0
  5 10  1  0  0  0  0
  1 11  1  0  0  0  0
  6 12  1  0  0  0  0
  6 13  1  0  0  0  0
  6 14  1  0  0  0  0
  7 15  1  0  0  0  0
  7 16  1  0  0  0  0
  7 17  1  0  0  0  0
  9 18  1  0  0  0  0
  9 19  1  0  0  0  0
 10 20  1  0  0  0  0
 10 21  1  0  0  0  0
M  END
> <id>
EN300-252023

> <smiles>
CC=1C=C(N)C(N)=NC1C

> <MDLNUMBER>
MFCD13181784

> <IUPAC Name>
5,6-dimethylpyridine-2,3-diamine

> <CAS>
98432-14-5

> <Purity>
95

> <URL>
https://www.enaminestore.com/catalog/EN300-252023

> <MP>
101-103

> <ROCS_ShapeQuery>
_x1140_x0812_0A_x1140_0A_x1097_0A_x0365_0A_x1097_0A_x0310_0A

> <ROCS_TanimotoCombo>
0.611 

> <ROCS_ShapeTanimoto>
0.217 

> <ROCS_ColorTanimoto>
0.395 

> <ROCS_RefTversky>
0.195 

> <ROCS_RefColorTversky>
0.502 

> <ROCS_RefTverskyCombo>
0.696 

> <ROCS_FitTversky>
2.097 

> <ROCS_FitColorTversky>
0.649 

> <ROCS_FitTverskyCombo>
2.745 

> <ROCS_ColorScore>
-3.963

> <ROCS_Overlap>
1992.111

> <ROCS_Rank>
377                 

$$$$
untitled-dbase-440263_4
  -OEChem-02092423213D

 29 29  0     0  0  0  0  0  0999 V2000
    7.4756   10.8308   25.3895 C   0  0  0  0  0  0  0  0  0  0  0  0
    7.6145   12.2112   25.2451 C   0  0  0  0  0  0  0  0  0  0  0  0
    8.3093    9.9678   24.6783 C   0  0  0  0  0  0  0  0  0  0  0  0
    8.5871   12.7286   24.3895 C   0  0  0  0  0  0  0  0  0  0  0  0
    9.2819   10.4851   23.8227 C   0  0  0  0  0  0  0  0  0  0  0  0
    9.4208   11.8656   23.6783 C   0  0  0  0  0  0  0  0  0  0  0  0
   12.5056   17.5787   22.5623 C   0  0  0  0  0  0  0  0  0  0  0  0
   11.6893   14.1098   21.6321 C   0  0  0  0  0  0  0  0  0  0  0  0
   10.5820   13.8117   22.6343 C   0  0  0  0  0  0  0  0  0  0  0  0
   11.9193   15.6030   21.4328 C   0  0  0  0  0  0  0  0  0  0  0  0
   10.1148    9.5929   23.1112 N   0  0  0  0  0  0  0  0  0  0  0  0
   10.3828   12.4018   22.8316 N   0  0  0  0  0  0  0  0  0  0  0  0
   12.2996   16.1772   22.6763 O   0  0  0  0  0  0  0  0  0  0  0  0
    6.7187   10.4281   26.0561 H   0  0  0  0  0  0  0  0  0  0  0  0
    6.9659   12.8831   25.7995 H   0  0  0  0  0  0  0  0  0  0  0  0
    8.1914    8.8939   24.7989 H   0  0  0  0  0  0  0  0  0  0  0  0
    8.6863   13.8061   24.2857 H   0  0  0  0  0  0  0  0  0  0  0  0
   12.7959   17.9853   23.5342 H   0  0  0  0  0  0  0  0  0  0  0  0
   11.5857   18.0561   22.2156 H   0  0  0  0  0  0  0  0  0  0  0  0
   13.3041   17.7630   21.8397 H   0  0  0  0  0  0  0  0  0  0  0  0
   12.6235   13.6494   21.9771 H   0  0  0  0  0  0  0  0  0  0  0  0
   11.4654   13.6443   20.6640 H   0  0  0  0  0  0  0  0  0  0  0  0
   10.8333   14.2379   23.6104 H   0  0  0  0  0  0  0  0  0  0  0  0
    9.6296   14.2417   22.3081 H   0  0  0  0  0  0  0  0  0  0  0  0
   12.7190   15.7884   20.7090 H   0  0  0  0  0  0  0  0  0  0  0  0
   11.0046   16.0957   21.0880 H   0  0  0  0  0  0  0  0  0  0  0  0
   10.0226    8.6112   23.2703 H   0  0  0  0  0  0  0  0  0  0  0  0
   10.8419    9.9629   22.5350 H   0  0  0  0  0  0  0  0  0  0  0  0
   10.9782   11.7533   22.3225 H   0  0  0  0  0  0  0  0  0  0  0  0
  1  2  1  0  0  0  0
  1  3  2  0  0  0  0
  2  4  2  0  0  0  0
  3  5  1  0  0  0  0
  4  6  1  0  0  0  0
  5  6  2  0  0  0  0
  5 11  1  0  0  0  0
  6 12  1  0  0  0  0
  7 13  1  0  0  0  0
  8  9  1  0  0  0  0
  8 10  1  0  0  0  0
  9 12  1  0  0  0  0
 10 13  1  0  0  0  0
  1 14  1  0  0  0  0
  2 15  1  0  0  0  0
  3 16  1  0  0  0  0
  4 17  1  0  0  0  0
  7 18  1  0  0  0  0
  7 19  1  0  0  0  0
  7 20  1  0  0  0  0
  8 21  1  0  0  0  0
  8 22  1  0  0  0  0
  9 23  1  0  0  0  0
  9 24  1  0  0  0  0
 10 25  1  0  0  0  0
 10 26  1  0  0  0  0
 11 27  1  0  0  0  0
 11 28  1  0  0  0  0
 12 29  1  0  0  0  0
M  END
> <id>
EN300-1116478

> <smiles>
COCCCNC=1C=CC=CC1N

> <MDLNUMBER>
MFCD11206536

> <IUPAC Name>
N1-(3-methoxypropyl)benzene-1,2-diamine

> <CAS>
66474-81-5

> <URL>
https://www.enaminestore.com/catalog/EN300-1116478

> <ROCS_ShapeQuery>
_x1140_x0812_0A_x1140_0A_x1097_0A_x0365_0A_x1097_0A_x0310_0A

> <ROCS_TanimotoCombo>
0.611 

> <ROCS_ShapeTanimoto>
0.211 

> <ROCS_ColorTanimoto>
0.400 

> <ROCS_RefTversky>
0.193 

> <ROCS_RefColorTversky>
0.473 

> <ROCS_RefTverskyCombo>
0.665 

> <ROCS_FitTversky>
1.869 

> <ROCS_FitColorTversky>
0.721 

> <ROCS_FitTverskyCombo>
2.590 

> <ROCS_ColorScore>
-3.712

> <ROCS_Overlap>
1972.750

> <ROCS_Rank>
378                 

$$$$
untitled-dbase-394733_1
  -OEChem-02092423213D

 25 26  0     0  0  0  0  0  0999 V2000
    5.8400   12.5702   26.8472 C   0  0  0  0  0  0  0  0  0  0  0  0
    5.7448   11.2125   27.1260 C   0  0  0  0  0  0  0  0  0  0  0  0
    6.7349   13.0111   25.8765 C   0  0  0  0  0  0  0  0  0  0  0  0
    6.5442   10.2992   26.4340 C   0  0  0  0  0  0  0  0  0  0  0  0
    8.4479   12.5088   24.1988 C   0  0  0  0  0  0  0  0  0  0  0  0
    7.5387   12.0923   25.1806 C   0  0  0  0  0  0  0  0  0  0  0  0
    9.2275   11.5767   23.5292 C   0  0  0  0  0  0  0  0  0  0  0  0
    7.4473   10.7123   25.4584 C   0  0  0  0  0  0  0  0  0  0  0  0
    9.0678   10.2488   23.8696 C   0  0  0  0  0  0  0  0  0  0  0  0
   10.1672   12.0260   22.5115 C   0  0  0  0  0  0  0  0  0  0  0  0
   12.0762   13.4009   22.1242 C   0  0  0  0  0  0  0  0  0  0  0  0
    8.2026    9.8055   24.8103 N   0  0  0  0  0  0  0  0  0  0  0  0
    9.8568    9.2833   23.1954 N   0  0  0  0  0  0  0  0  0  0  0  0
   10.1326   11.6755   21.3256 O   0  0  0  0  0  0  0  0  0  0  0  0
   11.0945   12.8868   23.0305 O   0  0  0  0  0  0  0  0  0  0  0  0
    5.2205   13.2830   27.3827 H   0  0  0  0  0  0  0  0  0  0  0  0
    5.0493   10.8595   27.8819 H   0  0  0  0  0  0  0  0  0  0  0  0
    6.8016   14.0763   25.6660 H   0  0  0  0  0  0  0  0  0  0  0  0
    6.4505    9.2409   26.6711 H   0  0  0  0  0  0  0  0  0  0  0  0
    8.5445   13.5662   23.9589 H   0  0  0  0  0  0  0  0  0  0  0  0
   12.7523   14.0715   22.6602 H   0  0  0  0  0  0  0  0  0  0  0  0
   11.5787   13.9393   21.3136 H   0  0  0  0  0  0  0  0  0  0  0  0
   12.6474   12.5673   21.7085 H   0  0  0  0  0  0  0  0  0  0  0  0
   10.4660    9.5843   22.4665 H   0  0  0  0  0  0  0  0  0  0  0  0
    9.7149    8.3185   23.4007 H   0  0  0  0  0  0  0  0  0  0  0  0
  1  2  1  0  0  0  0
  1  3  2  0  0  0  0
  2  4  2  0  0  0  0
  3  6  1  0  0  0  0
  4  8  1  0  0  0  0
  5  6  2  0  0  0  0
  5  7  1  0  0  0  0
  6  8  1  0  0  0  0
  7  9  2  0  0  0  0
  7 10  1  0  0  0  0
  8 12  2  0  0  0  0
  9 12  1  0  0  0  0
  9 13  1  0  0  0  0
 10 14  2  0  0  0  0
 10 15  1  0  0  0  0
 11 15  1  0  0  0  0
  1 16  1  0  0  0  0
  2 17  1  0  0  0  0
  3 18  1  0  0  0  0
  4 19  1  0  0  0  0
  5 20  1  0  0  0  0
 11 21  1  0  0  0  0
 11 22  1  0  0  0  0
 11 23  1  0  0  0  0
 13 24  1  0  0  0  0
 13 25  1  0  0  0  0
M  END
> <id>
EN300-2008328

> <smiles>
COC(=O)C=1C=C2C=CC=CC2=NC1N

> <MDLNUMBER>
MFCD23135820

> <IUPAC Name>
methyl 2-aminoquinoline-3-carboxylate

> <CAS>
75353-50-3

> <URL>
https://www.enaminestore.com/catalog/EN300-2008328

> <ROCS_ShapeQuery>
_x1140_x0812_0A_x1140_0A_x1097_0A_x0365_0A_x1097_0A_x0310_0A

> <ROCS_TanimotoCombo>
0.611 

> <ROCS_ShapeTanimoto>
0.275 

> <ROCS_ColorTanimoto>
0.336 

> <ROCS_RefTversky>
0.240 

> <ROCS_RefColorTversky>
0.447 

> <ROCS_RefTverskyCombo>
0.687 

> <ROCS_FitTversky>
2.069 

> <ROCS_FitColorTversky>
0.577 

> <ROCS_FitTverskyCombo>
2.646 

> <ROCS_ColorScore>
-3.528

> <ROCS_Overlap>
2466.101

> <ROCS_Rank>
379                 

$$$$
untitled-dbase-280082_9
  -OEChem-02092423213D

 21 21  0     1  0  0  0  0  0999 V2000
    9.1854   12.2129   25.1769 C   0  0  0  0  0  0  0  0  0  0  0  0
    9.6568   11.5340   24.0588 C   0  0  0  0  0  0  0  0  0  0  0  0
    8.1453   11.6720   25.9245 C   0  0  0  0  0  0  0  0  0  0  0  0
    9.0589   10.3273   23.7330 C   0  0  0  0  0  0  0  0  0  0  0  0
    7.6150   10.4592   25.5150 C   0  0  0  0  0  0  0  0  0  0  0  0
   11.0099    9.1336   22.6842 C   0  0  0  0  0  0  0  0  0  0  0  0
    9.3558   10.3475   21.2175 C   0  0  0  0  0  0  0  0  0  0  0  0
    9.5471    9.5547   22.5177 C   0  0  2  0  0  0  0  0  0  0  0  0
    8.0465    9.7704   24.4348 N   0  0  0  0  0  0  0  0  0  0  0  0
   10.0544   11.5844   21.3058 O   0  0  0  0  0  0  0  0  0  0  0  0
   10.6572   12.0399   23.3269 F   0  0  0  0  0  0  0  0  0  0  0  0
    7.6721   12.3033   27.0048 F   0  0  0  0  0  0  0  0  0  0  0  0
    6.6103    9.9264   26.2276 F   0  0  0  0  0  0  0  0  0  0  0  0
    9.6275   13.1615   25.4654 H   0  0  0  0  0  0  0  0  0  0  0  0
   11.6559   10.0141   22.7707 H   0  0  0  0  0  0  0  0  0  0  0  0
   11.1610    8.5222   23.5804 H   0  0  0  0  0  0  0  0  0  0  0  0
   11.3516    8.5520   21.8208 H   0  0  0  0  0  0  0  0  0  0  0  0
    8.2955   10.5759   21.0643 H   0  0  0  0  0  0  0  0  0  0  0  0
    9.7201    9.8024   20.3406 H   0  0  0  0  0  0  0  0  0  0  0  0
    8.9486    8.6371   22.4363 H   0  0  0  0  0  0  0  0  0  0  0  0
    9.9056   12.0483   20.4668 H   0  0  0  0  0  0  0  0  0  0  0  0
  1  2  1  0  0  0  0
  1  3  2  0  0  0  0
  2  4  2  0  0  0  0
  2 11  1  0  0  0  0
  3  5  1  0  0  0  0
  3 12  1  0  0  0  0
  4  8  1  0  0  0  0
  4  9  1  0  0  0  0
  5  9  2  0  0  0  0
  5 13  1  0  0  0  0
  6  8  1  1  0  0  0
  7  8  1  0  0  0  0
  7 10  1  0  0  0  0
  1 14  1  0  0  0  0
  6 15  1  0  0  0  0
  6 16  1  0  0  0  0
  6 17  1  0  0  0  0
  7 18  1  0  0  0  0
  7 19  1  0  0  0  0
  8 20  1  0  0  0  0
 10 21  1  0  0  0  0
M  END
> <id>
EN300-6507441

> <smiles>
C[C@H](CO)C=1N=C(F)C(F)=CC1F

> <IUPAC Name>
(2S)-2-(3,5,6-trifluoropyridin-2-yl)propan-1-ol

> <CAS>
2248172-53-2

> <URL>
https://www.enaminestore.com/catalog/EN300-6507441

> <ROCS_ShapeQuery>
_x1140_x0812_0A_x1140_0A_x1097_0A_x0365_0A_x1097_0A_x0310_0A

> <ROCS_TanimotoCombo>
0.611 

> <ROCS_ShapeTanimoto>
0.213 

> <ROCS_ColorTanimoto>
0.398 

> <ROCS_RefTversky>
0.194 

> <ROCS_RefColorTversky>
0.471 

> <ROCS_RefTverskyCombo>
0.665 

> <ROCS_FitTversky>
1.849 

> <ROCS_FitColorTversky>
0.718 

> <ROCS_FitTverskyCombo>
2.567 

> <ROCS_ColorScore>
-3.699

> <ROCS_Overlap>
1991.521

> <ROCS_Rank>
380                 

$$$$
untitled-dbase-490976_3
  -OEChem-02092423213D

 29 30  0     0  0  0  0  0  0999 V2000
    8.4471   12.5092   24.2048 C   0  0  0  0  0  0  0  0  0  0  0  0
    7.4725   10.7283   25.4438 C   0  0  0  0  0  0  0  0  0  0  0  0
    9.2255   11.5744   23.5315 C   0  0  0  0  0  0  0  0  0  0  0  0
    7.5514   12.0864   25.1806 C   0  0  0  0  0  0  0  0  0  0  0  0
    9.0718   10.2392   23.8686 C   0  0  0  0  0  0  0  0  0  0  0  0
   10.1614   12.0278   22.5119 C   0  0  0  0  0  0  0  0  0  0  0  0
   10.8710    7.4829   24.4822 C   0  0  0  0  0  0  0  0  0  0  0  0
   10.6654    7.1345   22.3865 C   0  0  0  0  0  0  0  0  0  0  0  0
    9.8025    7.8580   23.4378 C   0  0  0  0  0  0  0  0  0  0  0  0
   11.2568    6.3037   23.5534 C   0  0  0  0  0  0  0  0  0  0  0  0
   12.0671   13.4065   22.1221 C   0  0  0  0  0  0  0  0  0  0  0  0
    8.2123    9.7905   24.8107 N   0  0  0  0  0  0  0  0  0  0  0  0
    9.8518    9.2924   23.1946 N   0  0  0  0  0  0  0  0  0  0  0  0
   10.1234   11.6804   21.3253 O   0  0  0  0  0  0  0  0  0  0  0  0
   11.0889   12.8885   23.0303 O   0  0  0  0  0  0  0  0  0  0  0  0
    6.7902   12.9634   25.8442 F   0  0  0  0  0  0  0  0  0  0  0  0
   12.5768    6.0291   23.4695 F   0  0  0  0  0  0  0  0  0  0  0  0
   10.6262    5.1344   23.8096 F   0  0  0  0  0  0  0  0  0  0  0  0
    8.5290   13.5689   23.9785 H   0  0  0  0  0  0  0  0  0  0  0  0
    6.7895   10.3474   26.1956 H   0  0  0  0  0  0  0  0  0  0  0  0
   11.6791    8.2114   24.6177 H   0  0  0  0  0  0  0  0  0  0  0  0
   10.4845    7.1945   25.4634 H   0  0  0  0  0  0  0  0  0  0  0  0
   10.1087    6.5588   21.6421 H   0  0  0  0  0  0  0  0  0  0  0  0
   11.4089    7.7558   21.8736 H   0  0  0  0  0  0  0  0  0  0  0  0
    8.8263    7.4921   23.5946 H   0  0  0  0  0  0  0  0  0  0  0  0
   12.7439   14.0766   22.6578 H   0  0  0  0  0  0  0  0  0  0  0  0
   11.5661   13.9463   21.3146 H   0  0  0  0  0  0  0  0  0  0  0  0
   12.6381   12.5749   21.7025 H   0  0  0  0  0  0  0  0  0  0  0  0
   10.4958    9.6598   22.4857 H   0  0  0  0  0  0  0  0  0  0  0  0
  1  3  1  0  0  0  0
  1  4  2  0  0  0  0
  2  4  1  0  0  0  0
  2 12  2  0  0  0  0
  3  5  2  0  0  0  0
  3  6  1  0  0  0  0
  4 16  1  0  0  0  0
  5 12  1  0  0  0  0
  5 13  1  0  0  0  0
  6 14  2  0  0  0  0
  6 15  1  0  0  0  0
  7  9  1  0  0  0  0
  7 10  1  0  0  0  0
  8  9  1  0  0  0  0
  8 10  1  0  0  0  0
  9 13  1  0  0  0  0
 10 17  1  0  0  0  0
 10 18  1  0  0  0  0
 11 15  1  0  0  0  0
  1 19  1  0  0  0  0
  2 20  1  0  0  0  0
  7 21  1  0  0  0  0
  7 22  1  0  0  0  0
  8 23  1  0  0  0  0
  8 24  1  0  0  0  0
  9 25  1  0  0  0  0
 11 26  1  0  0  0  0
 11 27  1  0  0  0  0
 11 28  1  0  0  0  0
 13 29  1  0  0  0  0
M  END
> <id>
EN300-28229708

> <smiles>
COC(=O)C=1C=C(F)C=NC1NC2CC(F)(F)C2

> <IUPAC Name>
methyl 2-[(3,3-difluorocyclobutyl)amino]-5-fluoropyridine-3-carboxylate

> <CAS>
2639454-26-3

> <URL>
https://www.enaminestore.com/catalog/EN300-28229708

> <ROCS_ShapeQuery>
_x1140_x0812_0A_x1140_0A_x1097_0A_x0365_0A_x1097_0A_x0310_0A

> <ROCS_TanimotoCombo>
0.611 

> <ROCS_ShapeTanimoto>
0.239 

> <ROCS_ColorTanimoto>
0.372 

> <ROCS_RefTversky>
0.217 

> <ROCS_RefColorTversky>
0.449 

> <ROCS_RefTverskyCombo>
0.666 

> <ROCS_FitTversky>
1.704 

> <ROCS_FitColorTversky>
0.685 

> <ROCS_FitTverskyCombo>
2.388 

> <ROCS_ColorScore>
-3.526

> <ROCS_Overlap>
2230.708

> <ROCS_Rank>
381                 

$$$$
untitled-dbase-496525_2
  -OEChem-02092423213D

 26 26  0     0  0  0  0  0  0999 V2000
    8.9356   12.5310   24.4948 C   0  0  0  0  0  0  0  0  0  0  0  0
    7.8492   10.6045   25.3695 C   0  0  0  0  0  0  0  0  0  0  0  0
    9.3963   11.7539   23.4379 C   0  0  0  0  0  0  0  0  0  0  0  0
    8.1467   11.9530   25.4832 C   0  0  0  0  0  0  0  0  0  0  0  0
    9.0431   10.4143   23.4159 C   0  0  0  0  0  0  0  0  0  0  0  0
   11.2752    9.3403   23.9584 C   0  0  0  0  0  0  0  0  0  0  0  0
   10.4680    7.4502   22.5143 C   0  0  0  0  0  0  0  0  0  0  0  0
   11.6813    9.3882   21.4750 C   0  0  0  0  0  0  0  0  0  0  0  0
   10.7263    8.9536   22.5858 C   0  0  0  0  0  0  0  0  0  0  0  0
    8.2786    9.8174   24.3577 N   0  0  0  0  0  0  0  0  0  0  0  0
   10.1947   12.3252   22.4313 N   0  0  0  0  0  0  0  0  0  0  0  0
    9.4750    9.6147   22.3940 O   0  0  0  0  0  0  0  0  0  0  0  0
    7.5603   12.8798   26.8017 Cl  0  0  0  0  0  0  0  0  0  0  0  0
    9.1924   13.5868   24.5458 H   0  0  0  0  0  0  0  0  0  0  0  0
    7.2385   10.0946   26.1083 H   0  0  0  0  0  0  0  0  0  0  0  0
   11.4619   10.4187   24.0137 H   0  0  0  0  0  0  0  0  0  0  0  0
   10.5835    9.0655   24.7614 H   0  0  0  0  0  0  0  0  0  0  0  0
   12.2370    8.8500   24.1472 H   0  0  0  0  0  0  0  0  0  0  0  0
   10.0741    7.1683   21.5312 H   0  0  0  0  0  0  0  0  0  0  0  0
    9.7115    7.1488   23.2479 H   0  0  0  0  0  0  0  0  0  0  0  0
   11.3803    6.8742   22.7004 H   0  0  0  0  0  0  0  0  0  0  0  0
   11.2879    9.1109   20.4903 H   0  0  0  0  0  0  0  0  0  0  0  0
   11.8494   10.4699   21.4879 H   0  0  0  0  0  0  0  0  0  0  0  0
   12.6495    8.8841   21.5742 H   0  0  0  0  0  0  0  0  0  0  0  0
   10.3900   13.3077   22.4564 H   0  0  0  0  0  0  0  0  0  0  0  0
   10.4799   11.7638   21.6517 H   0  0  0  0  0  0  0  0  0  0  0  0
  1  3  1  0  0  0  0
  1  4  2  0  0  0  0
  2  4  1  0  0  0  0
  2 10  2  0  0  0  0
  3  5  2  0  0  0  0
  3 11  1  0  0  0  0
  4 13  1  0  0  0  0
  5 10  1  0  0  0  0
  5 12  1  0  0  0  0
  6  9  1  0  0  0  0
  7  9  1  0  0  0  0
  8  9  1  0  0  0  0
  9 12  1  0  0  0  0
  1 14  1  0  0  0  0
  2 15  1  0  0  0  0
  6 16  1  0  0  0  0
  6 17  1  0  0  0  0
  6 18  1  0  0  0  0
  7 19  1  0  0  0  0
  7 20  1  0  0  0  0
  7 21  1  0  0  0  0
  8 22  1  0  0  0  0
  8 23  1  0  0  0  0
  8 24  1  0  0  0  0
 11 25  1  0  0  0  0
 11 26  1  0  0  0  0
M  END
> <id>
EN300-1295546

> <smiles>
CC(C)(C)OC=1N=CC(Cl)=CC1N

> <MDLNUMBER>
MFCD24142942

> <IUPAC Name>
2-(tert-butoxy)-5-chloropyridin-3-amine

> <CAS>
1518462-32-2

> <URL>
https://www.enaminestore.com/catalog/EN300-1295546

> <ROCS_ShapeQuery>
_x1140_x0812_0A_x1140_0A_x1097_0A_x0365_0A_x1097_0A_x0310_0A

> <ROCS_TanimotoCombo>
0.611 

> <ROCS_ShapeTanimoto>
0.212 

> <ROCS_ColorTanimoto>
0.399 

> <ROCS_RefTversky>
0.193 

> <ROCS_RefColorTversky>
0.506 

> <ROCS_RefTverskyCombo>
0.699 

> <ROCS_FitTversky>
1.850 

> <ROCS_FitColorTversky>
0.654 

> <ROCS_FitTverskyCombo>
2.504 

> <ROCS_ColorScore>
-3.997

> <ROCS_Overlap>
1977.660

> <ROCS_Rank>
382                 

$$$$
untitled-dbase-101443_1
  -OEChem-02092423213D

 24 26  0     0  0  0  0  0  0999 V2000
    8.4828   12.5222   24.1575 C   0  0  0  0  0  0  0  0  0  0  0  0
    9.0964   10.2809   23.5816 C   0  0  0  0  0  0  0  0  0  0  0  0
    5.8607   11.3961   26.4372 C   0  0  0  0  0  0  0  0  0  0  0  0
    7.5083   11.9669   25.0025 C   0  0  0  0  0  0  0  0  0  0  0  0
    6.5153   12.4743   25.8817 C   0  0  0  0  0  0  0  0  0  0  0  0
    9.2913   11.6476   23.4338 C   0  0  0  0  0  0  0  0  0  0  0  0
    7.4218   10.5788   25.0548 C   0  0  0  0  0  0  0  0  0  0  0  0
    4.8074   14.4617   25.9545 C   0  0  0  0  0  0  0  0  0  0  0  0
    5.8941   14.8671   25.0084 C   0  0  0  0  0  0  0  0  0  0  0  0
    6.2177   13.9393   26.1665 C   0  0  0  0  0  0  0  0  0  0  0  0
    8.1757    9.6911   24.3790 N   0  0  0  0  0  0  0  0  0  0  0  0
    6.4188   10.2518   25.9290 N   0  0  0  0  0  0  0  0  0  0  0  0
   10.2862   12.1421   22.5709 N   0  0  0  0  0  0  0  0  0  0  0  0
    8.6011   13.5983   24.0729 H   0  0  0  0  0  0  0  0  0  0  0  0
    9.7131    9.5762   23.0283 H   0  0  0  0  0  0  0  0  0  0  0  0
    5.0476   11.3394   27.1479 H   0  0  0  0  0  0  0  0  0  0  0  0
    4.4325   15.2086   26.6436 H   0  0  0  0  0  0  0  0  0  0  0  0
    4.0543   13.7731   25.5907 H   0  0  0  0  0  0  0  0  0  0  0  0
    5.8734   14.4506   24.0084 H   0  0  0  0  0  0  0  0  0  0  0  0
    6.2535   15.8878   25.0585 H   0  0  0  0  0  0  0  0  0  0  0  0
    6.7735   14.3806   26.9945 H   0  0  0  0  0  0  0  0  0  0  0  0
    6.1343    9.3106   26.1625 H   0  0  0  0  0  0  0  0  0  0  0  0
   10.3790   13.1313   22.4434 H   0  0  0  0  0  0  0  0  0  0  0  0
   10.8257   11.4994   22.0236 H   0  0  0  0  0  0  0  0  0  0  0  0
  1  4  1  0  0  0  0
  1  6  2  0  0  0  0
  2  6  1  0  0  0  0
  2 11  2  0  0  0  0
  3  5  2  0  0  0  0
  3 12  1  0  0  0  0
  4  5  1  0  0  0  0
  4  7  2  0  0  0  0
  5 10  1  0  0  0  0
  6 13  1  0  0  0  0
  7 11  1  0  0  0  0
  7 12  1  0  0  0  0
  8  9  1  0  0  0  0
  8 10  1  0  0  0  0
  9 10  1  0  0  0  0
  1 14  1  0  0  0  0
  2 15  1  0  0  0  0
  3 16  1  0  0  0  0
  8 17  1  0  0  0  0
  8 18  1  0  0  0  0
  9 19  1  0  0  0  0
  9 20  1  0  0  0  0
 10 21  1  0  0  0  0
 12 22  1  0  0  0  0
 13 23  1  0  0  0  0
 13 24  1  0  0  0  0
M  END
> <id>
EN300-803662

> <smiles>
NC=1C=NC=2NC=C(C3CC3)C2C1

> <MDLNUMBER>
MFCD31472747

> <IUPAC Name>
3-cyclopropyl-1H-pyrrolo[2,3-b]pyridin-5-amine

> <CAS>
2137705-34-9

> <URL>
https://www.enaminestore.com/catalog/EN300-803662

> <ROCS_ShapeQuery>
_x1140_x0812_0A_x1140_0A_x1097_0A_x0365_0A_x1097_0A_x0310_0A

> <ROCS_TanimotoCombo>
0.611 

> <ROCS_ShapeTanimoto>
0.224 

> <ROCS_ColorTanimoto>
0.387 

> <ROCS_RefTversky>
0.203 

> <ROCS_RefColorTversky>
0.495 

> <ROCS_RefTverskyCombo>
0.698 

> <ROCS_FitTversky>
1.879 

> <ROCS_FitColorTversky>
0.639 

> <ROCS_FitTverskyCombo>
2.518 

> <ROCS_ColorScore>
-3.912

> <ROCS_Overlap>
2077.558

> <ROCS_Rank>
383                 

$$$$
untitled-dbase-168638_8
  -OEChem-02092423213D

 28 29  0     0  0  0  0  0  0999 V2000
    8.6860   12.5787   24.6837 C   0  0  0  0  0  0  0  0  0  0  0  0
    8.9786   10.4906   23.5833 C   0  0  0  0  0  0  0  0  0  0  0  0
    9.3443   11.8198   23.7225 C   0  0  0  0  0  0  0  0  0  0  0  0
    7.6960   11.9935   25.4653 C   0  0  0  0  0  0  0  0  0  0  0  0
    7.4040   10.6566   25.2480 C   0  0  0  0  0  0  0  0  0  0  0  0
   10.6975   12.0319   21.6134 C   0  0  0  0  0  0  0  0  0  0  0  0
   11.9568   13.0647   19.6308 C   0  0  0  0  0  0  0  0  0  0  0  0
   11.5029   14.1979   20.5009 C   0  0  0  0  0  0  0  0  0  0  0  0
   11.8339   12.8796   21.0990 C   0  0  0  0  0  0  0  0  0  0  0  0
    5.8672   13.4181   25.9962 C   0  0  0  0  0  0  0  0  0  0  0  0
    8.0220    9.8873   24.3240 N   0  0  0  0  0  0  0  0  0  0  0  0
    6.3939   10.0597   26.0435 N   0  0  0  0  0  0  0  0  0  0  0  0
   10.3402   12.3781   22.9251 N   0  0  0  0  0  0  0  0  0  0  0  0
   10.1930   11.1633   20.9091 O   0  0  0  0  0  0  0  0  0  0  0  0
    7.0513   12.7325   26.4051 O   0  0  0  0  0  0  0  0  0  0  0  0
    8.9418   13.6257   24.8260 H   0  0  0  0  0  0  0  0  0  0  0  0
    9.4564    9.8475   22.8499 H   0  0  0  0  0  0  0  0  0  0  0  0
   11.2284   12.6175   18.9654 H   0  0  0  0  0  0  0  0  0  0  0  0
   12.9622   13.1074   19.2300 H   0  0  0  0  0  0  0  0  0  0  0  0
   12.2027   15.0039   20.6854 H   0  0  0  0  0  0  0  0  0  0  0  0
   10.4698   14.5127   20.4177 H   0  0  0  0  0  0  0  0  0  0  0  0
   12.7185   12.7813   21.6902 H   0  0  0  0  0  0  0  0  0  0  0  0
    5.4533   13.9694   26.8440 H   0  0  0  0  0  0  0  0  0  0  0  0
    5.1360   12.6951   25.6259 H   0  0  0  0  0  0  0  0  0  0  0  0
    6.1203   14.1190   25.1973 H   0  0  0  0  0  0  0  0  0  0  0  0
    5.9627   10.6020   26.7596 H   0  0  0  0  0  0  0  0  0  0  0  0
    6.2057    9.0875   25.9312 H   0  0  0  0  0  0  0  0  0  0  0  0
   10.8871   13.1416   23.3424 H   0  0  0  0  0  0  0  0  0  0  0  0
  1  3  2  0  0  0  0
  1  4  1  0  0  0  0
  2  3  1  0  0  0  0
  2 11  2  0  0  0  0
  3 13  1  0  0  0  0
  4  5  2  0  0  0  0
  4 15  1  0  0  0  0
  5 11  1  0  0  0  0
  5 12  1  0  0  0  0
  6  9  1  0  0  0  0
  6 13  1  0  0  0  0
  6 14  2  0  0  0  0
  7  8  1  0  0  0  0
  7  9  1  0  0  0  0
  8  9  1  0  0  0  0
 10 15  1  0  0  0  0
  1 16  1  0  0  0  0
  2 17  1  0  0  0  0
  7 18  1  0  0  0  0
  7 19  1  0  0  0  0
  8 20  1  0  0  0  0
  8 21  1  0  0  0  0
  9 22  1  0  0  0  0
 10 23  1  0  0  0  0
 10 24  1  0  0  0  0
 10 25  1  0  0  0  0
 12 26  1  0  0  0  0
 12 27  1  0  0  0  0
 13 28  1  0  0  0  0
M  END
> <id>
EN300-377748

> <smiles>
COC=1C=C(NC(=O)C2CC2)C=NC1N

> <MDLNUMBER>
MFCD30733818

> <IUPAC Name>
N-(6-amino-5-methoxypyridin-3-yl)cyclopropanecarboxamide

> <CAS>
2137564-23-7

> <URL>
https://www.enaminestore.com/catalog/EN300-377748

> <ROCS_ShapeQuery>
_x1140_x0812_0A_x1140_0A_x1097_0A_x0365_0A_x1097_0A_x0310_0A

> <ROCS_TanimotoCombo>
0.611 

> <ROCS_ShapeTanimoto>
0.225 

> <ROCS_ColorTanimoto>
0.386 

> <ROCS_RefTversky>
0.205 

> <ROCS_RefColorTversky>
0.525 

> <ROCS_RefTverskyCombo>
0.730 

> <ROCS_FitTversky>
1.795 

> <ROCS_FitColorTversky>
0.592 

> <ROCS_FitTverskyCombo>
2.386 

> <ROCS_ColorScore>
-4.177

> <ROCS_Overlap>
2099.503

> <ROCS_Rank>
384                 

$$$$
untitled-dbase-144479_8
  -OEChem-02092423213D

 32 32  0     0  0  0  0  0  0999 V2000
    8.4926   12.1046   24.6832 C   0  0  0  0  0  0  0  0  0  0  0  0
    9.0802   11.6009   23.5485 C   0  0  0  0  0  0  0  0  0  0  0  0
    7.9403   10.9787   25.3228 C   0  0  0  0  0  0  0  0  0  0  0  0
    9.7909   12.3001   22.5254 C   0  0  0  0  0  0  0  0  0  0  0  0
    7.1908   10.9451   26.5900 C   0  0  0  0  0  0  0  0  0  0  0  0
   10.5452   13.5563   22.9036 C   0  0  0  0  0  0  0  0  0  0  0  0
   11.6436   10.0699   22.4038 C   0  0  0  0  0  0  0  0  0  0  0  0
   11.1239    8.2493   24.0306 C   0  0  0  0  0  0  0  0  0  0  0  0
   11.0923    7.7830   21.5691 C   0  0  0  0  0  0  0  0  0  0  0  0
    9.2805    9.2746   22.5849 C   0  0  0  0  0  0  0  0  0  0  0  0
   10.7662    8.8262   22.6507 C   0  0  0  0  0  0  0  0  0  0  0  0
    8.1573    9.8454   24.6502 N   0  0  0  0  0  0  0  0  0  0  0  0
    8.8525   10.2565   23.5761 N   0  0  0  0  0  0  0  0  0  0  0  0
    9.8506   11.9750   21.3222 O   0  0  0  0  0  0  0  0  0  0  0  0
    8.4675   13.1370   25.0020 H   0  0  0  0  0  0  0  0  0  0  0  0
    6.1082   11.0738   26.4188 H   0  0  0  0  0  0  0  0  0  0  0  0
    7.3304    9.9928   27.1322 H   0  0  0  0  0  0  0  0  0  0  0  0
    7.5137   11.7392   27.2869 H   0  0  0  0  0  0  0  0  0  0  0  0
   11.5868   13.3663   23.2072 H   0  0  0  0  0  0  0  0  0  0  0  0
   10.0610   14.1175   23.7178 H   0  0  0  0  0  0  0  0  0  0  0  0
   10.6407   14.2890   22.0825 H   0  0  0  0  0  0  0  0  0  0  0  0
   11.4259   10.5202   21.4286 H   0  0  0  0  0  0  0  0  0  0  0  0
   12.7095    9.8155   22.4215 H   0  0  0  0  0  0  0  0  0  0  0  0
   11.4718   10.8336   23.1708 H   0  0  0  0  0  0  0  0  0  0  0  0
   10.5252    7.3595   24.2551 H   0  0  0  0  0  0  0  0  0  0  0  0
   10.9374    8.9822   24.8242 H   0  0  0  0  0  0  0  0  0  0  0  0
   12.1815    7.9720   24.0917 H   0  0  0  0  0  0  0  0  0  0  0  0
   10.4923    6.8757   21.7006 H   0  0  0  0  0  0  0  0  0  0  0  0
   10.8825    8.1758   20.5674 H   0  0  0  0  0  0  0  0  0  0  0  0
   12.1492    7.4975   21.5873 H   0  0  0  0  0  0  0  0  0  0  0  0
    9.0573    9.7019   21.5980 H   0  0  0  0  0  0  0  0  0  0  0  0
    8.6174    8.4056   22.6923 H   0  0  0  0  0  0  0  0  0  0  0  0
  1  2  2  0  0  0  0
  1  3  1  0  0  0  0
  2  4  1  0  0  0  0
  2 13  1  0  0  0  0
  3  5  1  0  0  0  0
  3 12  2  0  0  0  0
  4  6  1  0  0  0  0
  4 14  2  0  0  0  0
  7 11  1  0  0  0  0
  8 11  1  0  0  0  0
  9 11  1  0  0  0  0
 10 11  1  0  0  0  0
 10 13  1  0  0  0  0
 12 13  1  0  0  0  0
  1 15  1  0  0  0  0
  5 16  1  0  0  0  0
  5 17  1  0  0  0  0
  5 18  1  0  0  0  0
  6 19  1  0  0  0  0
  6 20  1  0  0  0  0
  6 21  1  0  0  0  0
  7 22  1  0  0  0  0
  7 23  1  0  0  0  0
  7 24  1  0  0  0  0
  8 25  1  0  0  0  0
  8 26  1  0  0  0  0
  8 27  1  0  0  0  0
  9 28  1  0  0  0  0
  9 29  1  0  0  0  0
  9 30  1  0  0  0  0
 10 31  1  0  0  0  0
 10 32  1  0  0  0  0
M  END
> <id>
EN300-1617353

> <smiles>
CC(=O)C1=CC(C)=NN1CC(C)(C)C

> <IUPAC Name>
1-[1-(2,2-dimethylpropyl)-3-methyl-1H-pyrazol-5-yl]ethan-1-one

> <CAS>
2172161-61-2

> <URL>
https://www.enaminestore.com/catalog/EN300-1617353

> <ROCS_ShapeQuery>
_x1140_x0812_0A_x1140_0A_x1097_0A_x0365_0A_x1097_0A_x0310_0A

> <ROCS_TanimotoCombo>
0.611 

> <ROCS_ShapeTanimoto>
0.222 

> <ROCS_ColorTanimoto>
0.388 

> <ROCS_RefTversky>
0.202 

> <ROCS_RefColorTversky>
0.430 

> <ROCS_RefTverskyCombo>
0.632 

> <ROCS_FitTversky>
1.862 

> <ROCS_FitColorTversky>
0.799 

> <ROCS_FitTverskyCombo>
2.661 

> <ROCS_ColorScore>
-3.357

> <ROCS_Overlap>
2067.260

> <ROCS_Rank>
385                 

$$$$
untitled-dbase-502307_9
  -OEChem-02092423213D

 32 33  0     0  0  0  0  0  0999 V2000
    7.4533   14.4539   25.4669 C   0  0  0  0  0  0  0  0  0  0  0  0
    7.2440   13.1706   25.9805 C   0  0  0  0  0  0  0  0  0  0  0  0
    8.1381   14.6368   24.2680 C   0  0  0  0  0  0  0  0  0  0  0  0
    7.7300   10.6707   25.4455 C   0  0  0  0  0  0  0  0  0  0  0  0
    7.7368   12.0647   25.2656 C   0  0  0  0  0  0  0  0  0  0  0  0
    8.6344   13.5466   23.5449 C   0  0  0  0  0  0  0  0  0  0  0  0
    8.4201   12.2617   24.0667 C   0  0  0  0  0  0  0  0  0  0  0  0
    9.4660   10.6434   22.4606 C   0  0  0  0  0  0  0  0  0  0  0  0
   11.6552    9.2775   23.6374 C   0  0  0  0  0  0  0  0  0  0  0  0
   10.9059    7.2972   22.2861 C   0  0  0  0  0  0  0  0  0  0  0  0
   11.6430    9.3979   21.1235 C   0  0  0  0  0  0  0  0  0  0  0  0
   10.9530    8.8219   22.3591 C   0  0  0  0  0  0  0  0  0  0  0  0
   10.4858   15.8411   22.2792 N   0  5  0  0  0  0  0  0  0  0  0  0
    8.3470   10.0182   24.4632 N   0  0  0  0  0  0  0  0  0  0  0  0
    9.3142   13.7531   22.3510 N   0  0  0  0  0  0  0  0  0  0  0  0
    9.9274   14.8463   22.3138 N   0  3  0  0  0  0  0  0  0  0  0  0
    8.7686   10.9941   23.6195 N   0  0  0  0  0  0  0  0  0  0  0  0
    9.8606   11.4925   21.6784 O   0  0  0  0  0  0  0  0  0  0  0  0
    9.6028    9.2939   22.3884 O   0  0  0  0  0  0  0  0  0  0  0  0
    7.0772   15.3167   26.0101 H   0  0  0  0  0  0  0  0  0  0  0  0
    6.7091   13.0378   26.9162 H   0  0  0  0  0  0  0  0  0  0  0  0
    8.2858   15.6477   23.8941 H   0  0  0  0  0  0  0  0  0  0  0  0
    7.2989   10.1007   26.2563 H   0  0  0  0  0  0  0  0  0  0  0  0
   11.6911   10.3713   23.6936 H   0  0  0  0  0  0  0  0  0  0  0  0
   11.1495    8.8997   24.5320 H   0  0  0  0  0  0  0  0  0  0  0  0
   12.6954    8.9327   23.6563 H   0  0  0  0  0  0  0  0  0  0  0  0
   10.4029    6.9658   21.3704 H   0  0  0  0  0  0  0  0  0  0  0  0
   10.3295    6.8840   23.1217 H   0  0  0  0  0  0  0  0  0  0  0  0
   11.9095    6.8605   22.3077 H   0  0  0  0  0  0  0  0  0  0  0  0
   11.1395    9.0713   20.2064 H   0  0  0  0  0  0  0  0  0  0  0  0
   11.6533   10.4926   21.1409 H   0  0  0  0  0  0  0  0  0  0  0  0
   12.6768    9.0410   21.0525 H   0  0  0  0  0  0  0  0  0  0  0  0
  1  2  2  0  0  0  0
  1  3  1  0  0  0  0
  2  5  1  0  0  0  0
  3  6  2  0  0  0  0
  4  5  1  0  0  0  0
  4 14  2  0  0  0  0
  5  7  2  0  0  0  0
  6  7  1  0  0  0  0
  6 15  1  0  0  0  0
  7 17  1  0  0  0  0
  8 17  1  0  0  0  0
  8 18  2  0  0  0  0
  8 19  1  0  0  0  0
  9 12  1  0  0  0  0
 10 12  1  0  0  0  0
 11 12  1  0  0  0  0
 12 19  1  0  0  0  0
 13 16  2  0  0  0  0
 14 17  1  0  0  0  0
 15 16  2  0  0  0  0
  1 20  1  0  0  0  0
  2 21  1  0  0  0  0
  3 22  1  0  0  0  0
  4 23  1  0  0  0  0
  9 24  1  0  0  0  0
  9 25  1  0  0  0  0
  9 26  1  0  0  0  0
 10 27  1  0  0  0  0
 10 28  1  0  0  0  0
 10 29  1  0  0  0  0
 11 30  1  0  0  0  0
 11 31  1  0  0  0  0
 11 32  1  0  0  0  0
M  CHG  2  13  -1  16   1
M  END
> <id>
EN300-28262930

> <smiles>
CC(C)(C)OC(=O)N1N=CC=2C=CC=C(N=[N+]=[N-])C12

> <IUPAC Name>
tert-butyl 7-azido-1H-indazole-1-carboxylate

> <CAS>
2680837-59-4

> <URL>
https://www.enaminestore.com/catalog/EN300-28262930

> <ROCS_ShapeQuery>
_x1140_x0812_0A_x1140_0A_x1097_0A_x0365_0A_x1097_0A_x0310_0A

> <ROCS_TanimotoCombo>
0.611 

> <ROCS_ShapeTanimoto>
0.241 

> <ROCS_ColorTanimoto>
0.370 

> <ROCS_RefTversky>
0.220 

> <ROCS_RefColorTversky>
0.447 

> <ROCS_RefTverskyCombo>
0.668 

> <ROCS_FitTversky>
1.643 

> <ROCS_FitColorTversky>
0.680 

> <ROCS_FitTverskyCombo>
2.323 

> <ROCS_ColorScore>
-3.513

> <ROCS_Overlap>
2261.882

> <ROCS_Rank>
386                 

$$$$
untitled-dbase-252303_4
  -OEChem-02092423213D

 25 25  0     0  0  0  0  0  0999 V2000
    8.8552   12.3615   25.1181 C   0  0  0  0  0  0  0  0  0  0  0  0
    9.7328   11.7290   24.2445 C   0  0  0  0  0  0  0  0  0  0  0  0
    7.5063   10.4028   25.0987 C   0  0  0  0  0  0  0  0  0  0  0  0
    7.7184   11.6927   25.5581 C   0  0  0  0  0  0  0  0  0  0  0  0
    9.4306   10.4374   23.8441 C   0  0  0  0  0  0  0  0  0  0  0  0
   10.5058   10.4662   21.5596 C   0  0  0  0  0  0  0  0  0  0  0  0
   11.8188    9.5452   23.3984 C   0  0  0  0  0  0  0  0  0  0  0  0
    9.8218    8.3022   22.5781 C   0  0  0  0  0  0  0  0  0  0  0  0
    6.7602   12.3420   26.4923 C   0  0  0  0  0  0  0  0  0  0  0  0
   10.3756    9.7087   22.8818 C   0  0  0  0  0  0  0  0  0  0  0  0
    8.3360    9.7556   24.2500 N   0  0  0  0  0  0  0  0  0  0  0  0
    9.9308   11.5194   21.2992 O   0  0  0  0  0  0  0  0  0  0  0  0
    7.1141   13.6139   26.8492 F   0  0  0  0  0  0  0  0  0  0  0  0
    5.4934   12.4566   25.9902 F   0  0  0  0  0  0  0  0  0  0  0  0
    6.6237   11.6602   27.6686 F   0  0  0  0  0  0  0  0  0  0  0  0
    9.0647   13.3744   25.4507 H   0  0  0  0  0  0  0  0  0  0  0  0
   10.6231   12.2398   23.8938 H   0  0  0  0  0  0  0  0  0  0  0  0
    6.6364    9.8314   25.4076 H   0  0  0  0  0  0  0  0  0  0  0  0
   11.2251   10.0415   20.8364 H   0  0  0  0  0  0  0  0  0  0  0  0
   12.4511    9.0191   22.6740 H   0  0  0  0  0  0  0  0  0  0  0  0
   12.2845   10.5197   23.5911 H   0  0  0  0  0  0  0  0  0  0  0  0
   11.8469    8.9915   24.3446 H   0  0  0  0  0  0  0  0  0  0  0  0
   10.4790    7.7569   21.8907 H   0  0  0  0  0  0  0  0  0  0  0  0
    9.7121    7.6978   23.4858 H   0  0  0  0  0  0  0  0  0  0  0  0
    8.8276    8.3559   22.1183 H   0  0  0  0  0  0  0  0  0  0  0  0
  1  2  2  0  0  0  0
  1  4  1  0  0  0  0
  2  5  1  0  0  0  0
  3  4  2  0  0  0  0
  3 11  1  0  0  0  0
  4  9  1  0  0  0  0
  5 10  1  0  0  0  0
  5 11  2  0  0  0  0
  6 10  1  0  0  0  0
  6 12  2  0  0  0  0
  7 10  1  0  0  0  0
  8 10  1  0  0  0  0
  9 13  1  0  0  0  0
  9 14  1  0  0  0  0
  9 15  1  0  0  0  0
  1 16  1  0  0  0  0
  2 17  1  0  0  0  0
  3 18  1  0  0  0  0
  6 19  1  0  0  0  0
  7 20  1  0  0  0  0
  7 21  1  0  0  0  0
  7 22  1  0  0  0  0
  8 23  1  0  0  0  0
  8 24  1  0  0  0  0
  8 25  1  0  0  0  0
M  END
> <id>
EN300-1941383

> <smiles>
CC(C)(C=O)C=1C=CC(=CN1)C(F)(F)F

> <IUPAC Name>
2-methyl-2-[5-(trifluoromethyl)pyridin-2-yl]propanal

> <CAS>
2228704-05-8

> <URL>
https://www.enaminestore.com/catalog/EN300-1941383

> <ROCS_ShapeQuery>
_x1140_x0812_0A_x1140_0A_x1097_0A_x0365_0A_x1097_0A_x0310_0A

> <ROCS_TanimotoCombo>
0.611 

> <ROCS_ShapeTanimoto>
0.226 

> <ROCS_ColorTanimoto>
0.385 

> <ROCS_RefTversky>
0.205 

> <ROCS_RefColorTversky>
0.427 

> <ROCS_RefTverskyCombo>
0.633 

> <ROCS_FitTversky>
1.805 

> <ROCS_FitColorTversky>
0.794 

> <ROCS_FitTverskyCombo>
2.598 

> <ROCS_ColorScore>
-3.333

> <ROCS_Overlap>
2105.899

> <ROCS_Rank>
387                 

$$$$
untitled-dbase-502872_7
  -OEChem-02092423213D

 33 34  0     0  0  0  0  0  0999 V2000
   15.3528   15.3127   19.0336 C   0  0  0  0  0  0  0  0  0  0  0  0
   15.5572   13.9860   18.6544 C   0  0  0  0  0  0  0  0  0  0  0  0
   14.2022   15.6675   19.7378 C   0  0  0  0  0  0  0  0  0  0  0  0
   14.6109   13.0141   18.9793 C   0  0  0  0  0  0  0  0  0  0  0  0
   13.2559   14.6955   20.0628 C   0  0  0  0  0  0  0  0  0  0  0  0
   13.4602   13.3689   19.6835 C   0  0  0  0  0  0  0  0  0  0  0  0
    9.2804   11.7607   23.6746 C   0  0  0  0  0  0  0  0  0  0  0  0
    8.4216   12.5317   24.4311 C   0  0  0  0  0  0  0  0  0  0  0  0
    9.0840   10.3971   23.7524 C   0  0  0  0  0  0  0  0  0  0  0  0
    7.3527   10.6781   25.1984 C   0  0  0  0  0  0  0  0  0  0  0  0
   10.8270   11.8309   21.6963 C   0  0  0  0  0  0  0  0  0  0  0  0
    8.5356   14.0214   24.4287 C   0  0  0  0  0  0  0  0  0  0  0  0
   12.4479   12.3302   20.0310 C   0  0  0  0  0  0  0  0  0  0  0  0
    7.4429   12.0217   25.2073 N   0  0  0  0  0  0  0  0  0  0  0  0
    8.1264    9.8194   24.5072 N   0  0  0  0  0  0  0  0  0  0  0  0
   10.2964   12.3268   22.8713 N   0  0  0  0  0  0  0  0  0  0  0  0
   10.5227   10.7973   21.1135 O   0  0  0  0  0  0  0  0  0  0  0  0
    9.8866    9.5474   23.0365 O   0  0  0  0  0  0  0  0  0  0  0  0
    6.3658   10.1232   25.9796 O   0  0  0  0  0  0  0  0  0  0  0  0
   11.7943   12.6938   21.2408 O   0  0  0  0  0  0  0  0  0  0  0  0
   16.0904   16.0691   18.7817 H   0  0  0  0  0  0  0  0  0  0  0  0
   16.4535   13.7094   18.1069 H   0  0  0  0  0  0  0  0  0  0  0  0
   14.0433   16.7000   20.0342 H   0  0  0  0  0  0  0  0  0  0  0  0
   14.7784   11.9830   18.6795 H   0  0  0  0  0  0  0  0  0  0  0  0
   12.3624   14.9812   20.6115 H   0  0  0  0  0  0  0  0  0  0  0  0
    7.9106   14.4484   23.6361 H   0  0  0  0  0  0  0  0  0  0  0  0
    8.2191   14.4442   25.3900 H   0  0  0  0  0  0  0  0  0  0  0  0
    9.5729   14.3387   24.2659 H   0  0  0  0  0  0  0  0  0  0  0  0
   11.6917   12.2273   19.2408 H   0  0  0  0  0  0  0  0  0  0  0  0
   12.9187   11.3468   20.1659 H   0  0  0  0  0  0  0  0  0  0  0  0
   10.6847   13.2080   23.1989 H   0  0  0  0  0  0  0  0  0  0  0  0
    9.6207    8.6318   23.1995 H   0  0  0  0  0  0  0  0  0  0  0  0
    5.8768   10.8252   26.4272 H   0  0  0  0  0  0  0  0  0  0  0  0
  1  2  1  0  0  0  0
  1  3  2  0  0  0  0
  2  4  2  0  0  0  0
  3  5  1  0  0  0  0
  4  6  1  0  0  0  0
  5  6  2  0  0  0  0
  6 13  1  0  0  0  0
  7  8  2  0  0  0  0
  7  9  1  0  0  0  0
  7 16  1  0  0  0  0
  8 12  1  0  0  0  0
  8 14  1  0  0  0  0
  9 15  2  0  0  0  0
  9 18  1  0  0  0  0
 10 14  2  0  0  0  0
 10 15  1  0  0  0  0
 10 19  1  0  0  0  0
 11 16  1  0  0  0  0
 11 17  2  0  0  0  0
 11 20  1  0  0  0  0
 13 20  1  0  0  0  0
  1 21  1  0  0  0  0
  2 22  1  0  0  0  0
  3 23  1  0  0  0  0
  4 24  1  0  0  0  0
  5 25  1  0  0  0  0
 12 26  1  0  0  0  0
 12 27  1  0  0  0  0
 12 28  1  0  0  0  0
 13 29  1  0  0  0  0
 13 30  1  0  0  0  0
 16 31  1  0  0  0  0
 18 32  1  0  0  0  0
 19 33  1  0  0  0  0
M  END
> <id>
EN300-28284391

> <smiles>
CC=1N=C(O)N=C(O)C1NC(=O)OCC=2C=CC=CC2

> <IUPAC Name>
benzyl N-(2,4-dihydroxy-6-methylpyrimidin-5-yl)carbamate

> <CAS>
2680739-02-8

> <URL>
https://www.enaminestore.com/catalog/EN300-28284391

> <ROCS_ShapeQuery>
_x1140_x0812_0A_x1140_0A_x1097_0A_x0365_0A_x1097_0A_x0310_0A

> <ROCS_TanimotoCombo>
0.611 

> <ROCS_ShapeTanimoto>
0.231 

> <ROCS_ColorTanimoto>
0.380 

> <ROCS_RefTversky>
0.213 

> <ROCS_RefColorTversky>
0.613 

> <ROCS_RefTverskyCombo>
0.826 

> <ROCS_FitTversky>
1.559 

> <ROCS_FitColorTversky>
0.500 

> <ROCS_FitTverskyCombo>
2.059 

> <ROCS_ColorScore>
-4.968

> <ROCS_Overlap>
2187.137

> <ROCS_Rank>
388                 

$$$$
untitled-dbase-35489_1
  -OEChem-02092423213D

 21 21  0     0  0  0  0  0  0999 V2000
    8.8918   12.5323   24.4542 C   0  0  0  0  0  0  0  0  0  0  0  0
    8.1112   11.9097   25.4218 C   0  0  0  0  0  0  0  0  0  0  0  0
    9.4259   11.7828   23.4119 C   0  0  0  0  0  0  0  0  0  0  0  0
    7.8962   10.5461   25.3030 C   0  0  0  0  0  0  0  0  0  0  0  0
    9.1523   10.4249   23.3831 C   0  0  0  0  0  0  0  0  0  0  0  0
    7.0630    9.8453   26.3234 C   0  0  0  0  0  0  0  0  0  0  0  0
   10.9014    8.7475   22.7400 C   0  0  0  0  0  0  0  0  0  0  0  0
    9.7029    9.5748   22.2853 C   0  0  0  0  0  0  0  0  0  0  0  0
    8.3984    9.7849   24.3050 N   0  0  0  0  0  0  0  0  0  0  0  0
   10.1892   12.3811   22.4620 O   0  0  0  0  0  0  0  0  0  0  0  0
    9.0798   13.6002   24.5182 H   0  0  0  0  0  0  0  0  0  0  0  0
    7.6884   12.4830   26.2399 H   0  0  0  0  0  0  0  0  0  0  0  0
    6.0087    9.8480   26.0218 H   0  0  0  0  0  0  0  0  0  0  0  0
    7.3857    8.8045   26.4536 H   0  0  0  0  0  0  0  0  0  0  0  0
    7.1461   10.3293   27.3050 H   0  0  0  0  0  0  0  0  0  0  0  0
   11.6970    9.3900   23.1323 H   0  0  0  0  0  0  0  0  0  0  0  0
   11.3118    8.1711   21.9050 H   0  0  0  0  0  0  0  0  0  0  0  0
   10.6170    8.0444   23.5302 H   0  0  0  0  0  0  0  0  0  0  0  0
    8.9240    8.8999   21.8977 H   0  0  0  0  0  0  0  0  0  0  0  0
    9.9997   10.2012   21.4297 H   0  0  0  0  0  0  0  0  0  0  0  0
   10.2735   13.3321   22.6429 H   0  0  0  0  0  0  0  0  0  0  0  0
  1  2  2  0  0  0  0
  1  3  1  0  0  0  0
  2  4  1  0  0  0  0
  3  5  2  0  0  0  0
  3 10  1  0  0  0  0
  4  6  1  0  0  0  0
  4  9  2  0  0  0  0
  5  8  1  0  0  0  0
  5  9  1  0  0  0  0
  7  8  1  0  0  0  0
  1 11  1  0  0  0  0
  2 12  1  0  0  0  0
  6 13  1  0  0  0  0
  6 14  1  0  0  0  0
  6 15  1  0  0  0  0
  7 16  1  0  0  0  0
  7 17  1  0  0  0  0
  7 18  1  0  0  0  0
  8 19  1  0  0  0  0
  8 20  1  0  0  0  0
 10 21  1  0  0  0  0
M  END
> <id>
EN300-175629

> <smiles>
Cl.CCC=1N=C(C)C=CC1O

> <MDLNUMBER>
MFCD00460776

> <IUPAC Name>
2-ethyl-6-methylpyridin-3-ol hydrochloride

> <CAS>
13258-59-8

> <URL>
https://www.enaminestore.com/catalog/EN300-175629

> <Saltdate>
Cl

> <ROCS_ShapeQuery>
_x1140_x0812_0A_x1140_0A_x1097_0A_x0365_0A_x1097_0A_x0310_0A

> <ROCS_TanimotoCombo>
0.611 

> <ROCS_ShapeTanimoto>
0.199 

> <ROCS_ColorTanimoto>
0.412 

> <ROCS_RefTversky>
0.181 

> <ROCS_RefColorTversky>
0.483 

> <ROCS_RefTverskyCombo>
0.664 

> <ROCS_FitTversky>
1.960 

> <ROCS_FitColorTversky>
0.737 

> <ROCS_FitTverskyCombo>
2.697 

> <ROCS_ColorScore>
-3.793

> <ROCS_Overlap>
1854.018

> <ROCS_Rank>
389                 

$$$$
untitled-dbase-34985_1
  -OEChem-02092423213D

 21 21  0     0  0  0  0  0  0999 V2000
    8.8918   12.5323   24.4542 C   0  0  0  0  0  0  0  0  0  0  0  0
    8.1112   11.9097   25.4218 C   0  0  0  0  0  0  0  0  0  0  0  0
    9.4259   11.7828   23.4119 C   0  0  0  0  0  0  0  0  0  0  0  0
    7.8962   10.5461   25.3030 C   0  0  0  0  0  0  0  0  0  0  0  0
    9.1523   10.4249   23.3831 C   0  0  0  0  0  0  0  0  0  0  0  0
    7.0630    9.8453   26.3234 C   0  0  0  0  0  0  0  0  0  0  0  0
   10.9014    8.7475   22.7400 C   0  0  0  0  0  0  0  0  0  0  0  0
    9.7029    9.5748   22.2853 C   0  0  0  0  0  0  0  0  0  0  0  0
    8.3984    9.7849   24.3050 N   0  0  0  0  0  0  0  0  0  0  0  0
   10.1892   12.3811   22.4620 O   0  0  0  0  0  0  0  0  0  0  0  0
    9.0798   13.6002   24.5182 H   0  0  0  0  0  0  0  0  0  0  0  0
    7.6884   12.4830   26.2399 H   0  0  0  0  0  0  0  0  0  0  0  0
    6.0087    9.8480   26.0218 H   0  0  0  0  0  0  0  0  0  0  0  0
    7.3857    8.8045   26.4536 H   0  0  0  0  0  0  0  0  0  0  0  0
    7.1461   10.3293   27.3050 H   0  0  0  0  0  0  0  0  0  0  0  0
   11.6970    9.3900   23.1323 H   0  0  0  0  0  0  0  0  0  0  0  0
   11.3118    8.1711   21.9050 H   0  0  0  0  0  0  0  0  0  0  0  0
   10.6170    8.0444   23.5302 H   0  0  0  0  0  0  0  0  0  0  0  0
    8.9240    8.8999   21.8977 H   0  0  0  0  0  0  0  0  0  0  0  0
    9.9997   10.2012   21.4297 H   0  0  0  0  0  0  0  0  0  0  0  0
   10.2735   13.3321   22.6429 H   0  0  0  0  0  0  0  0  0  0  0  0
  1  2  2  0  0  0  0
  1  3  1  0  0  0  0
  2  4  1  0  0  0  0
  3  5  2  0  0  0  0
  3 10  1  0  0  0  0
  4  6  1  0  0  0  0
  4  9  2  0  0  0  0
  5  8  1  0  0  0  0
  5  9  1  0  0  0  0
  7  8  1  0  0  0  0
  1 11  1  0  0  0  0
  2 12  1  0  0  0  0
  6 13  1  0  0  0  0
  6 14  1  0  0  0  0
  6 15  1  0  0  0  0
  7 16  1  0  0  0  0
  7 17  1  0  0  0  0
  7 18  1  0  0  0  0
  8 19  1  0  0  0  0
  8 20  1  0  0  0  0
 10 21  1  0  0  0  0
M  END
> <id>
EN300-175312

> <smiles>
CCC=1N=C(C)C=CC1O

> <MDLNUMBER>
MFCD00462409

> <IUPAC Name>
2-ethyl-6-methylpyridin-3-ol

> <CAS>
2364-75-2

> <Purity>
95

> <URL>
https://www.enaminestore.com/catalog/EN300-175312

> <MP>
169-170

> <ROCS_ShapeQuery>
_x1140_x0812_0A_x1140_0A_x1097_0A_x0365_0A_x1097_0A_x0310_0A

> <ROCS_TanimotoCombo>
0.611 

> <ROCS_ShapeTanimoto>
0.199 

> <ROCS_ColorTanimoto>
0.412 

> <ROCS_RefTversky>
0.181 

> <ROCS_RefColorTversky>
0.483 

> <ROCS_RefTverskyCombo>
0.664 

> <ROCS_FitTversky>
1.960 

> <ROCS_FitColorTversky>
0.737 

> <ROCS_FitTverskyCombo>
2.697 

> <ROCS_ColorScore>
-3.793

> <ROCS_Overlap>
1854.018

> <ROCS_Rank>
390                 

$$$$
untitled-dbase-426285_2
  -OEChem-02092423213D

 29 29  0     0  0  0  0  0  0999 V2000
    8.1493   11.9492   25.4915 C   0  0  0  0  0  0  0  0  0  0  0  0
    7.8516   10.6011   25.3735 C   0  0  0  0  0  0  0  0  0  0  0  0
    8.9371   12.5306   24.5042 C   0  0  0  0  0  0  0  0  0  0  0  0
    9.3966   11.7571   23.4441 C   0  0  0  0  0  0  0  0  0  0  0  0
    9.0432   10.4176   23.4179 C   0  0  0  0  0  0  0  0  0  0  0  0
    9.2737   13.9821   24.6076 C   0  0  0  0  0  0  0  0  0  0  0  0
   11.2753    9.3411   23.9554 C   0  0  0  0  0  0  0  0  0  0  0  0
   10.4659    7.4552   22.5070 C   0  0  0  0  0  0  0  0  0  0  0  0
   11.6792    9.3954   21.4718 C   0  0  0  0  0  0  0  0  0  0  0  0
   10.7250    8.9584   22.5823 C   0  0  0  0  0  0  0  0  0  0  0  0
    8.2798    9.8176   24.3585 N   0  0  0  0  0  0  0  0  0  0  0  0
   10.1949   12.3174   22.4286 N   0  0  0  0  0  0  0  0  0  0  0  0
    9.4739    9.6206   22.3934 O   0  0  0  0  0  0  0  0  0  0  0  0
    7.7753   12.5242   26.3315 H   0  0  0  0  0  0  0  0  0  0  0  0
    7.2412   10.0999   26.1174 H   0  0  0  0  0  0  0  0  0  0  0  0
   10.2046   14.1169   25.1704 H   0  0  0  0  0  0  0  0  0  0  0  0
    9.3970   14.4319   23.6148 H   0  0  0  0  0  0  0  0  0  0  0  0
    8.4753   14.5389   25.1135 H   0  0  0  0  0  0  0  0  0  0  0  0
   11.4625   10.4193   24.0135 H   0  0  0  0  0  0  0  0  0  0  0  0
   10.5842    9.0645   24.7583 H   0  0  0  0  0  0  0  0  0  0  0  0
   12.2371    8.8498   24.1420 H   0  0  0  0  0  0  0  0  0  0  0  0
   10.0710    7.1762   21.5235 H   0  0  0  0  0  0  0  0  0  0  0  0
    9.7100    7.1523   23.2405 H   0  0  0  0  0  0  0  0  0  0  0  0
   11.3781    6.8784   22.6908 H   0  0  0  0  0  0  0  0  0  0  0  0
   11.2847    9.1210   20.4867 H   0  0  0  0  0  0  0  0  0  0  0  0
   11.8478   10.4771   21.4874 H   0  0  0  0  0  0  0  0  0  0  0  0
   12.6472    8.8906   21.5688 H   0  0  0  0  0  0  0  0  0  0  0  0
   10.3951   13.2981   22.4474 H   0  0  0  0  0  0  0  0  0  0  0  0
   10.4722   11.7482   21.6531 H   0  0  0  0  0  0  0  0  0  0  0  0
  1  2  2  0  0  0  0
  1  3  1  0  0  0  0
  2 11  1  0  0  0  0
  3  4  2  0  0  0  0
  3  6  1  0  0  0  0
  4  5  1  0  0  0  0
  4 12  1  0  0  0  0
  5 11  2  0  0  0  0
  5 13  1  0  0  0  0
  7 10  1  0  0  0  0
  8 10  1  0  0  0  0
  9 10  1  0  0  0  0
 10 13  1  0  0  0  0
  1 14  1  0  0  0  0
  2 15  1  0  0  0  0
  6 16  1  0  0  0  0
  6 17  1  0  0  0  0
  6 18  1  0  0  0  0
  7 19  1  0  0  0  0
  7 20  1  0  0  0  0
  7 21  1  0  0  0  0
  8 22  1  0  0  0  0
  8 23  1  0  0  0  0
  8 24  1  0  0  0  0
  9 25  1  0  0  0  0
  9 26  1  0  0  0  0
  9 27  1  0  0  0  0
 12 28  1  0  0  0  0
 12 29  1  0  0  0  0
M  END
> <id>
EN300-1294814

> <smiles>
CC=1C=CN=C(OC(C)(C)C)C1N

> <MDLNUMBER>
MFCD19680011

> <IUPAC Name>
2-(tert-butoxy)-4-methylpyridin-3-amine

> <CAS>
1343351-63-2

> <URL>
https://www.enaminestore.com/catalog/EN300-1294814

> <ROCS_ShapeQuery>
_x1140_x0812_0A_x1140_0A_x1097_0A_x0365_0A_x1097_0A_x0310_0A

> <ROCS_TanimotoCombo>
0.611 

> <ROCS_ShapeTanimoto>
0.210 

> <ROCS_ColorTanimoto>
0.400 

> <ROCS_RefTversky>
0.192 

> <ROCS_RefColorTversky>
0.507 

> <ROCS_RefTverskyCombo>
0.699 

> <ROCS_FitTversky>
1.829 

> <ROCS_FitColorTversky>
0.655 

> <ROCS_FitTverskyCombo>
2.484 

> <ROCS_ColorScore>
-4.004

> <ROCS_Overlap>
1969.086

> <ROCS_Rank>
391                 

$$$$
untitled-dbase-163753_0
  -OEChem-02092423213D

 24 24  0     0  0  0  0  0  0999 V2000
    8.5267   12.5312   24.1388 C   0  0  0  0  0  0  0  0  0  0  0  0
    9.0820   10.2885   23.5743 C   0  0  0  0  0  0  0  0  0  0  0  0
    7.5460   12.0410   24.9939 C   0  0  0  0  0  0  0  0  0  0  0  0
    9.3136   11.6449   23.4118 C   0  0  0  0  0  0  0  0  0  0  0  0
    7.3933   10.6669   25.0854 C   0  0  0  0  0  0  0  0  0  0  0  0
    6.7266   12.9771   25.7513 C   0  0  0  0  0  0  0  0  0  0  0  0
    6.1560    8.7633   26.1203 C   0  0  0  0  0  0  0  0  0  0  0  0
    6.7091   15.1288   26.7778 C   0  0  0  0  0  0  0  0  0  0  0  0
    8.1387    9.7748   24.3952 N   0  0  0  0  0  0  0  0  0  0  0  0
   10.3118   12.1101   22.5404 N   0  0  0  0  0  0  0  0  0  0  0  0
    6.3953   10.1596   25.9550 N   0  0  0  0  0  0  0  0  0  0  0  0
    5.5591   12.7608   26.0980 O   0  0  0  0  0  0  0  0  0  0  0  0
    7.4105   14.1272   26.0332 O   0  0  0  0  0  0  0  0  0  0  0  0
    8.6790   13.6035   24.0378 H   0  0  0  0  0  0  0  0  0  0  0  0
    9.6641    9.5481   23.0339 H   0  0  0  0  0  0  0  0  0  0  0  0
    6.8510    8.1939   25.4855 H   0  0  0  0  0  0  0  0  0  0  0  0
    6.3115    8.4869   27.1736 H   0  0  0  0  0  0  0  0  0  0  0  0
    5.1207    8.5319   25.8295 H   0  0  0  0  0  0  0  0  0  0  0  0
    7.3620   15.9908   26.9352 H   0  0  0  0  0  0  0  0  0  0  0  0
    6.3949   14.7158   27.7397 H   0  0  0  0  0  0  0  0  0  0  0  0
    5.8279   15.4404   26.2120 H   0  0  0  0  0  0  0  0  0  0  0  0
   10.4283   13.0969   22.4047 H   0  0  0  0  0  0  0  0  0  0  0  0
   10.8341   11.4525   21.9920 H   0  0  0  0  0  0  0  0  0  0  0  0
    5.8545   10.8338   26.4566 H   0  0  0  0  0  0  0  0  0  0  0  0
  1  3  1  0  0  0  0
  1  4  2  0  0  0  0
  2  4  1  0  0  0  0
  2  9  2  0  0  0  0
  3  5  2  0  0  0  0
  3  6  1  0  0  0  0
  4 10  1  0  0  0  0
  5  9  1  0  0  0  0
  5 11  1  0  0  0  0
  6 12  2  0  0  0  0
  6 13  1  0  0  0  0
  7 11  1  0  0  0  0
  8 13  1  0  0  0  0
  1 14  1  0  0  0  0
  2 15  1  0  0  0  0
  7 16  1  0  0  0  0
  7 17  1  0  0  0  0
  7 18  1  0  0  0  0
  8 19  1  0  0  0  0
  8 20  1  0  0  0  0
  8 21  1  0  0  0  0
 10 22  1  0  0  0  0
 10 23  1  0  0  0  0
 11 24  1  0  0  0  0
M  END
> <id>
EN300-3126054

> <smiles>
CNC=1N=CC(N)=CC1C(=O)OC

> <MDLNUMBER>
MFCD26719176

> <IUPAC Name>
methyl 5-amino-2-(methylamino)pyridine-3-carboxylate

> <CAS>
1542965-21-8

> <URL>
https://www.enaminestore.com/catalog/EN300-3126054

> <ROCS_ShapeQuery>
_x1140_x0812_0A_x1140_0A_x1097_0A_x0365_0A_x1097_0A_x0310_0A

> <ROCS_TanimotoCombo>
0.611 

> <ROCS_ShapeTanimoto>
0.218 

> <ROCS_ColorTanimoto>
0.392 

> <ROCS_RefTversky>
0.198 

> <ROCS_RefColorTversky>
0.499 

> <ROCS_RefTverskyCombo>
0.697 

> <ROCS_FitTversky>
1.875 

> <ROCS_FitColorTversky>
0.647 

> <ROCS_FitTverskyCombo>
2.522 

> <ROCS_ColorScore>
-3.945

> <ROCS_Overlap>
2029.153

> <ROCS_Rank>
392                 

$$$$
untitled-dbase-111535_3
  -OEChem-02092423213D

 36 37  0     0  0  0  0  0  0999 V2000
    7.6338   12.7707   26.6253 C   0  0  0  0  0  0  0  0  0  0  0  0
    6.7948   12.2226   27.5912 C   0  0  0  0  0  0  0  0  0  0  0  0
    8.9387   12.5117   24.5682 C   0  0  0  0  0  0  0  0  0  0  0  0
    6.8694   10.1102   26.4266 C   0  0  0  0  0  0  0  0  0  0  0  0
    8.0934   11.9855   25.5543 C   0  0  0  0  0  0  0  0  0  0  0  0
    7.7090   10.6325   25.4466 C   0  0  0  0  0  0  0  0  0  0  0  0
    9.3752   11.7104   23.5230 C   0  0  0  0  0  0  0  0  0  0  0  0
    6.4123   10.8907   27.4914 C   0  0  0  0  0  0  0  0  0  0  0  0
    8.9459   10.3988   23.5022 C   0  0  0  0  0  0  0  0  0  0  0  0
   11.5909    9.2558   21.2290 C   0  0  0  0  0  0  0  0  0  0  0  0
   11.5834    9.4957   23.7120 C   0  0  0  0  0  0  0  0  0  0  0  0
   10.8038    7.3624   22.6500 C   0  0  0  0  0  0  0  0  0  0  0  0
    9.3766    9.4788   22.4063 C   0  0  0  0  0  0  0  0  0  0  0  0
   10.8219    8.8951   22.5177 C   0  0  0  0  0  0  0  0  0  0  0  0
    8.1310    9.8524   24.4335 N   0  0  0  0  0  0  0  0  0  0  0  0
   10.8733   13.4389   22.6924 N   0  0  0  0  0  0  0  0  0  0  0  0
   10.2229   12.2348   22.5323 N   0  0  0  0  0  0  0  0  0  0  0  0
    5.2734   10.1341   28.7965 Br  0  0  0  0  0  0  0  0  0  0  0  0
    7.9273   13.8145   26.7128 H   0  0  0  0  0  0  0  0  0  0  0  0
    6.4505   12.8466   28.4114 H   0  0  0  0  0  0  0  0  0  0  0  0
    9.2557   13.5519   24.6193 H   0  0  0  0  0  0  0  0  0  0  0  0
    6.5647    9.0667   26.3559 H   0  0  0  0  0  0  0  0  0  0  0  0
   11.0898    8.8507   20.3426 H   0  0  0  0  0  0  0  0  0  0  0  0
   11.6655   10.3416   21.1000 H   0  0  0  0  0  0  0  0  0  0  0  0
   12.6102    8.8537   21.2504 H   0  0  0  0  0  0  0  0  0  0  0  0
   11.0787    9.2688   24.6577 H   0  0  0  0  0  0  0  0  0  0  0  0
   12.6082    9.1151   23.7734 H   0  0  0  0  0  0  0  0  0  0  0  0
   11.6513   10.5866   23.6267 H   0  0  0  0  0  0  0  0  0  0  0  0
   10.2668    7.0520   23.5540 H   0  0  0  0  0  0  0  0  0  0  0  0
   10.3023    6.8870   21.8008 H   0  0  0  0  0  0  0  0  0  0  0  0
   11.8203    6.9588   22.7147 H   0  0  0  0  0  0  0  0  0  0  0  0
    9.2857    9.9964   21.4336 H   0  0  0  0  0  0  0  0  0  0  0  0
    8.6663    8.6348   22.3333 H   0  0  0  0  0  0  0  0  0  0  0  0
   10.7991   13.9633   21.8219 H   0  0  0  0  0  0  0  0  0  0  0  0
   11.8669   13.2553   22.8260 H   0  0  0  0  0  0  0  0  0  0  0  0
   10.5225   11.6224   21.7839 H   0  0  0  0  0  0  0  0  0  0  0  0
  1  2  2  0  0  0  0
  1  5  1  0  0  0  0
  2  8  1  0  0  0  0
  3  5  2  0  0  0  0
  3  7  1  0  0  0  0
  4  6  1  0  0  0  0
  4  8  2  0  0  0  0
  5  6  1  0  0  0  0
  6 15  2  0  0  0  0
  7  9  2  0  0  0  0
  7 17  1  0  0  0  0
  8 18  1  0  0  0  0
  9 13  1  0  0  0  0
  9 15  1  0  0  0  0
 10 14  1  0  0  0  0
 11 14  1  0  0  0  0
 12 14  1  0  0  0  0
 13 14  1  0  0  0  0
 16 17  1  0  0  0  0
  1 19  1  0  0  0  0
  2 20  1  0  0  0  0
  3 21  1  0  0  0  0
  4 22  1  0  0  0  0
 10 23  1  0  0  0  0
 10 24  1  0  0  0  0
 10 25  1  0  0  0  0
 11 26  1  0  0  0  0
 11 27  1  0  0  0  0
 11 28  1  0  0  0  0
 12 29  1  0  0  0  0
 12 30  1  0  0  0  0
 12 31  1  0  0  0  0
 13 32  1  0  0  0  0
 13 33  1  0  0  0  0
 16 34  1  0  0  0  0
 16 35  1  0  0  0  0
 17 36  1  0  0  0  0
M  END
> <id>
EN300-801767

> <smiles>
CC(C)(C)CC=1N=C2C=C(Br)C=CC2=CC1NN

> <IUPAC Name>
7-bromo-2-(2,2-dimethylpropyl)-3-hydrazinylquinoline

> <CAS>
2138510-33-3

> <URL>
https://www.enaminestore.com/catalog/EN300-801767

> <ROCS_ShapeQuery>
_x1140_x0812_0A_x1140_0A_x1097_0A_x0365_0A_x1097_0A_x0310_0A

> <ROCS_TanimotoCombo>
0.610 

> <ROCS_ShapeTanimoto>
0.253 

> <ROCS_ColorTanimoto>
0.358 

> <ROCS_RefTversky>
0.227 

> <ROCS_RefColorTversky>
0.506 

> <ROCS_RefTverskyCombo>
0.733 

> <ROCS_FitTversky>
1.814 

> <ROCS_FitColorTversky>
0.549 

> <ROCS_FitTverskyCombo>
2.364 

> <ROCS_ColorScore>
-4.031

> <ROCS_Overlap>
2329.963

> <ROCS_Rank>
393                 

$$$$
untitled-dbase-323998_6
  -OEChem-02092423213D

 27 27  0     1  0  0  0  0  0999 V2000
    9.5917   10.7786   22.2714 C   0  0  0  0  0  0  0  0  0  0  0  0
    9.0028   12.2189   24.2819 C   0  0  0  0  0  0  0  0  0  0  0  0
    7.8549   10.1306   23.9297 C   0  0  0  0  0  0  0  0  0  0  0  0
    8.1903   11.8705   25.5306 C   0  0  2  0  0  0  0  0  0  0  0  0
    7.0919   10.9590   24.9601 C   0  0  2  0  0  0  0  0  0  0  0  0
   11.1079    8.8512   22.5740 C   0  0  0  0  0  0  0  0  0  0  0  0
    9.8100    9.3192   21.9619 C   0  0  0  0  0  0  0  0  0  0  0  0
    7.6580   13.0939   26.2592 C   0  0  0  0  0  0  0  0  0  0  0  0
    8.8725   11.0430   23.4229 N   0  0  0  0  0  0  0  0  0  0  0  0
    6.4274   10.1515   25.9699 N   0  0  0  0  0  0  0  0  0  0  0  0
   10.0357   11.6488   21.5206 O   0  0  0  0  0  0  0  0  0  0  0  0
    8.6745   13.8696   26.6734 F   0  0  0  0  0  0  0  0  0  0  0  0
    6.8711   13.8170   25.4441 F   0  0  0  0  0  0  0  0  0  0  0  0
    6.9380   12.7219   27.3315 F   0  0  0  0  0  0  0  0  0  0  0  0
    8.5872   13.0754   23.7396 H   0  0  0  0  0  0  0  0  0  0  0  0
   10.0540   12.4174   24.5101 H   0  0  0  0  0  0  0  0  0  0  0  0
    8.3774    9.2774   24.3788 H   0  0  0  0  0  0  0  0  0  0  0  0
    7.2209    9.7627   23.1166 H   0  0  0  0  0  0  0  0  0  0  0  0
    8.8289   11.2978   26.2175 H   0  0  0  0  0  0  0  0  0  0  0  0
    6.3372   11.5717   24.4408 H   0  0  0  0  0  0  0  0  0  0  0  0
   11.9435    9.4220   22.1575 H   0  0  0  0  0  0  0  0  0  0  0  0
   11.2823    7.7888   22.3724 H   0  0  0  0  0  0  0  0  0  0  0  0
   11.1080    8.9866   23.6606 H   0  0  0  0  0  0  0  0  0  0  0  0
    8.9618    8.7650   22.3613 H   0  0  0  0  0  0  0  0  0  0  0  0
    9.8267    9.2158   20.8778 H   0  0  0  0  0  0  0  0  0  0  0  0
    6.5896    9.1911   25.7668 H   0  0  0  0  0  0  0  0  0  0  0  0
    6.8039   10.3842   26.8610 H   0  0  0  0  0  0  0  0  0  0  0  0
  1  7  1  0  0  0  0
  1  9  1  0  0  0  0
  1 11  2  0  0  0  0
  2  4  1  0  0  0  0
  2  9  1  0  0  0  0
  3  5  1  0  0  0  0
  3  9  1  0  0  0  0
  4  5  1  0  0  0  0
  4  8  1  6  0  0  0
  5 10  1  1  0  0  0
  6  7  1  0  0  0  0
  8 12  1  0  0  0  0
  8 13  1  0  0  0  0
  8 14  1  0  0  0  0
  2 15  1  0  0  0  0
  2 16  1  0  0  0  0
  3 17  1  0  0  0  0
  3 18  1  0  0  0  0
  4 19  1  0  0  0  0
  5 20  1  0  0  0  0
  6 21  1  0  0  0  0
  6 22  1  0  0  0  0
  6 23  1  0  0  0  0
  7 24  1  0  0  0  0
  7 25  1  0  0  0  0
 10 26  1  0  0  0  0
 10 27  1  0  0  0  0
M  END
> <id>
EN300-648591

> <smiles>
CCC(=O)N1C[C@@H](N)[C@@H](C1)C(F)(F)F |&1:6,8,r|

> <MDLNUMBER>
MFCD30833953

> <IUPAC Name>
rac-1-[(3R,4S)-3-amino-4-(trifluoromethyl)pyrrolidin-1-yl]propan-1-one

> <CAS>
2137869-33-9

> <URL>
https://www.enaminestore.com/catalog/EN300-648591

> <ROCS_ShapeQuery>
_x1140_x0812_0A_x1140_0A_x1097_0A_x0365_0A_x1097_0A_x0310_0A

> <ROCS_TanimotoCombo>
0.610 

> <ROCS_ShapeTanimoto>
0.213 

> <ROCS_ColorTanimoto>
0.397 

> <ROCS_RefTversky>
0.195 

> <ROCS_RefColorTversky>
0.470 

> <ROCS_RefTverskyCombo>
0.666 

> <ROCS_FitTversky>
1.791 

> <ROCS_FitColorTversky>
0.717 

> <ROCS_FitTverskyCombo>
2.508 

> <ROCS_ColorScore>
-3.693

> <ROCS_Overlap>
1999.619

> <ROCS_Rank>
394                 

$$$$
untitled-dbase-534749_7
  -OEChem-02092423213D

 27 27  0     0  0  0  0  0  0999 V2000
    9.0335   11.9977   24.9468 C   0  0  0  0  0  0  0  0  0  0  0  0
    7.7442   11.9323   25.4158 C   0  0  0  0  0  0  0  0  0  0  0  0
    7.3896   10.5765   25.2827 C   0  0  0  0  0  0  0  0  0  0  0  0
   12.0549    9.5489   22.0364 C   0  0  0  0  0  0  0  0  0  0  0  0
   10.1931    8.0680   22.7883 C   0  0  0  0  0  0  0  0  0  0  0  0
   10.6788   10.2730   23.9933 C   0  0  0  0  0  0  0  0  0  0  0  0
    9.6691   10.2210   21.6189 C   0  0  0  0  0  0  0  0  0  0  0  0
   10.6243    9.5366   22.6214 C   0  0  0  0  0  0  0  0  0  0  0  0
    8.3740    9.8340   24.7692 N   0  0  0  0  0  0  0  0  0  0  0  0
    9.3599   10.7266   24.5754 N   0  0  0  0  0  0  0  0  0  0  0  0
    6.1667   10.1082   25.6481 N   0  0  0  0  0  0  0  0  0  0  0  0
   10.0629   11.5647   21.3734 O   0  0  0  0  0  0  0  0  0  0  0  0
    6.7994   13.2028   26.0180 Cl  0  0  0  0  0  0  0  0  0  0  0  0
    9.7299   12.8193   24.8475 H   0  0  0  0  0  0  0  0  0  0  0  0
   12.4226   10.5710   21.8926 H   0  0  0  0  0  0  0  0  0  0  0  0
   12.0901    9.0429   21.0648 H   0  0  0  0  0  0  0  0  0  0  0  0
   12.7577    9.0353   22.7025 H   0  0  0  0  0  0  0  0  0  0  0  0
    9.1809    7.9963   23.2017 H   0  0  0  0  0  0  0  0  0  0  0  0
   10.8667    7.5354   23.4699 H   0  0  0  0  0  0  0  0  0  0  0  0
   10.2098    7.5295   21.8350 H   0  0  0  0  0  0  0  0  0  0  0  0
   11.3392   11.1483   23.9181 H   0  0  0  0  0  0  0  0  0  0  0  0
   11.1683    9.6229   24.7327 H   0  0  0  0  0  0  0  0  0  0  0  0
    9.6720    9.6894   20.6602 H   0  0  0  0  0  0  0  0  0  0  0  0
    8.6389   10.2256   21.9900 H   0  0  0  0  0  0  0  0  0  0  0  0
    5.4642   10.7170   26.0818 H   0  0  0  0  0  0  0  0  0  0  0  0
    5.9331    9.1110   25.5918 H   0  0  0  0  0  0  0  0  0  0  0  0
    9.4251   11.9320   20.7403 H   0  0  0  0  0  0  0  0  0  0  0  0
  1  2  2  0  0  0  0
  1 10  1  0  0  0  0
  2  3  1  0  0  0  0
  2 13  1  0  0  0  0
  3  9  2  0  0  0  0
  3 11  1  0  0  0  0
  4  8  1  0  0  0  0
  5  8  1  0  0  0  0
  6  8  1  0  0  0  0
  6 10  1  0  0  0  0
  7  8  1  0  0  0  0
  7 12  1  0  0  0  0
  9 10  1  0  0  0  0
  1 14  1  0  0  0  0
  4 15  1  0  0  0  0
  4 16  1  0  0  0  0
  4 17  1  0  0  0  0
  5 18  1  0  0  0  0
  5 19  1  0  0  0  0
  5 20  1  0  0  0  0
  6 21  1  0  0  0  0
  6 22  1  0  0  0  0
  7 23  1  0  0  0  0
  7 24  1  0  0  0  0
 11 25  1  0  0  0  0
 11 26  1  0  0  0  0
 12 27  1  0  0  0  0
M  END
> <id>
EN300-1110276

> <smiles>
CC(C)(CO)CN1C=C(Cl)C(N)=N1

> <IUPAC Name>
3-(3-amino-4-chloro-1H-pyrazol-1-yl)-2,2-dimethylpropan-1-ol

> <CAS>
2107697-26-5

> <URL>
https://www.enaminestore.com/catalog/EN300-1110276

> <ROCS_ShapeQuery>
_x1140_x0812_0A_x1140_0A_x1097_0A_x0365_0A_x1097_0A_x0310_0A

> <ROCS_TanimotoCombo>
0.610 

> <ROCS_ShapeTanimoto>
0.193 

> <ROCS_ColorTanimoto>
0.417 

> <ROCS_RefTversky>
0.179 

> <ROCS_RefColorTversky>
0.555 

> <ROCS_RefTverskyCombo>
0.734 

> <ROCS_FitTversky>
1.732 

> <ROCS_FitColorTversky>
0.626 

> <ROCS_FitTverskyCombo>
2.358 

> <ROCS_ColorScore>
-4.416

> <ROCS_Overlap>
1831.066

> <ROCS_Rank>
395                 

$$$$
untitled-dbase-558158_9
  -OEChem-02092423213D

 29 29  0     0  0  0  0  0  0999 V2000
    8.5019   12.9257   25.2653 C   0  0  0  0  0  0  0  0  0  0  0  0
    9.1634   12.4748   24.1230 C   0  0  0  0  0  0  0  0  0  0  0  0
    7.5336   12.1257   25.8720 C   0  0  0  0  0  0  0  0  0  0  0  0
    8.8565   11.2240   23.5874 C   0  0  0  0  0  0  0  0  0  0  0  0
    7.2267   10.8748   25.3364 C   0  0  0  0  0  0  0  0  0  0  0  0
    7.8882   10.4240   24.1941 C   0  0  0  0  0  0  0  0  0  0  0  0
    9.5632   10.7477   22.3716 C   0  0  0  0  0  0  0  0  0  0  0  0
   11.7282    9.3612   23.5935 C   0  0  0  0  0  0  0  0  0  0  0  0
   10.8726    7.3397   22.3725 C   0  0  0  0  0  0  0  0  0  0  0  0
   11.6770    9.3355   21.0773 C   0  0  0  0  0  0  0  0  0  0  0  0
   10.9851    8.8626   22.3549 C   0  0  0  0  0  0  0  0  0  0  0  0
    6.2470   10.0683   25.9523 N   0  0  0  0  0  0  0  0  0  0  0  0
    9.9880   11.4979   21.5066 O   0  0  0  0  0  0  0  0  0  0  0  0
    9.6590    9.3922   22.3766 O   0  0  0  0  0  0  0  0  0  0  0  0
    7.5916    9.2214   23.6781 F   0  0  0  0  0  0  0  0  0  0  0  0
    8.7407   13.8998   25.6823 H   0  0  0  0  0  0  0  0  0  0  0  0
    9.9163   13.1066   23.6584 H   0  0  0  0  0  0  0  0  0  0  0  0
    7.0245   12.4872   26.7619 H   0  0  0  0  0  0  0  0  0  0  0  0
   11.8110   10.4539   23.5846 H   0  0  0  0  0  0  0  0  0  0  0  0
   11.2227    9.0583   24.5163 H   0  0  0  0  0  0  0  0  0  0  0  0
   12.7531    8.9737   23.6170 H   0  0  0  0  0  0  0  0  0  0  0  0
   10.3401    6.9775   21.4857 H   0  0  0  0  0  0  0  0  0  0  0  0
   10.2940    7.0010   23.2396 H   0  0  0  0  0  0  0  0  0  0  0  0
   11.8572    6.8622   22.4048 H   0  0  0  0  0  0  0  0  0  0  0  0
   11.1442    8.9780   20.1887 H   0  0  0  0  0  0  0  0  0  0  0  0
   11.7337   10.4278   21.0300 H   0  0  0  0  0  0  0  0  0  0  0  0
   12.6935    8.9309   21.0120 H   0  0  0  0  0  0  0  0  0  0  0  0
    5.8154   10.3847   26.7969 H   0  0  0  0  0  0  0  0  0  0  0  0
    6.0684    9.1545   25.5879 H   0  0  0  0  0  0  0  0  0  0  0  0
  1  2  2  0  0  0  0
  1  3  1  0  0  0  0
  2  4  1  0  0  0  0
  3  5  2  0  0  0  0
  4  6  2  0  0  0  0
  4  7  1  0  0  0  0
  5  6  1  0  0  0  0
  5 12  1  0  0  0  0
  6 15  1  0  0  0  0
  7 13  2  0  0  0  0
  7 14  1  0  0  0  0
  8 11  1  0  0  0  0
  9 11  1  0  0  0  0
 10 11  1  0  0  0  0
 11 14  1  0  0  0  0
  1 16  1  0  0  0  0
  2 17  1  0  0  0  0
  3 18  1  0  0  0  0
  8 19  1  0  0  0  0
  8 20  1  0  0  0  0
  8 21  1  0  0  0  0
  9 22  1  0  0  0  0
  9 23  1  0  0  0  0
  9 24  1  0  0  0  0
 10 25  1  0  0  0  0
 10 26  1  0  0  0  0
 10 27  1  0  0  0  0
 12 28  1  0  0  0  0
 12 29  1  0  0  0  0
M  END
> <id>
EN300-4593969

> <smiles>
CC(C)(C)OC(=O)C=1C=CC=C(N)C1F

> <IUPAC Name>
tert-butyl 3-amino-2-fluorobenzoate

> <CAS>
1859635-95-2

> <URL>
https://www.enaminestore.com/catalog/EN300-4593969

> <ROCS_ShapeQuery>
_x1140_x0812_0A_x1140_0A_x1097_0A_x0365_0A_x1097_0A_x0310_0A

> <ROCS_TanimotoCombo>
0.610 

> <ROCS_ShapeTanimoto>
0.226 

> <ROCS_ColorTanimoto>
0.384 

> <ROCS_RefTversky>
0.205 

> <ROCS_RefColorTversky>
0.460 

> <ROCS_RefTverskyCombo>
0.665 

> <ROCS_FitTversky>
1.805 

> <ROCS_FitColorTversky>
0.701 

> <ROCS_FitTverskyCombo>
2.505 

> <ROCS_ColorScore>
-3.608

> <ROCS_Overlap>
2105.888

> <ROCS_Rank>
396                 

$$$$
untitled-dbase-356693_4
  -OEChem-02092423213D

 28 29  0     0  0  0  0  0  0999 V2000
   11.8898   15.2738   22.2885 C   0  0  0  0  0  0  0  0  0  0  0  0
    6.4255   11.9944   27.5136 C   0  0  0  0  0  0  0  0  0  0  0  0
    6.9055    9.8047   26.6299 C   0  0  0  0  0  0  0  0  0  0  0  0
    8.9417   10.3318   23.6428 C   0  0  0  0  0  0  0  0  0  0  0  0
    7.1161   12.5806   26.5293 C   0  0  0  0  0  0  0  0  0  0  0  0
    9.0871   11.6542   23.5248 C   0  0  0  0  0  0  0  0  0  0  0  0
    6.3132   10.5561   27.5694 C   0  0  0  0  0  0  0  0  0  0  0  0
    7.6802   10.4486   25.5268 C   0  0  0  0  0  0  0  0  0  0  0  0
    8.4528   12.5382   24.5337 C   0  0  0  0  0  0  0  0  0  0  0  0
    9.8721   12.1583   22.3952 C   0  0  0  0  0  0  0  0  0  0  0  0
    5.5235    9.9728   28.6998 C   0  0  0  0  0  0  0  0  0  0  0  0
   11.3481   14.0430   21.7156 C   0  0  0  0  0  0  0  0  0  0  0  0
   12.3219   16.2514   22.7404 N   0  0  0  0  0  0  0  0  0  0  0  0
    8.2446    9.6939   24.6310 N   0  0  0  0  0  0  0  0  0  0  0  0
    7.7487   11.8502   25.5311 N   0  0  0  0  0  0  0  0  0  0  0  0
   10.5135   13.3531   22.6729 N   0  0  0  0  0  0  0  0  0  0  0  0
    8.5740   13.7582   24.4433 O   0  0  0  0  0  0  0  0  0  0  0  0
    9.9222   11.5403   21.3319 O   0  0  0  0  0  0  0  0  0  0  0  0
    5.9426   12.5923   28.2790 H   0  0  0  0  0  0  0  0  0  0  0  0
    6.8451    8.7217   26.6364 H   0  0  0  0  0  0  0  0  0  0  0  0
    9.3944    9.6598   22.9194 H   0  0  0  0  0  0  0  0  0  0  0  0
    7.1998   13.6611   26.4874 H   0  0  0  0  0  0  0  0  0  0  0  0
    4.4804    9.8746   28.4047 H   0  0  0  0  0  0  0  0  0  0  0  0
    5.5944   10.6234   29.5700 H   0  0  0  0  0  0  0  0  0  0  0  0
    5.9217    8.9924   28.9565 H   0  0  0  0  0  0  0  0  0  0  0  0
   10.7354   14.2545   20.8346 H   0  0  0  0  0  0  0  0  0  0  0  0
   12.1494   13.3589   21.4221 H   0  0  0  0  0  0  0  0  0  0  0  0
   10.3918   13.7647   23.5938 H   0  0  0  0  0  0  0  0  0  0  0  0
  1 12  1  0  0  0  0
  1 13  3  0  0  0  0
  2  5  2  0  0  0  0
  2  7  1  0  0  0  0
  3  7  2  0  0  0  0
  3  8  1  0  0  0  0
  4  6  2  0  0  0  0
  4 14  1  0  0  0  0
  5 15  1  0  0  0  0
  6  9  1  0  0  0  0
  6 10  1  0  0  0  0
  7 11  1  0  0  0  0
  8 14  2  0  0  0  0
  8 15  1  0  0  0  0
  9 15  1  0  0  0  0
  9 17  2  0  0  0  0
 10 16  1  0  0  0  0
 10 18  2  0  0  0  0
 12 16  1  0  0  0  0
  2 19  1  0  0  0  0
  3 20  1  0  0  0  0
  4 21  1  0  0  0  0
  5 22  1  0  0  0  0
 11 23  1  0  0  0  0
 11 24  1  0  0  0  0
 11 25  1  0  0  0  0
 12 26  1  0  0  0  0
 12 27  1  0  0  0  0
 16 28  1  0  0  0  0
M  END
> <id>
EN300-26686422

> <smiles>
CC=1C=CN2C(=O)C(=CN=C2C1)C(=O)NCC#N

> <IUPAC Name>
N-(cyanomethyl)-8-methyl-4-oxo-4H-pyrido[1,2-a]pyrimidine-3-carboxamide

> <CAS>
2418717-67-4

> <URL>
https://www.enaminestore.com/catalog/EN300-26686422

> <ROCS_ShapeQuery>
_x1140_x0812_0A_x1140_0A_x1097_0A_x0365_0A_x1097_0A_x0310_0A

> <ROCS_TanimotoCombo>
0.610 

> <ROCS_ShapeTanimoto>
0.248 

> <ROCS_ColorTanimoto>
0.362 

> <ROCS_RefTversky>
0.224 

> <ROCS_RefColorTversky>
0.502 

> <ROCS_RefTverskyCombo>
0.726 

> <ROCS_FitTversky>
1.750 

> <ROCS_FitColorTversky>
0.565 

> <ROCS_FitTverskyCombo>
2.315 

> <ROCS_ColorScore>
-3.987

> <ROCS_Overlap>
2303.637

> <ROCS_Rank>
397                 

$$$$
untitled-dbase-439354_9
  -OEChem-02092423213D

 27 27  0     0  0  0  0  0  0999 V2000
    6.6766    9.9290   26.0482 C   0  0  0  0  0  0  0  0  0  0  0  0
    7.6739   12.0187   25.2480 C   0  0  0  0  0  0  0  0  0  0  0  0
    8.5915   12.6369   24.4058 C   0  0  0  0  0  0  0  0  0  0  0  0
    9.2315   10.4883   23.6116 C   0  0  0  0  0  0  0  0  0  0  0  0
    7.5930   10.6358   25.2154 C   0  0  0  0  0  0  0  0  0  0  0  0
    9.3889   11.8642   23.5689 C   0  0  0  0  0  0  0  0  0  0  0  0
   12.5183   17.6038   22.7522 C   0  0  0  0  0  0  0  0  0  0  0  0
   11.5890   14.2344   21.5910 C   0  0  0  0  0  0  0  0  0  0  0  0
   10.5303   13.8718   22.6240 C   0  0  0  0  0  0  0  0  0  0  0  0
   11.8364   15.7353   21.5005 C   0  0  0  0  0  0  0  0  0  0  0  0
    5.9307    9.3537   26.7262 N   0  0  0  0  0  0  0  0  0  0  0  0
    8.3509    9.8519   24.4162 N   0  0  0  0  0  0  0  0  0  0  0  0
   10.3152   12.4536   22.7176 N   0  0  0  0  0  0  0  0  0  0  0  0
   12.2921   16.2008   22.7639 O   0  0  0  0  0  0  0  0  0  0  0  0
    7.0465   12.6135   25.9040 H   0  0  0  0  0  0  0  0  0  0  0  0
    8.6776   13.7201   24.4105 H   0  0  0  0  0  0  0  0  0  0  0  0
    9.8248    9.8327   22.9813 H   0  0  0  0  0  0  0  0  0  0  0  0
   12.8667   17.9256   23.7367 H   0  0  0  0  0  0  0  0  0  0  0  0
   11.5906   18.1212   22.4951 H   0  0  0  0  0  0  0  0  0  0  0  0
   13.2811   17.8346   22.0049 H   0  0  0  0  0  0  0  0  0  0  0  0
   12.5311   13.7338   21.8471 H   0  0  0  0  0  0  0  0  0  0  0  0
   11.3059   13.8525   20.6020 H   0  0  0  0  0  0  0  0  0  0  0  0
   10.8405   14.2134   23.6164 H   0  0  0  0  0  0  0  0  0  0  0  0
    9.5704   14.3408   22.3852 H   0  0  0  0  0  0  0  0  0  0  0  0
   12.6003   15.9673   20.7520 H   0  0  0  0  0  0  0  0  0  0  0  0
   10.9143   16.2677   21.2462 H   0  0  0  0  0  0  0  0  0  0  0  0
   10.8707   11.8401   22.1267 H   0  0  0  0  0  0  0  0  0  0  0  0
  1  5  1  0  0  0  0
  1 11  3  0  0  0  0
  2  3  2  0  0  0  0
  2  5  1  0  0  0  0
  3  6  1  0  0  0  0
  4  6  2  0  0  0  0
  4 12  1  0  0  0  0
  5 12  2  0  0  0  0
  6 13  1  0  0  0  0
  7 14  1  0  0  0  0
  8  9  1  0  0  0  0
  8 10  1  0  0  0  0
  9 13  1  0  0  0  0
 10 14  1  0  0  0  0
  2 15  1  0  0  0  0
  3 16  1  0  0  0  0
  4 17  1  0  0  0  0
  7 18  1  0  0  0  0
  7 19  1  0  0  0  0
  7 20  1  0  0  0  0
  8 21  1  0  0  0  0
  8 22  1  0  0  0  0
  9 23  1  0  0  0  0
  9 24  1  0  0  0  0
 10 25  1  0  0  0  0
 10 26  1  0  0  0  0
 13 27  1  0  0  0  0
M  END
> <id>
EN300-1274112

> <smiles>
COCCCNC=1C=CC(C#N)=NC1

> <MDLNUMBER>
MFCD23778700

> <IUPAC Name>
5-[(3-methoxypropyl)amino]pyridine-2-carbonitrile

> <CAS>
1545275-09-9

> <URL>
https://www.enaminestore.com/catalog/EN300-1274112

> <ROCS_ShapeQuery>
_x1140_x0812_0A_x1140_0A_x1097_0A_x0365_0A_x1097_0A_x0310_0A

> <ROCS_TanimotoCombo>
0.610 

> <ROCS_ShapeTanimoto>
0.210 

> <ROCS_ColorTanimoto>
0.401 

> <ROCS_RefTversky>
0.192 

> <ROCS_RefColorTversky>
0.474 

> <ROCS_RefTverskyCombo>
0.666 

> <ROCS_FitTversky>
1.786 

> <ROCS_FitColorTversky>
0.722 

> <ROCS_FitTverskyCombo>
2.508 

> <ROCS_ColorScore>
-3.718

> <ROCS_Overlap>
1967.019

> <ROCS_Rank>
398                 

$$$$
untitled-dbase-414602_2
  -OEChem-02092423213D

 26 27  0     0  0  0  0  0  0999 V2000
    6.8441    9.8949   26.3234 C   0  0  0  0  0  0  0  0  0  0  0  0
    6.0469   10.6861   27.1559 C   0  0  0  0  0  0  0  0  0  0  0  0
    8.4906   12.2130   24.1294 C   0  0  0  0  0  0  0  0  0  0  0  0
    7.5968   11.9505   25.2009 C   0  0  0  0  0  0  0  0  0  0  0  0
    7.5984   10.5691   25.3648 C   0  0  0  0  0  0  0  0  0  0  0  0
    6.7878   12.7265   26.0492 C   0  0  0  0  0  0  0  0  0  0  0  0
    6.0174   12.0767   27.0233 C   0  0  0  0  0  0  0  0  0  0  0  0
    8.9708   10.9916   23.7168 C   0  0  0  0  0  0  0  0  0  0  0  0
    9.8901   10.6408   22.6886 C   0  0  0  0  0  0  0  0  0  0  0  0
   12.1023    9.5969   22.0637 C   0  0  0  0  0  0  0  0  0  0  0  0
   10.0916    8.1167   22.3044 C   0  0  0  0  0  0  0  0  0  0  0  0
   10.7941    9.3759   22.8176 C   0  0  0  0  0  0  0  0  0  0  0  0
   10.0484   11.3109   21.6310 O   0  0  0  0  0  0  0  0  0  0  0  0
    8.4358    9.9880   24.4601 O   0  0  0  0  0  0  0  0  0  0  0  0
    6.7563   14.0611   25.9252 F   0  0  0  0  0  0  0  0  0  0  0  0
    5.0157   13.0048   28.0760 Cl  0  0  0  0  0  0  0  0  0  0  0  0
    6.8721    8.8163   26.4200 H   0  0  0  0  0  0  0  0  0  0  0  0
    5.4437   10.1951   27.9168 H   0  0  0  0  0  0  0  0  0  0  0  0
    8.7493   13.1768   23.7133 H   0  0  0  0  0  0  0  0  0  0  0  0
   11.9202    9.7696   20.9970 H   0  0  0  0  0  0  0  0  0  0  0  0
   12.7591    8.7260   22.1600 H   0  0  0  0  0  0  0  0  0  0  0  0
   12.6422   10.4692   22.4455 H   0  0  0  0  0  0  0  0  0  0  0  0
    9.8560    8.2116   21.2392 H   0  0  0  0  0  0  0  0  0  0  0  0
    9.1551    7.9283   22.8411 H   0  0  0  0  0  0  0  0  0  0  0  0
   10.7307    7.2363   22.4333 H   0  0  0  0  0  0  0  0  0  0  0  0
   10.9948    9.2052   23.8801 H   0  0  0  0  0  0  0  0  0  0  0  0
  1  2  2  0  0  0  0
  1  5  1  0  0  0  0
  2  7  1  0  0  0  0
  3  4  1  0  0  0  0
  3  8  2  0  0  0  0
  4  5  2  0  0  0  0
  4  6  1  0  0  0  0
  5 14  1  0  0  0  0
  6  7  2  0  0  0  0
  6 15  1  0  0  0  0
  7 16  1  0  0  0  0
  8  9  1  0  0  0  0
  8 14  1  0  0  0  0
  9 12  1  0  0  0  0
  9 13  2  0  0  0  0
 10 12  1  0  0  0  0
 11 12  1  0  0  0  0
  1 17  1  0  0  0  0
  2 18  1  0  0  0  0
  3 19  1  0  0  0  0
 10 20  1  0  0  0  0
 10 21  1  0  0  0  0
 10 22  1  0  0  0  0
 11 23  1  0  0  0  0
 11 24  1  0  0  0  0
 11 25  1  0  0  0  0
 12 26  1  0  0  0  0
M  END
> <id>
EN300-744880

> <smiles>
CC(C)C(=O)C1=CC=2C(F)=C(Cl)C=CC2O1

> <MDLNUMBER>
MFCD31455949

> <IUPAC Name>
1-(5-chloro-4-fluoro-1-benzofuran-2-yl)-2-methylpropan-1-one

> <CAS>
2138253-76-4

> <URL>
https://www.enaminestore.com/catalog/EN300-744880

> <ROCS_ShapeQuery>
_x1140_x0812_0A_x1140_0A_x1097_0A_x0365_0A_x1097_0A_x0310_0A

> <ROCS_TanimotoCombo>
0.610 

> <ROCS_ShapeTanimoto>
0.242 

> <ROCS_ColorTanimoto>
0.368 

> <ROCS_RefTversky>
0.218 

> <ROCS_RefColorTversky>
0.446 

> <ROCS_RefTverskyCombo>
0.664 

> <ROCS_FitTversky>
1.839 

> <ROCS_FitColorTversky>
0.678 

> <ROCS_FitTverskyCombo>
2.517 

> <ROCS_ColorScore>
-3.503

> <ROCS_Overlap>
2236.561

> <ROCS_Rank>
399                 

$$$$
untitled-dbase-460717_3
  -OEChem-02092423213D

 27 28  0     0  0  0  0  0  0999 V2000
    8.4663   12.7050   26.7691 C   0  0  0  0  0  0  0  0  0  0  0  0
    7.7473   12.2234   27.8593 C   0  0  0  0  0  0  0  0  0  0  0  0
    9.2979   12.3982   24.4853 C   0  0  0  0  0  0  0  0  0  0  0  0
    7.2539   10.2132   26.6185 C   0  0  0  0  0  0  0  0  0  0  0  0
    8.5802   11.9377   25.5974 C   0  0  0  0  0  0  0  0  0  0  0  0
    7.9665   10.6703   25.5133 C   0  0  0  0  0  0  0  0  0  0  0  0
    9.3917   11.6167   23.3428 C   0  0  0  0  0  0  0  0  0  0  0  0
    7.1405   10.9759   27.7835 C   0  0  0  0  0  0  0  0  0  0  0  0
    8.7579   10.3908   23.3545 C   0  0  0  0  0  0  0  0  0  0  0  0
   11.2354    8.8564   22.5558 C   0  0  0  0  0  0  0  0  0  0  0  0
    8.8204    9.5048   22.1537 C   0  0  0  0  0  0  0  0  0  0  0  0
    9.8174    8.3520   22.3402 C   0  0  0  0  0  0  0  0  0  0  0  0
    8.0559    9.9096   24.4059 N   0  0  0  0  0  0  0  0  0  0  0  0
   10.0870   12.0586   22.2649 O   0  0  0  0  0  0  0  0  0  0  0  0
    6.4469   10.5024   28.8271 F   0  0  0  0  0  0  0  0  0  0  0  0
    8.9375   13.6829   26.8390 H   0  0  0  0  0  0  0  0  0  0  0  0
    7.6615   12.8188   28.7628 H   0  0  0  0  0  0  0  0  0  0  0  0
    9.7864   13.3704   24.5098 H   0  0  0  0  0  0  0  0  0  0  0  0
    6.7706    9.2385   26.5854 H   0  0  0  0  0  0  0  0  0  0  0  0
   11.5638    9.4751   21.7145 H   0  0  0  0  0  0  0  0  0  0  0  0
   11.3043    9.4541   23.4704 H   0  0  0  0  0  0  0  0  0  0  0  0
   11.9277    8.0137   22.6479 H   0  0  0  0  0  0  0  0  0  0  0  0
    7.8241    9.0888   21.9299 H   0  0  0  0  0  0  0  0  0  0  0  0
    9.1029   10.0861   21.2603 H   0  0  0  0  0  0  0  0  0  0  0  0
    9.5206    7.7375   23.1989 H   0  0  0  0  0  0  0  0  0  0  0  0
    9.7993    7.6970   21.4607 H   0  0  0  0  0  0  0  0  0  0  0  0
   10.4637   12.9375   22.4393 H   0  0  0  0  0  0  0  0  0  0  0  0
  1  2  2  0  0  0  0
  1  5  1  0  0  0  0
  2  8  1  0  0  0  0
  3  5  2  0  0  0  0
  3  7  1  0  0  0  0
  4  6  1  0  0  0  0
  4  8  2  0  0  0  0
  5  6  1  0  0  0  0
  6 13  2  0  0  0  0
  7  9  2  0  0  0  0
  7 14  1  0  0  0  0
  8 15  1  0  0  0  0
  9 11  1  0  0  0  0
  9 13  1  0  0  0  0
 10 12  1  0  0  0  0
 11 12  1  0  0  0  0
  1 16  1  0  0  0  0
  2 17  1  0  0  0  0
  3 18  1  0  0  0  0
  4 19  1  0  0  0  0
 10 20  1  0  0  0  0
 10 21  1  0  0  0  0
 10 22  1  0  0  0  0
 11 23  1  0  0  0  0
 11 24  1  0  0  0  0
 12 25  1  0  0  0  0
 12 26  1  0  0  0  0
 14 27  1  0  0  0  0
M  END
> <id>
EN300-801181

> <smiles>
CCCC=1N=C2C=C(F)C=CC2=CC1O

> <MDLNUMBER>
MFCD31471822

> <IUPAC Name>
7-fluoro-2-propylquinolin-3-ol

> <CAS>
2137575-32-5

> <URL>
https://www.enaminestore.com/catalog/EN300-801181

> <ROCS_ShapeQuery>
_x1140_x0812_0A_x1140_0A_x1097_0A_x0365_0A_x1097_0A_x0310_0A

> <ROCS_TanimotoCombo>
0.610 

> <ROCS_ShapeTanimoto>
0.202 

> <ROCS_ColorTanimoto>
0.408 

> <ROCS_RefTversky>
0.187 

> <ROCS_RefColorTversky>
0.514 

> <ROCS_RefTverskyCombo>
0.701 

> <ROCS_FitTversky>
1.630 

> <ROCS_FitColorTversky>
0.665 

> <ROCS_FitTverskyCombo>
2.295 

> <ROCS_ColorScore>
-4.061

> <ROCS_Overlap>
1919.950

> <ROCS_Rank>
400                 

$$$$
untitled-dbase-101228_9
  -OEChem-02092423213D

 27 27  0     0  0  0  0  0  0999 V2000
    8.5234   12.4257   24.2875 C   0  0  0  0  0  0  0  0  0  0  0  0
    7.5128   11.9688   25.1261 C   0  0  0  0  0  0  0  0  0  0  0  0
    9.2911   11.5135   23.5721 C   0  0  0  0  0  0  0  0  0  0  0  0
    9.0104   10.1657   23.7290 C   0  0  0  0  0  0  0  0  0  0  0  0
    7.3116   10.6007   25.2132 C   0  0  0  0  0  0  0  0  0  0  0  0
   11.4054   12.7264   23.1151 C   0  0  0  0  0  0  0  0  0  0  0  0
   10.3479   11.9941   22.6963 C   0  0  0  0  0  0  0  0  0  0  0  0
    9.7966    9.1312   22.9897 C   0  0  0  0  0  0  0  0  0  0  0  0
    9.0433   13.6978   20.9289 C   0  0  0  0  0  0  0  0  0  0  0  0
    9.0258   12.1895   20.8013 C   0  0  0  0  0  0  0  0  0  0  0  0
    8.0370    9.6841   24.5340 N   0  0  0  0  0  0  0  0  0  0  0  0
    6.2779   10.1505   26.0716 N   0  0  0  0  0  0  0  0  0  0  0  0
   10.2075   11.6706   21.3509 O   0  0  0  0  0  0  0  0  0  0  0  0
    8.7003   13.4951   24.2029 H   0  0  0  0  0  0  0  0  0  0  0  0
    6.9092   12.6736   25.6885 H   0  0  0  0  0  0  0  0  0  0  0  0
   12.1683   13.0700   22.4237 H   0  0  0  0  0  0  0  0  0  0  0  0
   11.5261   13.0085   24.1557 H   0  0  0  0  0  0  0  0  0  0  0  0
   10.6645    8.8208   23.5819 H   0  0  0  0  0  0  0  0  0  0  0  0
    9.1837    8.2476   22.7757 H   0  0  0  0  0  0  0  0  0  0  0  0
   10.1494    9.5175   22.0259 H   0  0  0  0  0  0  0  0  0  0  0  0
    9.1021   13.9999   21.9783 H   0  0  0  0  0  0  0  0  0  0  0  0
    9.8980   14.1208   20.3908 H   0  0  0  0  0  0  0  0  0  0  0  0
    8.1413   14.1330   20.4860 H   0  0  0  0  0  0  0  0  0  0  0  0
    8.9669   11.8940   19.7494 H   0  0  0  0  0  0  0  0  0  0  0  0
    8.1718   11.7684   21.3401 H   0  0  0  0  0  0  0  0  0  0  0  0
    5.7729   10.8207   26.6095 H   0  0  0  0  0  0  0  0  0  0  0  0
    6.1430    9.1699   26.1889 H   0  0  0  0  0  0  0  0  0  0  0  0
  1  2  2  0  0  0  0
  1  3  1  0  0  0  0
  2  5  1  0  0  0  0
  3  4  2  0  0  0  0
  3  7  1  0  0  0  0
  4  8  1  0  0  0  0
  4 11  1  0  0  0  0
  5 11  2  0  0  0  0
  5 12  1  0  0  0  0
  6  7  2  0  0  0  0
  7 13  1  0  0  0  0
  9 10  1  0  0  0  0
 10 13  1  0  0  0  0
  1 14  1  0  0  0  0
  2 15  1  0  0  0  0
  6 16  1  0  0  0  0
  6 17  1  0  0  0  0
  8 18  1  0  0  0  0
  8 19  1  0  0  0  0
  8 20  1  0  0  0  0
  9 21  1  0  0  0  0
  9 22  1  0  0  0  0
  9 23  1  0  0  0  0
 10 24  1  0  0  0  0
 10 25  1  0  0  0  0
 12 26  1  0  0  0  0
 12 27  1  0  0  0  0
M  END
> <id>
EN300-803091

> <smiles>
CCOC(=C)C=1C=CC(N)=NC1C

> <MDLNUMBER>
MFCD31472295

> <IUPAC Name>
5-(1-ethoxyethenyl)-6-methylpyridin-2-amine

> <CAS>
2137647-57-3

> <URL>
https://www.enaminestore.com/catalog/EN300-803091

> <ROCS_ShapeQuery>
_x1140_x0812_0A_x1140_0A_x1097_0A_x0365_0A_x1097_0A_x0310_0A

> <ROCS_TanimotoCombo>
0.610 

> <ROCS_ShapeTanimoto>
0.235 

> <ROCS_ColorTanimoto>
0.375 

> <ROCS_RefTversky>
0.210 

> <ROCS_RefColorTversky>
0.452 

> <ROCS_RefTverskyCombo>
0.662 

> <ROCS_FitTversky>
2.009 

> <ROCS_FitColorTversky>
0.688 

> <ROCS_FitTverskyCombo>
2.697 

> <ROCS_ColorScore>
-3.549

> <ROCS_Overlap>
2152.324

> <ROCS_Rank>
401                 

$$$$
untitled-dbase-474900_0
  -OEChem-02092423213D

 22 22  0     0  0  0  0  0  0999 V2000
    8.3105   12.4284   23.9793 C   0  0  0  0  0  0  0  0  0  0  0  0
    7.3544   11.9120   24.8467 C   0  0  0  0  0  0  0  0  0  0  0  0
    9.2375   11.5768   23.3887 C   0  0  0  0  0  0  0  0  0  0  0  0
    7.3676   10.5478   25.0887 C   0  0  0  0  0  0  0  0  0  0  0  0
    9.1665   10.2276   23.6960 C   0  0  0  0  0  0  0  0  0  0  0  0
   10.2285   12.1432   22.4842 C   0  0  0  0  0  0  0  0  0  0  0  0
   12.7704   14.6989   23.1895 C   0  0  0  0  0  0  0  0  0  0  0  0
   12.0210   13.7072   22.3254 C   0  0  0  0  0  0  0  0  0  0  0  0
    8.2521    9.6892   24.5337 N   0  0  0  0  0  0  0  0  0  0  0  0
    6.3869   10.0365   25.9742 N   0  0  0  0  0  0  0  0  0  0  0  0
   10.3523   11.8238   21.2956 O   0  0  0  0  0  0  0  0  0  0  0  0
   11.0065   13.0754   23.1134 O   0  0  0  0  0  0  0  0  0  0  0  0
   10.4035    8.9977   22.9257 Br  0  0  0  0  0  0  0  0  0  0  0  0
    8.3227   13.4952   23.7720 H   0  0  0  0  0  0  0  0  0  0  0  0
    6.6271   12.5692   25.3121 H   0  0  0  0  0  0  0  0  0  0  0  0
   12.0963   15.4696   23.5733 H   0  0  0  0  0  0  0  0  0  0  0  0
   13.2459   14.1917   24.0354 H   0  0  0  0  0  0  0  0  0  0  0  0
   13.5699   15.1818   22.6178 H   0  0  0  0  0  0  0  0  0  0  0  0
   12.7010   12.9393   21.9447 H   0  0  0  0  0  0  0  0  0  0  0  0
   11.5460   14.2157   21.4811 H   0  0  0  0  0  0  0  0  0  0  0  0
    5.7632   10.6728   26.4212 H   0  0  0  0  0  0  0  0  0  0  0  0
    6.4034    9.0662   26.2023 H   0  0  0  0  0  0  0  0  0  0  0  0
  1  2  2  0  0  0  0
  1  3  1  0  0  0  0
  2  4  1  0  0  0  0
  3  5  2  0  0  0  0
  3  6  1  0  0  0  0
  4  9  2  0  0  0  0
  4 10  1  0  0  0  0
  5  9  1  0  0  0  0
  5 13  1  0  0  0  0
  6 11  2  0  0  0  0
  6 12  1  0  0  0  0
  7  8  1  0  0  0  0
  8 12  1  0  0  0  0
  1 14  1  0  0  0  0
  2 15  1  0  0  0  0
  7 16  1  0  0  0  0
  7 17  1  0  0  0  0
  7 18  1  0  0  0  0
  8 19  1  0  0  0  0
  8 20  1  0  0  0  0
 10 21  1  0  0  0  0
 10 22  1  0  0  0  0
M  END
> <id>
EN300-8162031

> <smiles>
CCOC(=O)C=1C=CC(N)=NC1Br

> <MDLNUMBER>
MFCD16250267

> <IUPAC Name>
ethyl 6-amino-2-bromopyridine-3-carboxylate

> <CAS>
1379371-36-4

> <URL>
https://www.enaminestore.com/catalog/EN300-8162031

> <ROCS_ShapeQuery>
_x1140_x0812_0A_x1140_0A_x1097_0A_x0365_0A_x1097_0A_x0310_0A

> <ROCS_TanimotoCombo>
0.610 

> <ROCS_ShapeTanimoto>
0.235 

> <ROCS_ColorTanimoto>
0.375 

> <ROCS_RefTversky>
0.210 

> <ROCS_RefColorTversky>
0.484 

> <ROCS_RefTverskyCombo>
0.694 

> <ROCS_FitTversky>
2.019 

> <ROCS_FitColorTversky>
0.626 

> <ROCS_FitTverskyCombo>
2.646 

> <ROCS_ColorScore>
-3.824

> <ROCS_Overlap>
2149.513

> <ROCS_Rank>
402                 

$$$$
untitled-dbase-482321_0
  -OEChem-02092423213D

 15 15  0     0  0  0  0  0  0999 V2000
   10.9991    8.7409   22.5394 C   0  0  0  0  0  0  0  0  0  0  0  0
   10.2314    9.5049   23.0578 C   0  0  0  0  0  0  0  0  0  0  0  0
    7.4955   12.0001   24.9428 C   0  0  0  0  0  0  0  0  0  0  0  0
    8.4221   12.5790   24.0828 C   0  0  0  0  0  0  0  0  0  0  0  0
    7.5426   10.6263   25.1172 C   0  0  0  0  0  0  0  0  0  0  0  0
    9.3182   10.4141   23.6749 C   0  0  0  0  0  0  0  0  0  0  0  0
    9.3543   11.7779   23.4328 C   0  0  0  0  0  0  0  0  0  0  0  0
    8.4332    9.8155   24.5032 N   0  0  0  0  0  0  0  0  0  0  0  0
   10.2937   12.3598   22.5613 N   0  0  0  0  0  0  0  0  0  0  0  0
   11.6803    8.0637   22.0797 H   0  0  0  0  0  0  0  0  0  0  0  0
    6.7599   12.6051   25.4603 H   0  0  0  0  0  0  0  0  0  0  0  0
    8.4085   13.6548   23.9272 H   0  0  0  0  0  0  0  0  0  0  0  0
    6.8422   10.1258   25.7776 H   0  0  0  0  0  0  0  0  0  0  0  0
   10.2519   13.3439   22.3805 H   0  0  0  0  0  0  0  0  0  0  0  0
   10.9304   11.7701   22.0615 H   0  0  0  0  0  0  0  0  0  0  0  0
  1  2  3  0  0  0  0
  2  6  1  0  0  0  0
  3  4  2  0  0  0  0
  3  5  1  0  0  0  0
  4  7  1  0  0  0  0
  5  8  2  0  0  0  0
  6  7  2  0  0  0  0
  6  8  1  0  0  0  0
  7  9  1  0  0  0  0
  1 10  1  0  0  0  0
  3 11  1  0  0  0  0
  4 12  1  0  0  0  0
  5 13  1  0  0  0  0
  9 14  1  0  0  0  0
  9 15  1  0  0  0  0
M  END
> <id>
EN300-2976737

> <smiles>
NC=1C=CC=NC1C#C

> <MDLNUMBER>
MFCD22191696

> <IUPAC Name>
2-ethynylpyridin-3-amine

> <CAS>
1849257-78-8

> <Purity>
95

> <URL>
https://www.enaminestore.com/catalog/EN300-2976737

> <ROCS_ShapeQuery>
_x1140_x0812_0A_x1140_0A_x1097_0A_x0365_0A_x1097_0A_x0310_0A

> <ROCS_TanimotoCombo>
0.610 

> <ROCS_ShapeTanimoto>
0.195 

> <ROCS_ColorTanimoto>
0.415 

> <ROCS_RefTversky>
0.178 

> <ROCS_RefColorTversky>
0.486 

> <ROCS_RefTverskyCombo>
0.663 

> <ROCS_FitTversky>
2.000 

> <ROCS_FitColorTversky>
0.740 

> <ROCS_FitTverskyCombo>
2.741 

> <ROCS_ColorScore>
-3.812

> <ROCS_Overlap>
1821.073

> <ROCS_Rank>
403                 

$$$$
untitled-dbase-119546_8
  -OEChem-02092423213D

 39 39  0     0  0  0  0  0  0999 V2000
   10.2022   11.2318   22.6237 C   0  0  0  0  0  0  0  0  0  0  0  0
    7.1382   12.0999   24.3546 C   0  0  0  0  0  0  0  0  0  0  0  0
    8.7492   11.0314   25.9749 C   0  0  0  0  0  0  0  0  0  0  0  0
    8.3263   12.5805   23.5234 C   0  0  0  0  0  0  0  0  0  0  0  0
    9.9122   11.5277   25.1162 C   0  0  0  0  0  0  0  0  0  0  0  0
    7.4805   11.9049   25.8490 C   0  0  0  0  0  0  0  0  0  0  0  0
   11.2190    9.1090   20.9948 C   0  0  0  0  0  0  0  0  0  0  0  0
   12.5249    8.4234   23.0279 C   0  0  0  0  0  0  0  0  0  0  0  0
   10.0141    8.4077   23.0903 C   0  0  0  0  0  0  0  0  0  0  0  0
    6.3068   11.1931   26.5465 C   0  0  0  0  0  0  0  0  0  0  0  0
    7.6888   13.2663   26.5400 C   0  0  0  0  0  0  0  0  0  0  0  0
   11.2524    9.0997   22.5224 C   0  0  0  0  0  0  0  0  0  0  0  0
    9.4973   11.7295   23.7251 N   0  0  0  0  0  0  0  0  0  0  0  0
    9.9072   11.4595   21.4517 O   0  0  0  0  0  0  0  0  0  0  0  0
    6.1119    9.9477   25.9114 O   0  0  0  0  0  0  0  0  0  0  0  0
   11.2706   10.4548   22.9862 O   0  0  0  0  0  0  0  0  0  0  0  0
    7.9453   13.0191   27.8300 F   0  0  0  0  0  0  0  0  0  0  0  0
    6.5346   13.9372   26.4468 F   0  0  0  0  0  0  0  0  0  0  0  0
    6.3092   12.8101   24.2447 H   0  0  0  0  0  0  0  0  0  0  0  0
    6.7874   11.1484   23.9323 H   0  0  0  0  0  0  0  0  0  0  0  0
    8.5159   10.0015   25.6721 H   0  0  0  0  0  0  0  0  0  0  0  0
    9.0708   10.9790   27.0226 H   0  0  0  0  0  0  0  0  0  0  0  0
    8.0457   12.6049   22.4653 H   0  0  0  0  0  0  0  0  0  0  0  0
    8.6129   13.6010   23.8002 H   0  0  0  0  0  0  0  0  0  0  0  0
   10.2901   12.4879   25.4843 H   0  0  0  0  0  0  0  0  0  0  0  0
   10.7386   10.8147   25.1853 H   0  0  0  0  0  0  0  0  0  0  0  0
   10.3071    9.5937   20.6280 H   0  0  0  0  0  0  0  0  0  0  0  0
   12.0840    9.6331   20.5756 H   0  0  0  0  0  0  0  0  0  0  0  0
   11.2073    8.0875   20.5977 H   0  0  0  0  0  0  0  0  0  0  0  0
   12.5531    8.4144   24.1235 H   0  0  0  0  0  0  0  0  0  0  0  0
   13.4152    8.9725   22.7007 H   0  0  0  0  0  0  0  0  0  0  0  0
   12.6032    7.3915   22.6707 H   0  0  0  0  0  0  0  0  0  0  0  0
   10.0379    8.4009   24.1860 H   0  0  0  0  0  0  0  0  0  0  0  0
    9.0922    8.9022   22.7677 H   0  0  0  0  0  0  0  0  0  0  0  0
    9.9751    7.3586   22.7753 H   0  0  0  0  0  0  0  0  0  0  0  0
    5.4124   11.8004   26.4513 H   0  0  0  0  0  0  0  0  0  0  0  0
    6.5515   11.0402   27.5927 H   0  0  0  0  0  0  0  0  0  0  0  0
    8.4947   13.7921   26.0670 H   0  0  0  0  0  0  0  0  0  0  0  0
    5.3685    9.5068   26.3598 H   0  0  0  0  0  0  0  0  0  0  0  0
  1 13  1  0  0  0  0
  1 14  2  0  0  0  0
  1 16  1  0  0  0  0
  2  4  1  0  0  0  0
  2  6  1  0  0  0  0
  3  5  1  0  0  0  0
  3  6  1  0  0  0  0
  4 13  1  0  0  0  0
  5 13  1  0  0  0  0
  6 10  1  0  0  0  0
  6 11  1  0  0  0  0
  7 12  1  0  0  0  0
  8 12  1  0  0  0  0
  9 12  1  0  0  0  0
 10 15  1  0  0  0  0
 11 17  1  0  0  0  0
 11 18  1  0  0  0  0
 12 16  1  0  0  0  0
  2 19  1  0  0  0  0
  2 20  1  0  0  0  0
  3 21  1  0  0  0  0
  3 22  1  0  0  0  0
  4 23  1  0  0  0  0
  4 24  1  0  0  0  0
  5 25  1  0  0  0  0
  5 26  1  0  0  0  0
  7 27  1  0  0  0  0
  7 28  1  0  0  0  0
  7 29  1  0  0  0  0
  8 30  1  0  0  0  0
  8 31  1  0  0  0  0
  8 32  1  0  0  0  0
  9 33  1  0  0  0  0
  9 34  1  0  0  0  0
  9 35  1  0  0  0  0
 10 36  1  0  0  0  0
 10 37  1  0  0  0  0
 11 38  1  0  0  0  0
 15 39  1  0  0  0  0
M  END
> <id>
EN300-843538

> <smiles>
CC(C)(C)OC(=O)N1CCC(CO)(CC1)C(F)F

> <MDLNUMBER>
MFCD28615589

> <IUPAC Name>
tert-butyl 4-(difluoromethyl)-4-(hydroxymethyl)piperidine-1-carboxylate

> <CAS>
1701559-72-9

> <URL>
https://www.enaminestore.com/catalog/EN300-843538

> <ROCS_ShapeQuery>
_x1140_x0812_0A_x1140_0A_x1097_0A_x0365_0A_x1097_0A_x0310_0A

> <ROCS_TanimotoCombo>
0.610 

> <ROCS_ShapeTanimoto>
0.217 

> <ROCS_ColorTanimoto>
0.393 

> <ROCS_RefTversky>
0.201 

> <ROCS_RefColorTversky>
0.467 

> <ROCS_RefTverskyCombo>
0.668 

> <ROCS_FitTversky>
1.611 

> <ROCS_FitColorTversky>
0.712 

> <ROCS_FitTverskyCombo>
2.323 

> <ROCS_ColorScore>
-3.668

> <ROCS_Overlap>
2057.079

> <ROCS_Rank>
404                 

$$$$
untitled-dbase-356771_8
  -OEChem-02092423213D

 25 25  0     0  0  0  0  0  0999 V2000
   11.9128   15.2051   22.3484 C   0  0  0  0  0  0  0  0  0  0  0  0
    7.8727   12.3010   23.8354 C   0  0  0  0  0  0  0  0  0  0  0  0
    7.0357   11.7741   24.8127 C   0  0  0  0  0  0  0  0  0  0  0  0
    8.9568   11.5577   23.3819 C   0  0  0  0  0  0  0  0  0  0  0  0
    7.3237   10.5095   25.3003 C   0  0  0  0  0  0  0  0  0  0  0  0
    9.1589   10.3029   23.9337 C   0  0  0  0  0  0  0  0  0  0  0  0
    9.8338   12.1076   22.3596 C   0  0  0  0  0  0  0  0  0  0  0  0
    6.4470    9.9124   26.3502 C   0  0  0  0  0  0  0  0  0  0  0  0
   10.3072    9.4575   23.4866 C   0  0  0  0  0  0  0  0  0  0  0  0
   11.3767   13.9855   21.7468 C   0  0  0  0  0  0  0  0  0  0  0  0
   12.3405   16.1737   22.8230 N   0  0  0  0  0  0  0  0  0  0  0  0
    8.3675    9.7577   24.8845 N   0  0  0  0  0  0  0  0  0  0  0  0
   10.4926   13.3040   22.6648 N   0  0  0  0  0  0  0  0  0  0  0  0
    9.9613   11.5348   21.2633 O   0  0  0  0  0  0  0  0  0  0  0  0
    7.6702   13.2910   23.4350 H   0  0  0  0  0  0  0  0  0  0  0  0
    6.1867   12.3437   25.1752 H   0  0  0  0  0  0  0  0  0  0  0  0
    5.6318    9.3436   25.8874 H   0  0  0  0  0  0  0  0  0  0  0  0
    7.0139    9.2391   27.0056 H   0  0  0  0  0  0  0  0  0  0  0  0
    6.0105   10.6884   26.9918 H   0  0  0  0  0  0  0  0  0  0  0  0
   11.1896    9.6597   24.1041 H   0  0  0  0  0  0  0  0  0  0  0  0
   10.0650    8.3905   23.5604 H   0  0  0  0  0  0  0  0  0  0  0  0
   10.5600    9.6564   22.4381 H   0  0  0  0  0  0  0  0  0  0  0  0
   10.8046   14.2107   20.8422 H   0  0  0  0  0  0  0  0  0  0  0  0
   12.1791   13.2905   21.4832 H   0  0  0  0  0  0  0  0  0  0  0  0
   10.3040   13.7626   23.5502 H   0  0  0  0  0  0  0  0  0  0  0  0
  1 10  1  0  0  0  0
  1 11  3  0  0  0  0
  2  3  2  0  0  0  0
  2  4  1  0  0  0  0
  3  5  1  0  0  0  0
  4  6  2  0  0  0  0
  4  7  1  0  0  0  0
  5  8  1  0  0  0  0
  5 12  2  0  0  0  0
  6  9  1  0  0  0  0
  6 12  1  0  0  0  0
  7 13  1  0  0  0  0
  7 14  2  0  0  0  0
 10 13  1  0  0  0  0
  2 15  1  0  0  0  0
  3 16  1  0  0  0  0
  8 17  1  0  0  0  0
  8 18  1  0  0  0  0
  8 19  1  0  0  0  0
  9 20  1  0  0  0  0
  9 21  1  0  0  0  0
  9 22  1  0  0  0  0
 10 23  1  0  0  0  0
 10 24  1  0  0  0  0
 13 25  1  0  0  0  0
M  END
> <id>
EN300-5111787

> <smiles>
CC=1C=CC(C(=O)NCC#N)=C(C)N1

> <MDLNUMBER>
MFCD17219502

> <IUPAC Name>
N-(cyanomethyl)-2,6-dimethylpyridine-3-carboxamide

> <CAS>
1250953-19-5

> <URL>
https://www.enaminestore.com/catalog/EN300-5111787

> <ROCS_ShapeQuery>
_x1140_x0812_0A_x1140_0A_x1097_0A_x0365_0A_x1097_0A_x0310_0A

> <ROCS_TanimotoCombo>
0.610 

> <ROCS_ShapeTanimoto>
0.230 

> <ROCS_ColorTanimoto>
0.380 

> <ROCS_RefTversky>
0.208 

> <ROCS_RefColorTversky>
0.456 

> <ROCS_RefTverskyCombo>
0.663 

> <ROCS_FitTversky>
1.910 

> <ROCS_FitColorTversky>
0.694 

> <ROCS_FitTverskyCombo>
2.604 

> <ROCS_ColorScore>
-3.576

> <ROCS_Overlap>
2128.721

> <ROCS_Rank>
405                 

$$$$
untitled-dbase-18341_1
  -OEChem-02092423213D

 27 27  0     0  0  0  0  0  0999 V2000
    7.7870   12.0945   25.2269 C   0  0  0  0  0  0  0  0  0  0  0  0
    8.6528   12.5890   24.2579 C   0  0  0  0  0  0  0  0  0  0  0  0
    7.6660   10.7195   25.3477 C   0  0  0  0  0  0  0  0  0  0  0  0
    9.3612   11.7059   23.4506 C   0  0  0  0  0  0  0  0  0  0  0  0
    9.1700   10.3483   23.6511 C   0  0  0  0  0  0  0  0  0  0  0  0
   11.3918    7.6757   22.2108 C   0  0  0  0  0  0  0  0  0  0  0  0
   11.9218    9.2020   24.1285 C   0  0  0  0  0  0  0  0  0  0  0  0
   10.0587    7.5353   24.3269 C   0  0  0  0  0  0  0  0  0  0  0  0
   10.8004    8.4800   23.3742 C   0  0  0  0  0  0  0  0  0  0  0  0
    8.3376    9.8305   24.5820 N   0  0  0  0  0  0  0  0  0  0  0  0
   10.2382   12.2044   22.4692 N   0  0  0  0  0  0  0  0  0  0  0  0
    9.8692    9.4640   22.8528 N   0  0  0  0  0  0  0  0  0  0  0  0
    7.2246   12.7640   25.8675 H   0  0  0  0  0  0  0  0  0  0  0  0
    8.7670   13.6634   24.1414 H   0  0  0  0  0  0  0  0  0  0  0  0
    7.0038   10.2825   26.0878 H   0  0  0  0  0  0  0  0  0  0  0  0
   10.6078    7.1489   21.6544 H   0  0  0  0  0  0  0  0  0  0  0  0
   11.9250    8.3248   21.5074 H   0  0  0  0  0  0  0  0  0  0  0  0
   12.0970    6.9183   22.5724 H   0  0  0  0  0  0  0  0  0  0  0  0
   11.5227    9.7851   24.9667 H   0  0  0  0  0  0  0  0  0  0  0  0
   12.4535    9.9009   23.4723 H   0  0  0  0  0  0  0  0  0  0  0  0
   12.6540    8.4926   24.5297 H   0  0  0  0  0  0  0  0  0  0  0  0
    9.6248    8.0853   25.1701 H   0  0  0  0  0  0  0  0  0  0  0  0
    9.2467    7.0082   23.8139 H   0  0  0  0  0  0  0  0  0  0  0  0
   10.7368    6.7826   24.7457 H   0  0  0  0  0  0  0  0  0  0  0  0
   10.3080   13.1936   22.3301 H   0  0  0  0  0  0  0  0  0  0  0  0
   10.7089   11.5633   21.8606 H   0  0  0  0  0  0  0  0  0  0  0  0
    9.7327    9.4974   21.8524 H   0  0  0  0  0  0  0  0  0  0  0  0
  1  2  2  0  0  0  0
  1  3  1  0  0  0  0
  2  4  1  0  0  0  0
  3 10  2  0  0  0  0
  4  5  2  0  0  0  0
  4 11  1  0  0  0  0
  5 10  1  0  0  0  0
  5 12  1  0  0  0  0
  6  9  1  0  0  0  0
  7  9  1  0  0  0  0
  8  9  1  0  0  0  0
  9 12  1  0  0  0  0
  1 13  1  0  0  0  0
  2 14  1  0  0  0  0
  3 15  1  0  0  0  0
  6 16  1  0  0  0  0
  6 17  1  0  0  0  0
  6 18  1  0  0  0  0
  7 19  1  0  0  0  0
  7 20  1  0  0  0  0
  7 21  1  0  0  0  0
  8 22  1  0  0  0  0
  8 23  1  0  0  0  0
  8 24  1  0  0  0  0
 11 25  1  0  0  0  0
 11 26  1  0  0  0  0
 12 27  1  0  0  0  0
M  END
> <id>
EN300-111029

> <smiles>
CC(C)(C)NC=1N=CC=CC1N

> <MDLNUMBER>
MFCD10688728

> <IUPAC Name>
N2-tert-butylpyridine-2,3-diamine

> <CAS>
1022146-68-4

> <Purity>
51

> <URL>
https://www.enaminestore.com/catalog/EN300-111029

> <ROCS_ShapeQuery>
_x1140_x0812_0A_x1140_0A_x1097_0A_x0365_0A_x1097_0A_x0310_0A

> <ROCS_TanimotoCombo>
0.610 

> <ROCS_ShapeTanimoto>
0.200 

> <ROCS_ColorTanimoto>
0.410 

> <ROCS_RefTversky>
0.183 

> <ROCS_RefColorTversky>
0.515 

> <ROCS_RefTverskyCombo>
0.699 

> <ROCS_FitTversky>
1.821 

> <ROCS_FitColorTversky>
0.667 

> <ROCS_FitTverskyCombo>
2.488 

> <ROCS_ColorScore>
-4.072

> <ROCS_Overlap>
1878.220

> <ROCS_Rank>
406                 

$$$$
untitled-dbase-495977_7
  -OEChem-02092423213D

 26 26  0     0  0  0  0  0  0999 V2000
    7.6289   11.6299   26.0686 C   0  0  0  0  0  0  0  0  0  0  0  0
    8.4374   12.5713   25.4414 C   0  0  0  0  0  0  0  0  0  0  0  0
    7.4961   10.3873   25.4702 C   0  0  0  0  0  0  0  0  0  0  0  0
    9.0794   12.2459   24.2517 C   0  0  0  0  0  0  0  0  0  0  0  0
    8.8818   10.9756   23.7347 C   0  0  0  0  0  0  0  0  0  0  0  0
    9.5408   10.5695   22.4677 C   0  0  0  0  0  0  0  0  0  0  0  0
   12.0232    9.9437   22.9685 C   0  0  0  0  0  0  0  0  0  0  0  0
   11.3368    7.5302   23.0831 C   0  0  0  0  0  0  0  0  0  0  0  0
   11.4822    8.6848   20.8573 C   0  0  0  0  0  0  0  0  0  0  0  0
   11.1569    8.8526   22.3409 C   0  0  0  0  0  0  0  0  0  0  0  0
    8.1039   10.0346   24.3153 N   0  0  0  0  0  0  0  0  0  0  0  0
    9.8118   11.3543   21.5721 O   0  0  0  0  0  0  0  0  0  0  0  0
    9.7860    9.2330   22.4656 O   0  0  0  0  0  0  0  0  0  0  0  0
    9.8612   13.1401   23.6340 F   0  0  0  0  0  0  0  0  0  0  0  0
    7.1205   11.8609   26.9976 H   0  0  0  0  0  0  0  0  0  0  0  0
    8.5668   13.5566   25.8782 H   0  0  0  0  0  0  0  0  0  0  0  0
    6.8768    9.6178   25.9188 H   0  0  0  0  0  0  0  0  0  0  0  0
   11.8969   10.8945   22.4386 H   0  0  0  0  0  0  0  0  0  0  0  0
   11.7756   10.0981   24.0238 H   0  0  0  0  0  0  0  0  0  0  0  0
   13.0867    9.6884   22.8963 H   0  0  0  0  0  0  0  0  0  0  0  0
   10.7170    6.7445   22.6361 H   0  0  0  0  0  0  0  0  0  0  0  0
   11.0144    7.6213   24.1266 H   0  0  0  0  0  0  0  0  0  0  0  0
   12.3800    7.1983   23.0701 H   0  0  0  0  0  0  0  0  0  0  0  0
   10.8609    7.9023   20.4069 H   0  0  0  0  0  0  0  0  0  0  0  0
   11.3232    9.6147   20.3019 H   0  0  0  0  0  0  0  0  0  0  0  0
   12.5231    8.3706   20.7198 H   0  0  0  0  0  0  0  0  0  0  0  0
  1  2  2  0  0  0  0
  1  3  1  0  0  0  0
  2  4  1  0  0  0  0
  3 11  2  0  0  0  0
  4  5  2  0  0  0  0
  4 14  1  0  0  0  0
  5  6  1  0  0  0  0
  5 11  1  0  0  0  0
  6 12  2  0  0  0  0
  6 13  1  0  0  0  0
  7 10  1  0  0  0  0
  8 10  1  0  0  0  0
  9 10  1  0  0  0  0
 10 13  1  0  0  0  0
  1 15  1  0  0  0  0
  2 16  1  0  0  0  0
  3 17  1  0  0  0  0
  7 18  1  0  0  0  0
  7 19  1  0  0  0  0
  7 20  1  0  0  0  0
  8 21  1  0  0  0  0
  8 22  1  0  0  0  0
  8 23  1  0  0  0  0
  9 24  1  0  0  0  0
  9 25  1  0  0  0  0
  9 26  1  0  0  0  0
M  END
> <id>
EN300-21046913

> <smiles>
CC(C)(C)OC(=O)C=1N=CC=CC1F

> <MDLNUMBER>
MFCD29761614

> <IUPAC Name>
tert-butyl 3-fluoropyridine-2-carboxylate

> <CAS>
1934827-83-4

> <Purity>
95

> <URL>
https://www.enaminestore.com/catalog/EN300-21046913

> <ROCS_ShapeQuery>
_x1140_x0812_0A_x1140_0A_x1097_0A_x0365_0A_x1097_0A_x0310_0A

> <ROCS_TanimotoCombo>
0.610 

> <ROCS_ShapeTanimoto>
0.214 

> <ROCS_ColorTanimoto>
0.396 

> <ROCS_RefTversky>
0.196 

> <ROCS_RefColorTversky>
0.436 

> <ROCS_RefTverskyCombo>
0.632 

> <ROCS_FitTversky>
1.775 

> <ROCS_FitColorTversky>
0.811 

> <ROCS_FitTverskyCombo>
2.586 

> <ROCS_ColorScore>
-3.405

> <ROCS_Overlap>
2004.428

> <ROCS_Rank>
407                 

$$$$
untitled-dbase-304330_8
  -OEChem-02092423213D

 22 22  0     0  0  0  0  0  0999 V2000
    9.3638   12.1962   24.4515 C   0  0  0  0  0  0  0  0  0  0  0  0
    7.6635   11.9251   25.9564 C   0  0  0  0  0  0  0  0  0  0  0  0
    9.0221   11.0047   23.8507 C   0  0  0  0  0  0  0  0  0  0  0  0
    7.3213   10.7339   25.3552 C   0  0  0  0  0  0  0  0  0  0  0  0
    9.7550   10.4974   22.7064 C   0  0  0  0  0  0  0  0  0  0  0  0
    5.8660   10.0471   27.2621 C   0  0  0  0  0  0  0  0  0  0  0  0
   11.1589    8.6207   21.8074 C   0  0  0  0  0  0  0  0  0  0  0  0
    8.6907   12.6778   25.5152 N   0  0  0  0  0  0  0  0  0  0  0  0
    7.9947   10.2521   24.2917 N   0  0  0  0  0  0  0  0  0  0  0  0
    6.2300   10.0069   25.8809 N   0  0  0  0  0  0  0  0  0  0  0  0
   10.3749    9.2483   22.8468 N   0  0  0  0  0  0  0  0  0  0  0  0
    9.8377   11.1653   21.6581 O   0  0  0  0  0  0  0  0  0  0  0  0
   10.1883   12.8073   24.1029 H   0  0  0  0  0  0  0  0  0  0  0  0
    7.1292   12.3216   26.8123 H   0  0  0  0  0  0  0  0  0  0  0  0
    6.5543   10.7125   27.8040 H   0  0  0  0  0  0  0  0  0  0  0  0
    4.8378   10.4257   27.3593 H   0  0  0  0  0  0  0  0  0  0  0  0
    5.9254    9.0340   27.6865 H   0  0  0  0  0  0  0  0  0  0  0  0
   10.5196    7.9406   21.2254 H   0  0  0  0  0  0  0  0  0  0  0  0
   11.5723    9.3937   21.1429 H   0  0  0  0  0  0  0  0  0  0  0  0
   11.9818    8.0503   22.2628 H   0  0  0  0  0  0  0  0  0  0  0  0
    5.7073    9.4467   25.2360 H   0  0  0  0  0  0  0  0  0  0  0  0
   10.3306    8.7729   23.7422 H   0  0  0  0  0  0  0  0  0  0  0  0
  1  3  1  0  0  0  0
  1  8  2  0  0  0  0
  2  4  2  0  0  0  0
  2  8  1  0  0  0  0
  3  5  1  0  0  0  0
  3  9  2  0  0  0  0
  4  9  1  0  0  0  0
  4 10  1  0  0  0  0
  5 11  1  0  0  0  0
  5 12  2  0  0  0  0
  6 10  1  0  0  0  0
  7 11  1  0  0  0  0
  1 13  1  0  0  0  0
  2 14  1  0  0  0  0
  6 15  1  0  0  0  0
  6 16  1  0  0  0  0
  6 17  1  0  0  0  0
  7 18  1  0  0  0  0
  7 19  1  0  0  0  0
  7 20  1  0  0  0  0
 10 21  1  0  0  0  0
 11 22  1  0  0  0  0
M  END
> <id>
EN300-3032406

> <smiles>
CNC(=O)C=1C=NC=C(NC)N1

> <MDLNUMBER>
MFCD20671637

> <IUPAC Name>
N-methyl-6-(methylamino)pyrazine-2-carboxamide

> <CAS>
54409-12-0

> <Purity>
95

> <URL>
https://www.enaminestore.com/catalog/EN300-3032406

> <MP>
247-248

> <ROCS_ShapeQuery>
_x1140_x0812_0A_x1140_0A_x1097_0A_x0365_0A_x1097_0A_x0310_0A

> <ROCS_TanimotoCombo>
0.610 

> <ROCS_ShapeTanimoto>
0.206 

> <ROCS_ColorTanimoto>
0.404 

> <ROCS_RefTversky>
0.188 

> <ROCS_RefColorTversky>
0.510 

> <ROCS_RefTverskyCombo>
0.698 

> <ROCS_FitTversky>
1.854 

> <ROCS_FitColorTversky>
0.661 

> <ROCS_FitTverskyCombo>
2.515 

> <ROCS_ColorScore>
-4.030

> <ROCS_Overlap>
1925.433

> <ROCS_Rank>
408                 

$$$$
untitled-dbase-375549_3
  -OEChem-02092423213D

 23 25  0     0  0  0  0  0  0999 V2000
   11.0099   13.0171   23.1265 C   0  0  0  0  0  0  0  0  0  0  0  0
    9.8872   13.3198   23.9011 C   0  0  0  0  0  0  0  0  0  0  0  0
   11.2914   11.7056   22.7604 C   0  0  0  0  0  0  0  0  0  0  0  0
    9.3127   10.9389   23.9445 C   0  0  0  0  0  0  0  0  0  0  0  0
    9.0503   12.2653   24.3004 C   0  0  0  0  0  0  0  0  0  0  0  0
   10.4539   10.6607   23.1614 C   0  0  0  0  0  0  0  0  0  0  0  0
    7.4643   10.6221   25.1065 C   0  0  0  0  0  0  0  0  0  0  0  0
    4.5862    9.9410   27.5297 C   0  0  0  0  0  0  0  0  0  0  0  0
    5.5761   10.9957   27.9297 C   0  0  0  0  0  0  0  0  0  0  0  0
    5.3792   10.6639   26.4762 C   0  0  0  0  0  0  0  0  0  0  0  0
    8.3958   10.0096   24.4137 N   0  0  0  0  0  0  0  0  0  0  0  0
    6.4176    9.9922   25.7033 N   0  0  0  0  0  0  0  0  0  0  0  0
    7.6107   12.3205   25.2477 S   0  0  0  0  0  0  0  0  0  0  0  0
   10.8659    8.8870   22.6450 Br  0  0  0  0  0  0  0  0  0  0  0  0
   11.6709   13.8184   22.8065 H   0  0  0  0  0  0  0  0  0  0  0  0
    9.6724   14.3457   24.1837 H   0  0  0  0  0  0  0  0  0  0  0  0
   12.1736   11.5080   22.1559 H   0  0  0  0  0  0  0  0  0  0  0  0
    4.8352    8.9094   27.7460 H   0  0  0  0  0  0  0  0  0  0  0  0
    3.5330   10.1773   27.6187 H   0  0  0  0  0  0  0  0  0  0  0  0
    5.1892   11.9417   28.2879 H   0  0  0  0  0  0  0  0  0  0  0  0
    6.4891   10.6709   28.4134 H   0  0  0  0  0  0  0  0  0  0  0  0
    4.8443   11.3926   25.8770 H   0  0  0  0  0  0  0  0  0  0  0  0
    6.3281    8.9728   25.6213 H   0  0  0  0  0  0  0  0  0  0  0  0
  1  2  1  0  0  0  0
  1  3  2  0  0  0  0
  2  5  2  0  0  0  0
  3  6  1  0  0  0  0
  4  5  1  0  0  0  0
  4  6  2  0  0  0  0
  4 11  1  0  0  0  0
  5 13  1  0  0  0  0
  6 14  1  0  0  0  0
  7 11  2  0  0  0  0
  7 12  1  0  0  0  0
  7 13  1  0  0  0  0
  8  9  1  0  0  0  0
  8 10  1  0  0  0  0
  9 10  1  0  0  0  0
 10 12  1  0  0  0  0
  1 15  1  0  0  0  0
  2 16  1  0  0  0  0
  3 17  1  0  0  0  0
  8 18  1  0  0  0  0
  8 19  1  0  0  0  0
  9 20  1  0  0  0  0
  9 21  1  0  0  0  0
 10 22  1  0  0  0  0
 12 23  1  0  0  0  0
M  END
> <id>
EN300-237017

> <smiles>
BrC=1C=CC=C2SC(NC3CC3)=NC12

> <MDLNUMBER>
MFCD16653216

> <IUPAC Name>
4-bromo-N-cyclopropyl-1,3-benzothiazol-2-amine

> <CAS>
1177346-46-1

> <URL>
https://www.enaminestore.com/catalog/EN300-237017

> <ROCS_ShapeQuery>
_x1140_x0812_0A_x1140_0A_x1097_0A_x0365_0A_x1097_0A_x0310_0A

> <ROCS_TanimotoCombo>
0.610 

> <ROCS_ShapeTanimoto>
0.232 

> <ROCS_ColorTanimoto>
0.378 

> <ROCS_RefTversky>
0.208 

> <ROCS_RefColorTversky>
0.455 

> <ROCS_RefTverskyCombo>
0.663 

> <ROCS_FitTversky>
1.919 

> <ROCS_FitColorTversky>
0.692 

> <ROCS_FitTverskyCombo>
2.611 

> <ROCS_ColorScore>
-3.571

> <ROCS_Overlap>
2136.983

> <ROCS_Rank>
409                 

$$$$
untitled-dbase-276103_3
  -OEChem-02092423213D

 33 34  0     0  0  0  0  0  0999 V2000
    6.4933   11.0406   27.4689 C   0  0  0  0  0  0  0  0  0  0  0  0
    6.9406   10.2186   26.4315 C   0  0  0  0  0  0  0  0  0  0  0  0
    6.8596   12.3804   27.5011 C   0  0  0  0  0  0  0  0  0  0  0  0
    8.9415   12.5594   24.4266 C   0  0  0  0  0  0  0  0  0  0  0  0
    8.1223   12.0678   25.4518 C   0  0  0  0  0  0  0  0  0  0  0  0
    7.7542   10.7066   25.4127 C   0  0  0  0  0  0  0  0  0  0  0  0
    9.3688   11.7172   23.4103 C   0  0  0  0  0  0  0  0  0  0  0  0
    7.6726   12.8948   26.4952 C   0  0  0  0  0  0  0  0  0  0  0  0
    8.9571   10.4008   23.4570 C   0  0  0  0  0  0  0  0  0  0  0  0
   11.7634    9.7830   21.6416 C   0  0  0  0  0  0  0  0  0  0  0  0
   11.3526    8.9226   23.9469 C   0  0  0  0  0  0  0  0  0  0  0  0
   10.9361    7.4511   21.9601 C   0  0  0  0  0  0  0  0  0  0  0  0
    9.3828    9.4455   22.3907 C   0  0  0  0  0  0  0  0  0  0  0  0
   10.8398    8.8898   22.4967 C   0  0  0  0  0  0  0  0  0  0  0  0
    8.1675    9.8868   24.4277 N   0  0  0  0  0  0  0  0  0  0  0  0
   10.1623   12.1881   22.4157 O   0  0  0  0  0  0  0  0  0  0  0  0
    8.1101   14.7453   26.6477 Br  0  0  0  0  0  0  0  0  0  0  0  0
    5.8599   10.6304   28.2500 H   0  0  0  0  0  0  0  0  0  0  0  0
    6.6413    9.1720   26.4289 H   0  0  0  0  0  0  0  0  0  0  0  0
    6.5019   13.0037   28.3163 H   0  0  0  0  0  0  0  0  0  0  0  0
    9.2660   13.5953   24.3899 H   0  0  0  0  0  0  0  0  0  0  0  0
   11.4422    9.7959   20.5939 H   0  0  0  0  0  0  0  0  0  0  0  0
   11.7614   10.8182   22.0014 H   0  0  0  0  0  0  0  0  0  0  0  0
   12.7985    9.4241   21.6701 H   0  0  0  0  0  0  0  0  0  0  0  0
   10.7302    8.3020   24.6009 H   0  0  0  0  0  0  0  0  0  0  0  0
   12.3851    8.5660   24.0209 H   0  0  0  0  0  0  0  0  0  0  0  0
   11.3369    9.9434   24.3465 H   0  0  0  0  0  0  0  0  0  0  0  0
   10.2956    6.7728   22.5359 H   0  0  0  0  0  0  0  0  0  0  0  0
   10.6149    7.3845   20.9155 H   0  0  0  0  0  0  0  0  0  0  0  0
   11.9618    7.0720   22.0258 H   0  0  0  0  0  0  0  0  0  0  0  0
    9.2654    9.9220   21.3997 H   0  0  0  0  0  0  0  0  0  0  0  0
    8.6859    8.5874   22.3640 H   0  0  0  0  0  0  0  0  0  0  0  0
   10.3492   13.1329   22.5472 H   0  0  0  0  0  0  0  0  0  0  0  0
  1  2  2  0  0  0  0
  1  3  1  0  0  0  0
  2  6  1  0  0  0  0
  3  8  2  0  0  0  0
  4  5  2  0  0  0  0
  4  7  1  0  0  0  0
  5  6  1  0  0  0  0
  5  8  1  0  0  0  0
  6 15  2  0  0  0  0
  7  9  2  0  0  0  0
  7 16  1  0  0  0  0
  8 17  1  0  0  0  0
  9 13  1  0  0  0  0
  9 15  1  0  0  0  0
 10 14  1  0  0  0  0
 11 14  1  0  0  0  0
 12 14  1  0  0  0  0
 13 14  1  0  0  0  0
  1 18  1  0  0  0  0
  2 19  1  0  0  0  0
  3 20  1  0  0  0  0
  4 21  1  0  0  0  0
 10 22  1  0  0  0  0
 10 23  1  0  0  0  0
 10 24  1  0  0  0  0
 11 25  1  0  0  0  0
 11 26  1  0  0  0  0
 11 27  1  0  0  0  0
 12 28  1  0  0  0  0
 12 29  1  0  0  0  0
 12 30  1  0  0  0  0
 13 31  1  0  0  0  0
 13 32  1  0  0  0  0
 16 33  1  0  0  0  0
M  END
> <id>
EN300-801205

> <smiles>
CC(C)(C)CC=1N=C2C=CC=C(Br)C2=CC1O

> <MDLNUMBER>
MFCD31590716

> <IUPAC Name>
5-bromo-2-(2,2-dimethylpropyl)quinolin-3-ol

> <CAS>
2138378-37-5

> <URL>
https://www.enaminestore.com/catalog/EN300-801205

> <ROCS_ShapeQuery>
_x1140_x0812_0A_x1140_0A_x1097_0A_x0365_0A_x1097_0A_x0310_0A

> <ROCS_TanimotoCombo>
0.610 

> <ROCS_ShapeTanimoto>
0.241 

> <ROCS_ColorTanimoto>
0.369 

> <ROCS_RefTversky>
0.217 

> <ROCS_RefColorTversky>
0.509 

> <ROCS_RefTverskyCombo>
0.726 

> <ROCS_FitTversky>
1.791 

> <ROCS_FitColorTversky>
0.574 

> <ROCS_FitTverskyCombo>
2.365 

> <ROCS_ColorScore>
-4.047

> <ROCS_Overlap>
2230.116

> <ROCS_Rank>
410                 

$$$$
untitled-dbase-349481_1
  -OEChem-02092423213D

 32 32  0     0  0  0  0  0  0999 V2000
    8.5576   12.5712   24.2855 C   0  0  0  0  0  0  0  0  0  0  0  0
    7.5508   12.0531   25.0925 C   0  0  0  0  0  0  0  0  0  0  0  0
    9.3575   11.7103   23.5425 C   0  0  0  0  0  0  0  0  0  0  0  0
    9.1121   10.3502   23.6405 C   0  0  0  0  0  0  0  0  0  0  0  0
    7.3861   10.6776   25.1211 C   0  0  0  0  0  0  0  0  0  0  0  0
   10.7365   13.5507   22.5312 C   0  0  0  0  0  0  0  0  0  0  0  0
   13.0729   13.9607   23.6480 C   0  0  0  0  0  0  0  0  0  0  0  0
   14.1596   13.5406   21.4227 C   0  0  0  0  0  0  0  0  0  0  0  0
   12.9478   15.7017   21.8346 C   0  0  0  0  0  0  0  0  0  0  0  0
    9.9386    9.3749   22.8667 C   0  0  0  0  0  0  0  0  0  0  0  0
   12.9880   14.2055   22.1421 C   0  0  0  0  0  0  0  0  0  0  0  0
    8.1436    9.8097   24.4134 N   0  0  0  0  0  0  0  0  0  0  0  0
   10.3841   12.2284   22.7205 N   0  0  0  0  0  0  0  0  0  0  0  0
   10.2275   14.5424   23.0391 O   0  0  0  0  0  0  0  0  0  0  0  0
    6.4002   10.1428   25.9082 O   0  0  0  0  0  0  0  0  0  0  0  0
   11.7871   13.6081   21.6517 O   0  0  0  0  0  0  0  0  0  0  0  0
   10.9028    9.9646   22.1017 F   0  0  0  0  0  0  0  0  0  0  0  0
   10.6030    8.4799   23.6541 F   0  0  0  0  0  0  0  0  0  0  0  0
    9.1922    8.6255   22.0057 F   0  0  0  0  0  0  0  0  0  0  0  0
    8.7111   13.6465   24.2439 H   0  0  0  0  0  0  0  0  0  0  0  0
    6.9179   12.7118   25.6769 H   0  0  0  0  0  0  0  0  0  0  0  0
   12.2337   14.4364   24.1680 H   0  0  0  0  0  0  0  0  0  0  0  0
   13.0672   12.8916   23.8839 H   0  0  0  0  0  0  0  0  0  0  0  0
   13.9853   14.4023   24.0650 H   0  0  0  0  0  0  0  0  0  0  0  0
   14.1026   13.7137   20.3419 H   0  0  0  0  0  0  0  0  0  0  0  0
   14.1377   12.4538   21.5628 H   0  0  0  0  0  0  0  0  0  0  0  0
   15.1219   13.9175   21.7839 H   0  0  0  0  0  0  0  0  0  0  0  0
   12.8868   15.8775   20.7545 H   0  0  0  0  0  0  0  0  0  0  0  0
   12.0919   16.1888   22.3129 H   0  0  0  0  0  0  0  0  0  0  0  0
   13.8650   16.1945   22.1769 H   0  0  0  0  0  0  0  0  0  0  0  0
   10.9309   11.5431   22.2048 H   0  0  0  0  0  0  0  0  0  0  0  0
    5.9254   10.8514   26.3645 H   0  0  0  0  0  0  0  0  0  0  0  0
  1  2  2  0  0  0  0
  1  3  1  0  0  0  0
  2  5  1  0  0  0  0
  3  4  2  0  0  0  0
  3 13  1  0  0  0  0
  4 10  1  0  0  0  0
  4 12  1  0  0  0  0
  5 12  2  0  0  0  0
  5 15  1  0  0  0  0
  6 13  1  0  0  0  0
  6 14  2  0  0  0  0
  6 16  1  0  0  0  0
  7 11  1  0  0  0  0
  8 11  1  0  0  0  0
  9 11  1  0  0  0  0
 10 17  1  0  0  0  0
 10 18  1  0  0  0  0
 10 19  1  0  0  0  0
 11 16  1  0  0  0  0
  1 20  1  0  0  0  0
  2 21  1  0  0  0  0
  7 22  1  0  0  0  0
  7 23  1  0  0  0  0
  7 24  1  0  0  0  0
  8 25  1  0  0  0  0
  8 26  1  0  0  0  0
  8 27  1  0  0  0  0
  9 28  1  0  0  0  0
  9 29  1  0  0  0  0
  9 30  1  0  0  0  0
 13 31  1  0  0  0  0
 15 32  1  0  0  0  0
M  END
> <id>
EN300-26665287

> <smiles>
CC(C)(C)OC(=O)NC=1C=CC(O)=NC1C(F)(F)F

> <IUPAC Name>
tert-butyl N-[6-hydroxy-2-(trifluoromethyl)pyridin-3-yl]carbamate

> <CAS>
2413898-87-8

> <URL>
https://www.enaminestore.com/catalog/EN300-26665287

> <ROCS_ShapeQuery>
_x1140_x0812_0A_x1140_0A_x1097_0A_x0365_0A_x1097_0A_x0310_0A

> <ROCS_TanimotoCombo>
0.610 

> <ROCS_ShapeTanimoto>
0.272 

> <ROCS_ColorTanimoto>
0.338 

> <ROCS_RefTversky>
0.242 

> <ROCS_RefColorTversky>
0.477 

> <ROCS_RefTverskyCombo>
0.719 

> <ROCS_FitTversky>
1.836 

> <ROCS_FitColorTversky>
0.537 

> <ROCS_FitTverskyCombo>
2.373 

> <ROCS_ColorScore>
-3.789

> <ROCS_Overlap>
2484.374

> <ROCS_Rank>
411                 

$$$$
untitled-dbase-103961_3
  -OEChem-02092423213D

 27 28  0     0  0  0  0  0  0999 V2000
    7.7533   12.2203   27.8627 C   0  0  0  0  0  0  0  0  0  0  0  0
    7.1450   10.9735   27.7862 C   0  0  0  0  0  0  0  0  0  0  0  0
    8.4715   12.7023   26.7722 C   0  0  0  0  0  0  0  0  0  0  0  0
    7.2563   10.2120   26.6202 C   0  0  0  0  0  0  0  0  0  0  0  0
    9.3002   12.3972   24.4871 C   0  0  0  0  0  0  0  0  0  0  0  0
    8.5832   11.9362   25.5995 C   0  0  0  0  0  0  0  0  0  0  0  0
    7.9682   10.6695   25.5148 C   0  0  0  0  0  0  0  0  0  0  0  0
    9.3918   11.6168   23.3436 C   0  0  0  0  0  0  0  0  0  0  0  0
    8.7567   10.3916   23.3547 C   0  0  0  0  0  0  0  0  0  0  0  0
   11.2327    8.8546   22.5559 C   0  0  0  0  0  0  0  0  0  0  0  0
    8.8184    9.5059   22.1537 C   0  0  0  0  0  0  0  0  0  0  0  0
    9.8140    8.3519   22.3400 C   0  0  0  0  0  0  0  0  0  0  0  0
    8.0555    9.9100   24.4064 N   0  0  0  0  0  0  0  0  0  0  0  0
   10.0848   12.0594   22.2646 O   0  0  0  0  0  0  0  0  0  0  0  0
    7.6689   12.8151   28.7669 H   0  0  0  0  0  0  0  0  0  0  0  0
    6.5827   10.5894   28.6324 H   0  0  0  0  0  0  0  0  0  0  0  0
    8.9438   13.6800   26.8421 H   0  0  0  0  0  0  0  0  0  0  0  0
    6.7708    9.2384   26.5859 H   0  0  0  0  0  0  0  0  0  0  0  0
    9.7888   13.3691   24.5122 H   0  0  0  0  0  0  0  0  0  0  0  0
   11.5618    9.4731   21.7148 H   0  0  0  0  0  0  0  0  0  0  0  0
   11.3021    9.4519   23.4706 H   0  0  0  0  0  0  0  0  0  0  0  0
   11.9239    8.0110   22.6477 H   0  0  0  0  0  0  0  0  0  0  0  0
    7.8216    9.0910   21.9297 H   0  0  0  0  0  0  0  0  0  0  0  0
    9.1016   10.0871   21.2605 H   0  0  0  0  0  0  0  0  0  0  0  0
    9.5165    7.7375   23.1985 H   0  0  0  0  0  0  0  0  0  0  0  0
    9.7953    7.6972   21.4602 H   0  0  0  0  0  0  0  0  0  0  0  0
   10.4618   12.9383   22.4387 H   0  0  0  0  0  0  0  0  0  0  0  0
  1  2  1  0  0  0  0
  1  3  2  0  0  0  0
  2  4  2  0  0  0  0
  3  6  1  0  0  0  0
  4  7  1  0  0  0  0
  5  6  2  0  0  0  0
  5  8  1  0  0  0  0
  6  7  1  0  0  0  0
  7 13  2  0  0  0  0
  8  9  2  0  0  0  0
  8 14  1  0  0  0  0
  9 11  1  0  0  0  0
  9 13  1  0  0  0  0
 10 12  1  0  0  0  0
 11 12  1  0  0  0  0
  1 15  1  0  0  0  0
  2 16  1  0  0  0  0
  3 17  1  0  0  0  0
  4 18  1  0  0  0  0
  5 19  1  0  0  0  0
 10 20  1  0  0  0  0
 10 21  1  0  0  0  0
 10 22  1  0  0  0  0
 11 23  1  0  0  0  0
 11 24  1  0  0  0  0
 12 25  1  0  0  0  0
 12 26  1  0  0  0  0
 14 27  1  0  0  0  0
M  END
> <id>
EN300-801016

> <smiles>
CCCC=1N=C2C=CC=CC2=CC1O

> <MDLNUMBER>
MFCD31471734

> <IUPAC Name>
2-propylquinolin-3-ol

> <CAS>
860232-65-1

> <URL>
https://www.enaminestore.com/catalog/EN300-801016

> <ROCS_ShapeQuery>
_x1140_x0812_0A_x1140_0A_x1097_0A_x0365_0A_x1097_0A_x0310_0A

> <ROCS_TanimotoCombo>
0.610 

> <ROCS_ShapeTanimoto>
0.201 

> <ROCS_ColorTanimoto>
0.408 

> <ROCS_RefTversky>
0.186 

> <ROCS_RefColorTversky>
0.514 

> <ROCS_RefTverskyCombo>
0.700 

> <ROCS_FitTversky>
1.685 

> <ROCS_FitColorTversky>
0.665 

> <ROCS_FitTverskyCombo>
2.350 

> <ROCS_ColorScore>
-4.060

> <ROCS_Overlap>
1909.282

> <ROCS_Rank>
412                 

$$$$
untitled-dbase-362533_3
  -OEChem-02092423213D

 33 34  0     0  0  0  0  0  0999 V2000
    6.8664   12.3824   27.5045 C   0  0  0  0  0  0  0  0  0  0  0  0
    7.6798   12.8962   26.4986 C   0  0  0  0  0  0  0  0  0  0  0  0
    6.4974   11.0434   27.4711 C   0  0  0  0  0  0  0  0  0  0  0  0
    8.9465   12.5606   24.4287 C   0  0  0  0  0  0  0  0  0  0  0  0
    8.1270   12.0695   25.4540 C   0  0  0  0  0  0  0  0  0  0  0  0
    7.7562   10.7090   25.4136 C   0  0  0  0  0  0  0  0  0  0  0  0
    9.3714   11.7186   23.4111 C   0  0  0  0  0  0  0  0  0  0  0  0
    6.9422   10.2216   26.4325 C   0  0  0  0  0  0  0  0  0  0  0  0
    8.9569   10.4029   23.4567 C   0  0  0  0  0  0  0  0  0  0  0  0
   11.7628    9.7811   21.6419 C   0  0  0  0  0  0  0  0  0  0  0  0
   11.3495    8.9198   23.9464 C   0  0  0  0  0  0  0  0  0  0  0  0
   10.9307    7.4506   21.9583 C   0  0  0  0  0  0  0  0  0  0  0  0
    9.3812    9.4477   22.3898 C   0  0  0  0  0  0  0  0  0  0  0  0
   10.8371    8.8890   22.4960 C   0  0  0  0  0  0  0  0  0  0  0  0
    8.1670    9.8895   24.4274 N   0  0  0  0  0  0  0  0  0  0  0  0
   10.1648   12.1904   22.4167 O   0  0  0  0  0  0  0  0  0  0  0  0
    6.3902    8.3991   26.4612 Br  0  0  0  0  0  0  0  0  0  0  0  0
    6.5227   13.0245   28.3097 H   0  0  0  0  0  0  0  0  0  0  0  0
    7.9633   13.9457   26.5343 H   0  0  0  0  0  0  0  0  0  0  0  0
    5.8619   10.6533   28.2623 H   0  0  0  0  0  0  0  0  0  0  0  0
    9.2550   13.6040   24.4233 H   0  0  0  0  0  0  0  0  0  0  0  0
   11.4421    9.7955   20.5941 H   0  0  0  0  0  0  0  0  0  0  0  0
   11.7628   10.8160   22.0026 H   0  0  0  0  0  0  0  0  0  0  0  0
   12.7972    9.4201   21.6705 H   0  0  0  0  0  0  0  0  0  0  0  0
   10.7256    8.2998   24.5997 H   0  0  0  0  0  0  0  0  0  0  0  0
   12.3812    8.5610   24.0205 H   0  0  0  0  0  0  0  0  0  0  0  0
   11.3356    9.9403   24.3467 H   0  0  0  0  0  0  0  0  0  0  0  0
   10.2887    6.7732   22.5333 H   0  0  0  0  0  0  0  0  0  0  0  0
   10.6099    7.3855   20.9135 H   0  0  0  0  0  0  0  0  0  0  0  0
   11.9557    7.0694   22.0240 H   0  0  0  0  0  0  0  0  0  0  0  0
    9.2652    9.9253   21.3992 H   0  0  0  0  0  0  0  0  0  0  0  0
    8.6827    8.5909   22.3621 H   0  0  0  0  0  0  0  0  0  0  0  0
   10.3527   13.1347   22.5499 H   0  0  0  0  0  0  0  0  0  0  0  0
  1  2  2  0  0  0  0
  1  3  1  0  0  0  0
  2  5  1  0  0  0  0
  3  8  2  0  0  0  0
  4  5  2  0  0  0  0
  4  7  1  0  0  0  0
  5  6  1  0  0  0  0
  6  8  1  0  0  0  0
  6 15  2  0  0  0  0
  7  9  2  0  0  0  0
  7 16  1  0  0  0  0
  8 17  1  0  0  0  0
  9 13  1  0  0  0  0
  9 15  1  0  0  0  0
 10 14  1  0  0  0  0
 11 14  1  0  0  0  0
 12 14  1  0  0  0  0
 13 14  1  0  0  0  0
  1 18  1  0  0  0  0
  2 19  1  0  0  0  0
  3 20  1  0  0  0  0
  4 21  1  0  0  0  0
 10 22  1  0  0  0  0
 10 23  1  0  0  0  0
 10 24  1  0  0  0  0
 11 25  1  0  0  0  0
 11 26  1  0  0  0  0
 11 27  1  0  0  0  0
 12 28  1  0  0  0  0
 12 29  1  0  0  0  0
 12 30  1  0  0  0  0
 13 31  1  0  0  0  0
 13 32  1  0  0  0  0
 16 33  1  0  0  0  0
M  END
> <id>
EN300-801097

> <smiles>
CC(C)(C)CC=1N=C2C(Br)=CC=CC2=CC1O

> <MDLNUMBER>
MFCD31590662

> <IUPAC Name>
8-bromo-2-(2,2-dimethylpropyl)quinolin-3-ol

> <CAS>
2138366-65-9

> <URL>
https://www.enaminestore.com/catalog/EN300-801097

> <ROCS_ShapeQuery>
_x1140_x0812_0A_x1140_0A_x1097_0A_x0365_0A_x1097_0A_x0310_0A

> <ROCS_TanimotoCombo>
0.610 

> <ROCS_ShapeTanimoto>
0.240 

> <ROCS_ColorTanimoto>
0.369 

> <ROCS_RefTversky>
0.217 

> <ROCS_RefColorTversky>
0.509 

> <ROCS_RefTverskyCombo>
0.726 

> <ROCS_FitTversky>
1.790 

> <ROCS_FitColorTversky>
0.573 

> <ROCS_FitTverskyCombo>
2.363 

> <ROCS_ColorScore>
-4.047

> <ROCS_Overlap>
2229.275

> <ROCS_Rank>
413                 

$$$$
untitled-dbase-136603_6
  -OEChem-02092423213D

 22 22  0     0  0  0  0  0  0999 V2000
   10.7049    9.0429   22.7403 C   0  0  0  0  0  0  0  0  0  0  0  0
   10.2365   10.1266   22.9575 C   0  0  0  0  0  0  0  0  0  0  0  0
    7.4453   10.0251   25.0430 C   0  0  0  0  0  0  0  0  0  0  0  0
    8.1384   11.5427   23.0056 C   0  0  0  0  0  0  0  0  0  0  0  0
    9.4180   11.7412   24.7197 C   0  0  0  0  0  0  0  0  0  0  0  0
    7.9250   11.3893   24.5288 C   0  0  0  0  0  0  0  0  0  0  0  0
    9.6701   11.4360   23.2204 C   0  0  0  0  0  0  0  0  0  0  0  0
    5.7165    8.9255   26.4519 C   0  0  0  0  0  0  0  0  0  0  0  0
    6.3335   10.0913   25.8610 N   0  0  0  0  0  0  0  0  0  0  0  0
    8.0461    9.0095   24.7125 O   0  0  0  0  0  0  0  0  0  0  0  0
   10.4540   12.4315   22.5311 O   0  0  0  0  0  0  0  0  0  0  0  0
   11.1206    8.0815   22.5474 H   0  0  0  0  0  0  0  0  0  0  0  0
    7.6970   10.7329   22.4042 H   0  0  0  0  0  0  0  0  0  0  0  0
    7.7872   12.4973   22.5899 H   0  0  0  0  0  0  0  0  0  0  0  0
    9.6058   12.7793   25.0263 H   0  0  0  0  0  0  0  0  0  0  0  0
    9.9506   11.0828   25.4232 H   0  0  0  0  0  0  0  0  0  0  0  0
    7.2710   12.1813   24.9246 H   0  0  0  0  0  0  0  0  0  0  0  0
    4.9442    8.5350   25.7730 H   0  0  0  0  0  0  0  0  0  0  0  0
    6.4806    8.1525   26.6212 H   0  0  0  0  0  0  0  0  0  0  0  0
    5.2553    9.2016   27.4116 H   0  0  0  0  0  0  0  0  0  0  0  0
    5.9307   11.0029   26.0563 H   0  0  0  0  0  0  0  0  0  0  0  0
   10.3991   12.2009   21.5959 H   0  0  0  0  0  0  0  0  0  0  0  0
  1  2  3  0  0  0  0
  2  7  1  0  0  0  0
  3  6  1  0  0  0  0
  3  9  1  0  0  0  0
  3 10  2  0  0  0  0
  4  6  1  0  0  0  0
  4  7  1  0  0  0  0
  5  6  1  0  0  0  0
  5  7  1  0  0  0  0
  7 11  1  0  0  0  0
  8  9  1  0  0  0  0
  1 12  1  0  0  0  0
  4 13  1  0  0  0  0
  4 14  1  0  0  0  0
  5 15  1  0  0  0  0
  5 16  1  0  0  0  0
  6 17  1  0  0  0  0
  8 18  1  0  0  0  0
  8 19  1  0  0  0  0
  8 20  1  0  0  0  0
  9 21  1  0  0  0  0
 11 22  1  0  0  0  0
M  END
> <id>
EN300-1273383

> <smiles>
CNC(=O)C1CC(O)(C1)C#C

> <IUPAC Name>
3-ethynyl-3-hydroxy-N-methylcyclobutane-1-carboxamide

> <CAS>
2166748-34-9

> <URL>
https://www.enaminestore.com/catalog/EN300-1273383

> <ROCS_ShapeQuery>
_x1140_x0812_0A_x1140_0A_x1097_0A_x0365_0A_x1097_0A_x0310_0A

> <ROCS_TanimotoCombo>
0.610 

> <ROCS_ShapeTanimoto>
0.195 

> <ROCS_ColorTanimoto>
0.415 

> <ROCS_RefTversky>
0.179 

> <ROCS_RefColorTversky>
0.519 

> <ROCS_RefTverskyCombo>
0.698 

> <ROCS_FitTversky>
1.880 

> <ROCS_FitColorTversky>
0.673 

> <ROCS_FitTverskyCombo>
2.552 

> <ROCS_ColorScore>
-4.104

> <ROCS_Overlap>
1829.692

> <ROCS_Rank>
414                 

$$$$
untitled-dbase-564866_9
  -OEChem-02092423213D

 25 25  0     0  0  0  0  0  0999 V2000
    8.4008   12.4907   24.3002 C   0  0  0  0  0  0  0  0  0  0  0  0
    7.4864   11.9756   25.2123 C   0  0  0  0  0  0  0  0  0  0  0  0
    8.8331   10.2723   23.5598 C   0  0  0  0  0  0  0  0  0  0  0  0
    9.0911   11.6296   23.4546 C   0  0  0  0  0  0  0  0  0  0  0  0
    7.3001   10.6029   25.2386 C   0  0  0  0  0  0  0  0  0  0  0  0
   10.0509   12.1378   22.4903 C   0  0  0  0  0  0  0  0  0  0  0  0
    5.5136    7.8887   25.7215 C   0  0  0  0  0  0  0  0  0  0  0  0
   11.6147   13.8904   22.0626 C   0  0  0  0  0  0  0  0  0  0  0  0
    6.3696    8.7327   26.6033 C   0  0  0  0  0  0  0  0  0  0  0  0
    7.9522    9.7348   24.4331 N   0  0  0  0  0  0  0  0  0  0  0  0
    6.3661   10.0933   26.1746 N   0  0  0  0  0  0  0  0  0  0  0  0
   10.3043   11.6015   21.4022 O   0  0  0  0  0  0  0  0  0  0  0  0
   10.6464   13.2896   22.9293 O   0  0  0  0  0  0  0  0  0  0  0  0
    8.5686   13.5634   24.2579 H   0  0  0  0  0  0  0  0  0  0  0  0
    6.9428   12.6404   25.8759 H   0  0  0  0  0  0  0  0  0  0  0  0
    9.3409    9.5502   22.9273 H   0  0  0  0  0  0  0  0  0  0  0  0
    5.8905    7.9364   24.6892 H   0  0  0  0  0  0  0  0  0  0  0  0
    5.5398    6.8469   26.0735 H   0  0  0  0  0  0  0  0  0  0  0  0
    4.4785    8.2599   25.7513 H   0  0  0  0  0  0  0  0  0  0  0  0
   12.0101   14.7960   22.5290 H   0  0  0  0  0  0  0  0  0  0  0  0
   11.1466   14.1350   21.1058 H   0  0  0  0  0  0  0  0  0  0  0  0
   12.4305   13.1829   21.8965 H   0  0  0  0  0  0  0  0  0  0  0  0
    5.9864    8.6797   27.6330 H   0  0  0  0  0  0  0  0  0  0  0  0
    7.4006    8.3502   26.5756 H   0  0  0  0  0  0  0  0  0  0  0  0
    5.6899   10.7385   26.5290 H   0  0  0  0  0  0  0  0  0  0  0  0
  1  2  2  0  0  0  0
  1  4  1  0  0  0  0
  2  5  1  0  0  0  0
  3  4  2  0  0  0  0
  3 10  1  0  0  0  0
  4  6  1  0  0  0  0
  5 10  2  0  0  0  0
  5 11  1  0  0  0  0
  6 12  2  0  0  0  0
  6 13  1  0  0  0  0
  7  9  1  0  0  0  0
  8 13  1  0  0  0  0
  9 11  1  0  0  0  0
  1 14  1  0  0  0  0
  2 15  1  0  0  0  0
  3 16  1  0  0  0  0
  7 17  1  0  0  0  0
  7 18  1  0  0  0  0
  7 19  1  0  0  0  0
  8 20  1  0  0  0  0
  8 21  1  0  0  0  0
  8 22  1  0  0  0  0
  9 23  1  0  0  0  0
  9 24  1  0  0  0  0
 11 25  1  0  0  0  0
M  END
> <id>
EN300-6510128

> <smiles>
CCNC=1C=CC(=CN1)C(=O)OC

> <MDLNUMBER>
MFCD20661507

> <IUPAC Name>
methyl 6-(ethylamino)pyridine-3-carboxylate

> <URL>
https://www.enaminestore.com/catalog/EN300-6510128

> <ROCS_ShapeQuery>
_x1140_x0812_0A_x1140_0A_x1097_0A_x0365_0A_x1097_0A_x0310_0A

> <ROCS_TanimotoCombo>
0.609 

> <ROCS_ShapeTanimoto>
0.214 

> <ROCS_ColorTanimoto>
0.396 

> <ROCS_RefTversky>
0.194 

> <ROCS_RefColorTversky>
0.436 

> <ROCS_RefTverskyCombo>
0.631 

> <ROCS_FitTversky>
1.855 

> <ROCS_FitColorTversky>
0.810 

> <ROCS_FitTverskyCombo>
2.665 

> <ROCS_ColorScore>
-3.403

> <ROCS_Overlap>
1992.654

> <ROCS_Rank>
415                 

$$$$
untitled-dbase-395688_7
  -OEChem-02092423213D

 25 25  0     0  0  0  0  0  0999 V2000
    7.5442   12.0851   25.1994 C   0  0  0  0  0  0  0  0  0  0  0  0
    7.4639   10.7252   25.4522 C   0  0  0  0  0  0  0  0  0  0  0  0
    9.2191   11.5841   23.5477 C   0  0  0  0  0  0  0  0  0  0  0  0
    8.4410   12.5145   24.2275 C   0  0  0  0  0  0  0  0  0  0  0  0
    9.0639   10.2466   23.8745 C   0  0  0  0  0  0  0  0  0  0  0  0
   10.1649   12.0181   22.5250 C   0  0  0  0  0  0  0  0  0  0  0  0
    8.5457   13.9759   23.9369 C   0  0  0  0  0  0  0  0  0  0  0  0
   11.3969   14.1301   21.0228 C   0  0  0  0  0  0  0  0  0  0  0  0
   12.0889   13.3663   22.1316 C   0  0  0  0  0  0  0  0  0  0  0  0
    8.2032    9.7915   24.8125 N   0  0  0  0  0  0  0  0  0  0  0  0
    9.8527    9.2900   23.1872 N   0  0  0  0  0  0  0  0  0  0  0  0
   10.1226   11.6624   21.3426 O   0  0  0  0  0  0  0  0  0  0  0  0
   11.1018   12.8684   23.0412 O   0  0  0  0  0  0  0  0  0  0  0  0
    6.9228   12.7850   25.7476 H   0  0  0  0  0  0  0  0  0  0  0  0
    6.7799   10.3389   26.2007 H   0  0  0  0  0  0  0  0  0  0  0  0
    9.3050   14.4372   24.5789 H   0  0  0  0  0  0  0  0  0  0  0  0
    8.8188   14.1531   22.8894 H   0  0  0  0  0  0  0  0  0  0  0  0
    7.5882   14.4833   24.1076 H   0  0  0  0  0  0  0  0  0  0  0  0
   10.7102   13.4816   20.4718 H   0  0  0  0  0  0  0  0  0  0  0  0
   10.8340   14.9764   21.4301 H   0  0  0  0  0  0  0  0  0  0  0  0
   12.1307   14.5434   20.3229 H   0  0  0  0  0  0  0  0  0  0  0  0
   12.7742   14.0206   22.6787 H   0  0  0  0  0  0  0  0  0  0  0  0
   12.6502   12.5207   21.7230 H   0  0  0  0  0  0  0  0  0  0  0  0
   10.4587    9.6002   22.4596 H   0  0  0  0  0  0  0  0  0  0  0  0
    9.7136    8.3228   23.3827 H   0  0  0  0  0  0  0  0  0  0  0  0
  1  2  1  0  0  0  0
  1  4  2  0  0  0  0
  2 10  2  0  0  0  0
  3  4  1  0  0  0  0
  3  5  2  0  0  0  0
  3  6  1  0  0  0  0
  4  7  1  0  0  0  0
  5 10  1  0  0  0  0
  5 11  1  0  0  0  0
  6 12  2  0  0  0  0
  6 13  1  0  0  0  0
  8  9  1  0  0  0  0
  9 13  1  0  0  0  0
  1 14  1  0  0  0  0
  2 15  1  0  0  0  0
  7 16  1  0  0  0  0
  7 17  1  0  0  0  0
  7 18  1  0  0  0  0
  8 19  1  0  0  0  0
  8 20  1  0  0  0  0
  8 21  1  0  0  0  0
  9 22  1  0  0  0  0
  9 23  1  0  0  0  0
 11 24  1  0  0  0  0
 11 25  1  0  0  0  0
M  END
> <id>
EN300-2922361

> <smiles>
CCOC(=O)C=1C(C)=CC=NC1N

> <MDLNUMBER>
MFCD16610931

> <IUPAC Name>
ethyl 2-amino-4-methylpyridine-3-carboxylate

> <CAS>
1227575-23-6

> <URL>
https://www.enaminestore.com/catalog/EN300-2922361

> <ROCS_ShapeQuery>
_x1140_x0812_0A_x1140_0A_x1097_0A_x0365_0A_x1097_0A_x0310_0A

> <ROCS_TanimotoCombo>
0.609 

> <ROCS_ShapeTanimoto>
0.235 

> <ROCS_ColorTanimoto>
0.375 

> <ROCS_RefTversky>
0.210 

> <ROCS_RefColorTversky>
0.452 

> <ROCS_RefTverskyCombo>
0.662 

> <ROCS_FitTversky>
1.997 

> <ROCS_FitColorTversky>
0.687 

> <ROCS_FitTverskyCombo>
2.685 

> <ROCS_ColorScore>
-3.545

> <ROCS_Overlap>
2153.070

> <ROCS_Rank>
416                 

$$$$
untitled-dbase-131115_3
  -OEChem-02092423213D

 22 22  0     0  0  0  0  0  0999 V2000
    7.6677   10.5895   25.3590 C   0  0  0  0  0  0  0  0  0  0  0  0
    8.1320   11.8412   25.7052 C   0  0  0  0  0  0  0  0  0  0  0  0
    9.1249   10.8595   23.7423 C   0  0  0  0  0  0  0  0  0  0  0  0
    9.9151   10.5710   22.5461 C   0  0  0  0  0  0  0  0  0  0  0  0
   10.1232    7.9959   22.7254 C   0  0  0  0  0  0  0  0  0  0  0  0
   11.6192    9.3176   21.1909 C   0  0  0  0  0  0  0  0  0  0  0  0
   11.8639    9.4906   23.6728 C   0  0  0  0  0  0  0  0  0  0  0  0
   10.8503    9.3338   22.5189 C   0  0  0  0  0  0  0  0  0  0  0  0
    8.2356   10.0252   24.2335 N   0  0  0  0  0  0  0  0  0  0  0  0
    9.8457   11.3062   21.5582 O   0  0  0  0  0  0  0  0  0  0  0  0
    9.3298   12.3408   24.5841 S   0  0  0  0  0  0  0  0  0  0  0  0
    6.9072   10.0397   25.8973 H   0  0  0  0  0  0  0  0  0  0  0  0
    7.8345   12.4643   26.5362 H   0  0  0  0  0  0  0  0  0  0  0  0
   10.8096    7.1441   22.7008 H   0  0  0  0  0  0  0  0  0  0  0  0
    9.6217    7.9659   23.6999 H   0  0  0  0  0  0  0  0  0  0  0  0
    9.3606    7.8343   21.9549 H   0  0  0  0  0  0  0  0  0  0  0  0
   12.2949    8.4598   21.1242 H   0  0  0  0  0  0  0  0  0  0  0  0
   12.2242   10.2236   21.0724 H   0  0  0  0  0  0  0  0  0  0  0  0
   10.9352    9.2571   20.3365 H   0  0  0  0  0  0  0  0  0  0  0  0
   12.5561    8.6409   23.7048 H   0  0  0  0  0  0  0  0  0  0  0  0
   12.4571   10.4055   23.5625 H   0  0  0  0  0  0  0  0  0  0  0  0
   11.3633    9.5414   24.6467 H   0  0  0  0  0  0  0  0  0  0  0  0
  1  2  2  0  0  0  0
  1  9  1  0  0  0  0
  2 11  1  0  0  0  0
  3  4  1  0  0  0  0
  3  9  2  0  0  0  0
  3 11  1  0  0  0  0
  4  8  1  0  0  0  0
  4 10  2  0  0  0  0
  5  8  1  0  0  0  0
  6  8  1  0  0  0  0
  7  8  1  0  0  0  0
  1 12  1  0  0  0  0
  2 13  1  0  0  0  0
  5 14  1  0  0  0  0
  5 15  1  0  0  0  0
  5 16  1  0  0  0  0
  6 17  1  0  0  0  0
  6 18  1  0  0  0  0
  6 19  1  0  0  0  0
  7 20  1  0  0  0  0
  7 21  1  0  0  0  0
  7 22  1  0  0  0  0
M  END
> <id>
EN300-1268898

> <smiles>
CC(C)(C)C(=O)C1=NC=CS1

> <MDLNUMBER>
MFCD06201649

> <IUPAC Name>
2,2-dimethyl-1-(1,3-thiazol-2-yl)propan-1-one

> <CAS>
87978-53-8

> <URL>
https://www.enaminestore.com/catalog/EN300-1268898

> <ROCS_ShapeQuery>
_x1140_x0812_0A_x1140_0A_x1097_0A_x0365_0A_x1097_0A_x0310_0A

> <ROCS_TanimotoCombo>
0.609 

> <ROCS_ShapeTanimoto>
0.170 

> <ROCS_ColorTanimoto>
0.440 

> <ROCS_RefTversky>
0.159 

> <ROCS_RefColorTversky>
0.470 

> <ROCS_RefTverskyCombo>
0.629 

> <ROCS_FitTversky>
1.677 

> <ROCS_FitColorTversky>
0.872 

> <ROCS_FitTverskyCombo>
2.549 

> <ROCS_ColorScore>
-3.664

> <ROCS_Overlap>
1626.917

> <ROCS_Rank>
417                 

$$$$
untitled-dbase-120509_1
  -OEChem-02092423213D

 19 19  0     0  0  0  0  0  0999 V2000
    8.8714   12.5187   24.4691 C   0  0  0  0  0  0  0  0  0  0  0  0
    7.8849   10.5234   25.3071 C   0  0  0  0  0  0  0  0  0  0  0  0
    9.4127   11.7766   23.4253 C   0  0  0  0  0  0  0  0  0  0  0  0
    8.0917   11.8877   25.4320 C   0  0  0  0  0  0  0  0  0  0  0  0
    9.1470   10.4172   23.3903 C   0  0  0  0  0  0  0  0  0  0  0  0
   10.9000    8.7421   22.7518 C   0  0  0  0  0  0  0  0  0  0  0  0
    9.7007    9.5661   22.2940 C   0  0  0  0  0  0  0  0  0  0  0  0
    8.3943    9.7691   24.3074 N   0  0  0  0  0  0  0  0  0  0  0  0
   10.2030   12.4049   22.4461 N   0  0  0  0  0  0  0  0  0  0  0  0
    7.5594   12.5761   26.4478 F   0  0  0  0  0  0  0  0  0  0  0  0
    9.0510   13.5877   24.5436 H   0  0  0  0  0  0  0  0  0  0  0  0
    7.2847    9.9847   26.0329 H   0  0  0  0  0  0  0  0  0  0  0  0
   11.6941    9.3868   23.1436 H   0  0  0  0  0  0  0  0  0  0  0  0
   11.3123    8.1649   21.9183 H   0  0  0  0  0  0  0  0  0  0  0  0
   10.6163    8.0400   23.5431 H   0  0  0  0  0  0  0  0  0  0  0  0
    8.9233    8.8894   21.9071 H   0  0  0  0  0  0  0  0  0  0  0  0
    9.9970   10.1920   21.4381 H   0  0  0  0  0  0  0  0  0  0  0  0
   10.3327   13.3977   22.4815 H   0  0  0  0  0  0  0  0  0  0  0  0
   10.5479   11.8679   21.6738 H   0  0  0  0  0  0  0  0  0  0  0  0
  1  3  1  0  0  0  0
  1  4  2  0  0  0  0
  2  4  1  0  0  0  0
  2  8  2  0  0  0  0
  3  5  2  0  0  0  0
  3  9  1  0  0  0  0
  4 10  1  0  0  0  0
  5  7  1  0  0  0  0
  5  8  1  0  0  0  0
  6  7  1  0  0  0  0
  1 11  1  0  0  0  0
  2 12  1  0  0  0  0
  6 13  1  0  0  0  0
  6 14  1  0  0  0  0
  6 15  1  0  0  0  0
  7 16  1  0  0  0  0
  7 17  1  0  0  0  0
  9 18  1  0  0  0  0
  9 19  1  0  0  0  0
M  END
> <id>
EN300-814470

> <smiles>
CCC=1N=CC(F)=CC1N

> <MDLNUMBER>
MFCD31602749

> <IUPAC Name>
2-ethyl-5-fluoropyridin-3-amine

> <CAS>
1935885-00-9

> <Purity>
95

> <URL>
https://www.enaminestore.com/catalog/EN300-814470

> <ROCS_ShapeQuery>
_x1140_x0812_0A_x1140_0A_x1097_0A_x0365_0A_x1097_0A_x0310_0A

> <ROCS_TanimotoCombo>
0.609 

> <ROCS_ShapeTanimoto>
0.199 

> <ROCS_ColorTanimoto>
0.410 

> <ROCS_RefTversky>
0.181 

> <ROCS_RefColorTversky>
0.482 

> <ROCS_RefTverskyCombo>
0.663 

> <ROCS_FitTversky>
1.960 

> <ROCS_FitColorTversky>
0.734 

> <ROCS_FitTverskyCombo>
2.694 

> <ROCS_ColorScore>
-3.781

> <ROCS_Overlap>
1858.092

> <ROCS_Rank>
418                 

$$$$
untitled-dbase-63760_7
  -OEChem-02092423213D

 34 34  0     0  0  0  0  0  0999 V2000
    7.3198   11.5880   25.9114 C   0  0  0  0  0  0  0  0  0  0  0  0
    8.4450   12.3352   23.9214 C   0  0  0  0  0  0  0  0  0  0  0  0
    7.6426   10.2921   25.5424 C   0  0  0  0  0  0  0  0  0  0  0  0
    7.7323   12.6233   25.0800 C   0  0  0  0  0  0  0  0  0  0  0  0
    8.7177   11.0058   23.6416 C   0  0  0  0  0  0  0  0  0  0  0  0
    9.4752   10.6386   22.4186 C   0  0  0  0  0  0  0  0  0  0  0  0
   11.6673    9.2694   23.6113 C   0  0  0  0  0  0  0  0  0  0  0  0
   10.9327    7.2959   22.2422 C   0  0  0  0  0  0  0  0  0  0  0  0
   11.6812    9.4027   21.0980 C   0  0  0  0  0  0  0  0  0  0  0  0
    6.6821   14.2663   26.6155 C   0  0  0  0  0  0  0  0  0  0  0  0
    7.8651   15.0458   24.5561 C   0  0  0  0  0  0  0  0  0  0  0  0
   10.9786    8.8202   22.3235 C   0  0  0  0  0  0  0  0  0  0  0  0
    8.3334    9.9732   24.4250 N   0  0  0  0  0  0  0  0  0  0  0  0
    7.4268   13.9592   25.4102 N   0  0  0  0  0  0  0  0  0  0  0  0
    9.8884   11.4599   21.6148 O   0  0  0  0  0  0  0  0  0  0  0  0
    9.6304    9.2908   22.3412 O   0  0  0  0  0  0  0  0  0  0  0  0
    6.7630   11.7783   26.8227 H   0  0  0  0  0  0  0  0  0  0  0  0
    8.7779   13.1270   23.2571 H   0  0  0  0  0  0  0  0  0  0  0  0
    7.3438    9.4491   26.1567 H   0  0  0  0  0  0  0  0  0  0  0  0
   11.7023   10.3630   23.6735 H   0  0  0  0  0  0  0  0  0  0  0  0
   11.1525    8.8870   24.4987 H   0  0  0  0  0  0  0  0  0  0  0  0
   12.7074    8.9248   23.6392 H   0  0  0  0  0  0  0  0  0  0  0  0
   10.4393    6.9691   21.3197 H   0  0  0  0  0  0  0  0  0  0  0  0
   10.3477    6.8783   23.0697 H   0  0  0  0  0  0  0  0  0  0  0  0
   11.9362    6.8593   22.2720 H   0  0  0  0  0  0  0  0  0  0  0  0
   11.1873    9.0806   20.1741 H   0  0  0  0  0  0  0  0  0  0  0  0
   11.6910   10.4973   21.1211 H   0  0  0  0  0  0  0  0  0  0  0  0
   12.7158    9.0464   21.0360 H   0  0  0  0  0  0  0  0  0  0  0  0
    6.5459   15.3549   26.6957 H   0  0  0  0  0  0  0  0  0  0  0  0
    5.6983   13.7760   26.5735 H   0  0  0  0  0  0  0  0  0  0  0  0
    7.2368   13.9007   27.4923 H   0  0  0  0  0  0  0  0  0  0  0  0
    7.5312   16.0041   24.9805 H   0  0  0  0  0  0  0  0  0  0  0  0
    8.9630   15.0380   24.4874 H   0  0  0  0  0  0  0  0  0  0  0  0
    7.4341   14.9195   23.5520 H   0  0  0  0  0  0  0  0  0  0  0  0
  1  3  2  0  0  0  0
  1  4  1  0  0  0  0
  2  4  2  0  0  0  0
  2  5  1  0  0  0  0
  3 13  1  0  0  0  0
  4 14  1  0  0  0  0
  5  6  1  0  0  0  0
  5 13  2  0  0  0  0
  6 15  2  0  0  0  0
  6 16  1  0  0  0  0
  7 12  1  0  0  0  0
  8 12  1  0  0  0  0
  9 12  1  0  0  0  0
 10 14  1  0  0  0  0
 11 14  1  0  0  0  0
 12 16  1  0  0  0  0
  1 17  1  0  0  0  0
  2 18  1  0  0  0  0
  3 19  1  0  0  0  0
  7 20  1  0  0  0  0
  7 21  1  0  0  0  0
  7 22  1  0  0  0  0
  8 23  1  0  0  0  0
  8 24  1  0  0  0  0
  8 25  1  0  0  0  0
  9 26  1  0  0  0  0
  9 27  1  0  0  0  0
  9 28  1  0  0  0  0
 10 29  1  0  0  0  0
 10 30  1  0  0  0  0
 10 31  1  0  0  0  0
 11 32  1  0  0  0  0
 11 33  1  0  0  0  0
 11 34  1  0  0  0  0
M  END
> <id>
EN300-267115

> <smiles>
CN(C)C=1C=CN=C(C1)C(=O)OC(C)(C)C

> <MDLNUMBER>
MFCD29991539

> <IUPAC Name>
tert-butyl 4-(dimethylamino)pyridine-2-carboxylate

> <CAS>
1955498-61-9

> <Purity>
95

> <URL>
https://www.enaminestore.com/catalog/EN300-267115

> <ROCS_ShapeQuery>
_x1140_x0812_0A_x1140_0A_x1097_0A_x0365_0A_x1097_0A_x0310_0A

> <ROCS_TanimotoCombo>
0.609 

> <ROCS_ShapeTanimoto>
0.217 

> <ROCS_ColorTanimoto>
0.393 

> <ROCS_RefTversky>
0.199 

> <ROCS_RefColorTversky>
0.434 

> <ROCS_RefTverskyCombo>
0.633 

> <ROCS_FitTversky>
1.694 

> <ROCS_FitColorTversky>
0.806 

> <ROCS_FitTverskyCombo>
2.499 

> <ROCS_ColorScore>
-3.383

> <ROCS_Overlap>
2040.251

> <ROCS_Rank>
419                 

$$$$
untitled-dbase-565455_1
  -OEChem-02092423213D

 30 30  0     0  0  0  0  0  0999 V2000
   11.0071    8.7932   22.5283 C   0  0  0  0  0  0  0  0  0  0  0  0
   10.2389    9.5446   23.0640 C   0  0  0  0  0  0  0  0  0  0  0  0
    8.4516   12.5968   24.1890 C   0  0  0  0  0  0  0  0  0  0  0  0
    7.5214   10.6128   25.1138 C   0  0  0  0  0  0  0  0  0  0  0  0
    9.3251   10.4391   23.7015 C   0  0  0  0  0  0  0  0  0  0  0  0
    9.3861   11.8117   23.5229 C   0  0  0  0  0  0  0  0  0  0  0  0
    7.4981   11.9936   25.0016 C   0  0  0  0  0  0  0  0  0  0  0  0
   10.5288   13.7699   22.4408 C   0  0  0  0  0  0  0  0  0  0  0  0
   12.7451   14.5671   23.5928 C   0  0  0  0  0  0  0  0  0  0  0  0
   13.9561   14.1827   21.4260 C   0  0  0  0  0  0  0  0  0  0  0  0
   12.4410   16.1701   21.6764 C   0  0  0  0  0  0  0  0  0  0  0  0
   12.6790   14.7139   22.0733 C   0  0  0  0  0  0  0  0  0  0  0  0
    8.4135    9.8172   24.4825 N   0  0  0  0  0  0  0  0  0  0  0  0
   10.3582   12.4236   22.6991 N   0  0  0  0  0  0  0  0  0  0  0  0
    9.8691   14.7062   22.8752 O   0  0  0  0  0  0  0  0  0  0  0  0
   11.5909   13.9266   21.5876 O   0  0  0  0  0  0  0  0  0  0  0  0
    6.5874   12.7248   25.6541 F   0  0  0  0  0  0  0  0  0  0  0  0
   11.6886    8.1271   22.0529 H   0  0  0  0  0  0  0  0  0  0  0  0
    8.4556   13.6783   24.0827 H   0  0  0  0  0  0  0  0  0  0  0  0
    6.7985   10.0940   25.7348 H   0  0  0  0  0  0  0  0  0  0  0  0
   11.8302   14.9473   24.0612 H   0  0  0  0  0  0  0  0  0  0  0  0
   12.8806   13.5226   23.8916 H   0  0  0  0  0  0  0  0  0  0  0  0
   13.5719   15.1556   24.0069 H   0  0  0  0  0  0  0  0  0  0  0  0
   13.9130   14.2860   20.3357 H   0  0  0  0  0  0  0  0  0  0  0  0
   14.0813   13.1131   21.6300 H   0  0  0  0  0  0  0  0  0  0  0  0
   14.8433   14.7112   21.7895 H   0  0  0  0  0  0  0  0  0  0  0  0
   12.3935   16.2757   20.5865 H   0  0  0  0  0  0  0  0  0  0  0  0
   11.5094   16.5571   22.1019 H   0  0  0  0  0  0  0  0  0  0  0  0
   13.2680   16.8058   22.0129 H   0  0  0  0  0  0  0  0  0  0  0  0
   11.0128   11.7951   22.2397 H   0  0  0  0  0  0  0  0  0  0  0  0
  1  2  3  0  0  0  0
  2  5  1  0  0  0  0
  3  6  1  0  0  0  0
  3  7  2  0  0  0  0
  4  7  1  0  0  0  0
  4 13  2  0  0  0  0
  5  6  2  0  0  0  0
  5 13  1  0  0  0  0
  6 14  1  0  0  0  0
  7 17  1  0  0  0  0
  8 14  1  0  0  0  0
  8 15  2  0  0  0  0
  8 16  1  0  0  0  0
  9 12  1  0  0  0  0
 10 12  1  0  0  0  0
 11 12  1  0  0  0  0
 12 16  1  0  0  0  0
  1 18  1  0  0  0  0
  3 19  1  0  0  0  0
  4 20  1  0  0  0  0
  9 21  1  0  0  0  0
  9 22  1  0  0  0  0
  9 23  1  0  0  0  0
 10 24  1  0  0  0  0
 10 25  1  0  0  0  0
 10 26  1  0  0  0  0
 11 27  1  0  0  0  0
 11 28  1  0  0  0  0
 11 29  1  0  0  0  0
 14 30  1  0  0  0  0
M  END
> <id>
EN300-37397014

> <smiles>
CC(C)(C)OC(=O)NC=1C=C(F)C=NC1C#C

> <IUPAC Name>
tert-butyl N-(2-ethynyl-5-fluoropyridin-3-yl)carbamate

> <CAS>
2770501-85-2

> <URL>
https://www.enaminestore.com/catalog/EN300-37397014

> <ROCS_ShapeQuery>
_x1140_x0812_0A_x1140_0A_x1097_0A_x0365_0A_x1097_0A_x0310_0A

> <ROCS_TanimotoCombo>
0.609 

> <ROCS_ShapeTanimoto>
0.250 

> <ROCS_ColorTanimoto>
0.359 

> <ROCS_RefTversky>
0.225 

> <ROCS_RefColorTversky>
0.468 

> <ROCS_RefTverskyCombo>
0.693 

> <ROCS_FitTversky>
1.839 

> <ROCS_FitColorTversky>
0.606 

> <ROCS_FitTverskyCombo>
2.446 

> <ROCS_ColorScore>
-3.699

> <ROCS_Overlap>
2302.990

> <ROCS_Rank>
420                 

$$$$
untitled-dbase-418937_1
  -OEChem-02092423213D

 20 20  0     0  0  0  0  0  0999 V2000
    7.4213   12.0258   25.0953 C   0  0  0  0  0  0  0  0  0  0  0  0
    8.2862   12.4356   24.0868 C   0  0  0  0  0  0  0  0  0  0  0  0
    7.4096   10.6822   25.4334 C   0  0  0  0  0  0  0  0  0  0  0  0
    9.1016   11.5025   23.4560 C   0  0  0  0  0  0  0  0  0  0  0  0
    9.0148   10.1823   23.8677 C   0  0  0  0  0  0  0  0  0  0  0  0
   10.0005   11.9409   22.3973 C   0  0  0  0  0  0  0  0  0  0  0  0
   11.9083   13.4489   21.7954 C   0  0  0  0  0  0  0  0  0  0  0  0
    8.1868    9.7465   24.8435 N   0  0  0  0  0  0  0  0  0  0  0  0
    9.8411    9.2244   23.2276 N   0  0  0  0  0  0  0  0  0  0  0  0
   10.9617   12.8981   22.7385 N   0  0  0  0  0  0  0  0  0  0  0  0
    9.8859   11.4864   21.2463 O   0  0  0  0  0  0  0  0  0  0  0  0
    6.7754   12.7356   25.5995 H   0  0  0  0  0  0  0  0  0  0  0  0
    8.3158   13.4838   23.8009 H   0  0  0  0  0  0  0  0  0  0  0  0
    6.7527   10.3117   26.2135 H   0  0  0  0  0  0  0  0  0  0  0  0
   12.8466   12.8765   21.8403 H   0  0  0  0  0  0  0  0  0  0  0  0
   11.4907   13.3890   20.7795 H   0  0  0  0  0  0  0  0  0  0  0  0
   12.1080   14.5006   22.0483 H   0  0  0  0  0  0  0  0  0  0  0  0
   10.4218    9.5182   22.4732 H   0  0  0  0  0  0  0  0  0  0  0  0
    9.7521    8.2656   23.4838 H   0  0  0  0  0  0  0  0  0  0  0  0
   10.9699   13.2815   23.6780 H   0  0  0  0  0  0  0  0  0  0  0  0
  1  2  2  0  0  0  0
  1  3  1  0  0  0  0
  2  4  1  0  0  0  0
  3  8  2  0  0  0  0
  4  5  2  0  0  0  0
  4  6  1  0  0  0  0
  5  8  1  0  0  0  0
  5  9  1  0  0  0  0
  6 10  1  0  0  0  0
  6 11  2  0  0  0  0
  7 10  1  0  0  0  0
  1 12  1  0  0  0  0
  2 13  1  0  0  0  0
  3 14  1  0  0  0  0
  7 15  1  0  0  0  0
  7 16  1  0  0  0  0
  7 17  1  0  0  0  0
  9 18  1  0  0  0  0
  9 19  1  0  0  0  0
 10 20  1  0  0  0  0
M  END
> <id>
EN300-213808

> <smiles>
CNC(=O)C=1C=CC=NC1N

> <MDLNUMBER>
MFCD11520028

> <IUPAC Name>
2-amino-N-methylpyridine-3-carboxamide

> <CAS>
870997-87-8

> <Purity>
95

> <URL>
https://www.enaminestore.com/catalog/EN300-213808

> <ROCS_ShapeQuery>
_x1140_x0812_0A_x1140_0A_x1097_0A_x0365_0A_x1097_0A_x0310_0A

> <ROCS_TanimotoCombo>
0.609 

> <ROCS_ShapeTanimoto>
0.216 

> <ROCS_ColorTanimoto>
0.394 

> <ROCS_RefTversky>
0.195 

> <ROCS_RefColorTversky>
0.501 

> <ROCS_RefTverskyCombo>
0.695 

> <ROCS_FitTversky>
2.004 

> <ROCS_FitColorTversky>
0.648 

> <ROCS_FitTverskyCombo>
2.652 

> <ROCS_ColorScore>
-3.956

> <ROCS_Overlap>
1994.016

> <ROCS_Rank>
421                 

$$$$
untitled-dbase-350078_8
  -OEChem-02092423213D

 31 32  0     0  0  0  0  0  0999 V2000
   11.9166   15.2088   22.3426 C   0  0  0  0  0  0  0  0  0  0  0  0
    5.4041   10.6682   26.8065 C   0  0  0  0  0  0  0  0  0  0  0  0
    6.4991    9.9519   26.3169 C   0  0  0  0  0  0  0  0  0  0  0  0
    7.8884   12.2949   23.8505 C   0  0  0  0  0  0  0  0  0  0  0  0
    5.9461   12.4865   25.3312 C   0  0  0  0  0  0  0  0  0  0  0  0
    7.0474   11.7658   24.8389 C   0  0  0  0  0  0  0  0  0  0  0  0
    8.9679   11.5580   23.3851 C   0  0  0  0  0  0  0  0  0  0  0  0
    5.1269   11.9371   26.3132 C   0  0  0  0  0  0  0  0  0  0  0  0
    7.3347   10.4769   25.3349 C   0  0  0  0  0  0  0  0  0  0  0  0
    9.1689   10.3064   23.9307 C   0  0  0  0  0  0  0  0  0  0  0  0
    9.8376   12.1113   22.3584 C   0  0  0  0  0  0  0  0  0  0  0  0
    3.9596   12.7049   26.8325 C   0  0  0  0  0  0  0  0  0  0  0  0
   10.3112    9.4577   23.4752 C   0  0  0  0  0  0  0  0  0  0  0  0
   11.3762   13.9912   21.7408 C   0  0  0  0  0  0  0  0  0  0  0  0
   12.3478   16.1758   22.8174 N   0  0  0  0  0  0  0  0  0  0  0  0
    8.3817    9.7595   24.8852 N   0  0  0  0  0  0  0  0  0  0  0  0
   10.4986   13.3067   22.6628 N   0  0  0  0  0  0  0  0  0  0  0  0
    9.9573   11.5422   21.2592 O   0  0  0  0  0  0  0  0  0  0  0  0
    4.7763   10.2235   27.5742 H   0  0  0  0  0  0  0  0  0  0  0  0
    6.6958    8.9602   26.7202 H   0  0  0  0  0  0  0  0  0  0  0  0
    7.6966   13.2865   23.4445 H   0  0  0  0  0  0  0  0  0  0  0  0
    5.7273   13.4807   24.9456 H   0  0  0  0  0  0  0  0  0  0  0  0
    4.2559   13.3155   27.6945 H   0  0  0  0  0  0  0  0  0  0  0  0
    3.5442   13.3689   26.0629 H   0  0  0  0  0  0  0  0  0  0  0  0
    3.1476   12.0345   27.1444 H   0  0  0  0  0  0  0  0  0  0  0  0
   11.1983    9.6555   24.0875 H   0  0  0  0  0  0  0  0  0  0  0  0
   10.0658    8.3913   23.5485 H   0  0  0  0  0  0  0  0  0  0  0  0
   10.5585    9.6575   22.4254 H   0  0  0  0  0  0  0  0  0  0  0  0
   10.7976   14.2195   20.8411 H   0  0  0  0  0  0  0  0  0  0  0  0
   12.1766   13.2972   21.4691 H   0  0  0  0  0  0  0  0  0  0  0  0
   10.3164   13.7623   23.5511 H   0  0  0  0  0  0  0  0  0  0  0  0
  1 14  1  0  0  0  0
  1 15  3  0  0  0  0
  2  3  2  0  0  0  0
  2  8  1  0  0  0  0
  3  9  1  0  0  0  0
  4  6  1  0  0  0  0
  4  7  2  0  0  0  0
  5  6  1  0  0  0  0
  5  8  2  0  0  0  0
  6  9  2  0  0  0  0
  7 10  1  0  0  0  0
  7 11  1  0  0  0  0
  8 12  1  0  0  0  0
  9 16  1  0  0  0  0
 10 13  1  0  0  0  0
 10 16  2  0  0  0  0
 11 17  1  0  0  0  0
 11 18  2  0  0  0  0
 14 17  1  0  0  0  0
  2 19  1  0  0  0  0
  3 20  1  0  0  0  0
  4 21  1  0  0  0  0
  5 22  1  0  0  0  0
 12 23  1  0  0  0  0
 12 24  1  0  0  0  0
 12 25  1  0  0  0  0
 13 26  1  0  0  0  0
 13 27  1  0  0  0  0
 13 28  1  0  0  0  0
 14 29  1  0  0  0  0
 14 30  1  0  0  0  0
 17 31  1  0  0  0  0
M  END
> <id>
EN300-26685629

> <smiles>
CC=1C=CC=2N=C(C)C(=CC2C1)C(=O)NCC#N

> <IUPAC Name>
N-(cyanomethyl)-2,6-dimethylquinoline-3-carboxamide

> <CAS>
1311929-69-7

> <URL>
https://www.enaminestore.com/catalog/EN300-26685629

> <ROCS_ShapeQuery>
_x1140_x0812_0A_x1140_0A_x1097_0A_x0365_0A_x1097_0A_x0310_0A

> <ROCS_TanimotoCombo>
0.609 

> <ROCS_ShapeTanimoto>
0.267 

> <ROCS_ColorTanimoto>
0.343 

> <ROCS_RefTversky>
0.237 

> <ROCS_RefColorTversky>
0.452 

> <ROCS_RefTverskyCombo>
0.690 

> <ROCS_FitTversky>
1.863 

> <ROCS_FitColorTversky>
0.585 

> <ROCS_FitTverskyCombo>
2.449 

> <ROCS_ColorScore>
-3.574

> <ROCS_Overlap>
2434.324

> <ROCS_Rank>
422                 

$$$$
untitled-dbase-303499_3
  -OEChem-02092423213D

 23 23  0     0  0  0  0  0  0999 V2000
    8.2223   11.8351   25.5906 C   0  0  0  0  0  0  0  0  0  0  0  0
    9.1763   12.0694   24.5717 C   0  0  0  0  0  0  0  0  0  0  0  0
    7.6930   10.5907   25.3394 C   0  0  0  0  0  0  0  0  0  0  0  0
    9.1621   10.9513   23.7706 C   0  0  0  0  0  0  0  0  0  0  0  0
    9.9225   10.6087   22.5694 C   0  0  0  0  0  0  0  0  0  0  0  0
   10.8285    8.5724   23.8881 C   0  0  0  0  0  0  0  0  0  0  0  0
   10.4083    8.4339   21.4094 C   0  0  0  0  0  0  0  0  0  0  0  0
   12.2792    9.8254   22.3111 C   0  0  0  0  0  0  0  0  0  0  0  0
   10.8316    9.3521   22.5639 C   0  0  0  0  0  0  0  0  0  0  0  0
    9.8486   11.3137   21.5600 O   0  0  0  0  0  0  0  0  0  0  0  0
    8.2606   10.0451   24.2318 O   0  0  0  0  0  0  0  0  0  0  0  0
    7.9536   12.4915   26.4056 H   0  0  0  0  0  0  0  0  0  0  0  0
    9.7950   12.9459   24.4411 H   0  0  0  0  0  0  0  0  0  0  0  0
    6.9442    9.9843   25.8278 H   0  0  0  0  0  0  0  0  0  0  0  0
   11.4785    7.6930   23.8518 H   0  0  0  0  0  0  0  0  0  0  0  0
   11.1912    9.1959   24.7137 H   0  0  0  0  0  0  0  0  0  0  0  0
    9.8193    8.2328   24.1476 H   0  0  0  0  0  0  0  0  0  0  0  0
   11.0231    7.5301   21.3640 H   0  0  0  0  0  0  0  0  0  0  0  0
   10.5002    8.9438   20.4437 H   0  0  0  0  0  0  0  0  0  0  0  0
    9.3668    8.1108   21.5202 H   0  0  0  0  0  0  0  0  0  0  0  0
   12.9725    8.9762   22.2962 H   0  0  0  0  0  0  0  0  0  0  0  0
   12.3669   10.3499   21.3527 H   0  0  0  0  0  0  0  0  0  0  0  0
   12.6220   10.5136   23.0925 H   0  0  0  0  0  0  0  0  0  0  0  0
  1  2  1  0  0  0  0
  1  3  2  0  0  0  0
  2  4  2  0  0  0  0
  3 11  1  0  0  0  0
  4  5  1  0  0  0  0
  4 11  1  0  0  0  0
  5  9  1  0  0  0  0
  5 10  2  0  0  0  0
  6  9  1  0  0  0  0
  7  9  1  0  0  0  0
  8  9  1  0  0  0  0
  1 12  1  0  0  0  0
  2 13  1  0  0  0  0
  3 14  1  0  0  0  0
  6 15  1  0  0  0  0
  6 16  1  0  0  0  0
  6 17  1  0  0  0  0
  7 18  1  0  0  0  0
  7 19  1  0  0  0  0
  7 20  1  0  0  0  0
  8 21  1  0  0  0  0
  8 22  1  0  0  0  0
  8 23  1  0  0  0  0
M  END
> <id>
EN300-108627

> <smiles>
CC(C)(C)C(=O)C1=CC=CO1

> <MDLNUMBER>
MFCD16154992

> <IUPAC Name>
1-(furan-2-yl)-2,2-dimethylpropan-1-one

> <CAS>
4208-54-2

> <Purity>
95

> <URL>
https://www.enaminestore.com/catalog/EN300-108627

> <ROCS_ShapeQuery>
_x1140_x0812_0A_x1140_0A_x1097_0A_x0365_0A_x1097_0A_x0310_0A

> <ROCS_TanimotoCombo>
0.609 

> <ROCS_ShapeTanimoto>
0.174 

> <ROCS_ColorTanimoto>
0.435 

> <ROCS_RefTversky>
0.163 

> <ROCS_RefColorTversky>
0.466 

> <ROCS_RefTverskyCombo>
0.629 

> <ROCS_FitTversky>
1.685 

> <ROCS_FitColorTversky>
0.866 

> <ROCS_FitTverskyCombo>
2.550 

> <ROCS_ColorScore>
-3.637

> <ROCS_Overlap>
1667.416

> <ROCS_Rank>
423                 

$$$$
untitled-dbase-592992_3
  -OEChem-02092423213D

 18 19  0     0  0  0  0  0  0999 V2000
    9.2646   12.5200   24.8785 C   0  0  0  0  0  0  0  0  0  0  0  0
    8.4887   11.7892   25.7748 C   0  0  0  0  0  0  0  0  0  0  0  0
    9.3938   10.4112   22.0236 C   0  0  0  0  0  0  0  0  0  0  0  0
    8.9606   10.6723   23.3356 C   0  0  0  0  0  0  0  0  0  0  0  0
    9.4853   11.9194   23.6428 C   0  0  0  0  0  0  0  0  0  0  0  0
    7.9992   10.5454   25.3906 C   0  0  0  0  0  0  0  0  0  0  0  0
    7.1888    9.7820   26.3266 C   0  0  0  0  0  0  0  0  0  0  0  0
   10.1355   11.4044   21.5246 N   0  0  0  0  0  0  0  0  0  0  0  0
    8.2040    9.9465   24.1935 N   0  0  0  0  0  0  0  0  0  0  0  0
   10.1733   12.3024   22.5266 N   0  0  0  0  0  0  0  0  0  0  0  0
    5.8113    9.9790   26.3007 N   0  0  0  0  0  0  0  0  0  0  0  0
    7.7050    8.9915   27.1359 O   0  0  0  0  0  0  0  0  0  0  0  0
    9.6688   13.4930   25.1300 H   0  0  0  0  0  0  0  0  0  0  0  0
    8.2756   12.1966   26.7588 H   0  0  0  0  0  0  0  0  0  0  0  0
    9.2029    9.5429   21.4092 H   0  0  0  0  0  0  0  0  0  0  0  0
   10.6902   13.1605   22.3801 H   0  0  0  0  0  0  0  0  0  0  0  0
    5.4171   10.6396   25.6397 H   0  0  0  0  0  0  0  0  0  0  0  0
    5.1926    9.4762   26.9287 H   0  0  0  0  0  0  0  0  0  0  0  0
  1  2  2  0  0  0  0
  1  5  1  0  0  0  0
  2  6  1  0  0  0  0
  3  4  1  0  0  0  0
  3  8  2  0  0  0  0
  4  5  2  0  0  0  0
  4  9  1  0  0  0  0
  5 10  1  0  0  0  0
  6  7  1  0  0  0  0
  6  9  2  0  0  0  0
  7 11  1  0  0  0  0
  7 12  2  0  0  0  0
  8 10  1  0  0  0  0
  1 13  1  0  0  0  0
  2 14  1  0  0  0  0
  3 15  1  0  0  0  0
 10 16  1  0  0  0  0
 11 17  1  0  0  0  0
 11 18  1  0  0  0  0
M  END
> <id>
EN300-22192873

> <smiles>
NC(=O)C=1C=CC=2NN=CC2N1

> <MDLNUMBER>
MFCD30528762

> <IUPAC Name>
1H-pyrazolo[4,3-b]pyridine-5-carboxamide

> <CAS>
2168752-80-3

> <Purity>
95

> <URL>
https://www.enaminestore.com/catalog/EN300-22192873

> <ROCS_ShapeQuery>
_x1140_x0812_0A_x1140_0A_x1097_0A_x0365_0A_x1097_0A_x0310_0A

> <ROCS_TanimotoCombo>
0.609 

> <ROCS_ShapeTanimoto>
0.197 

> <ROCS_ColorTanimoto>
0.413 

> <ROCS_RefTversky>
0.181 

> <ROCS_RefColorTversky>
0.552 

> <ROCS_RefTverskyCombo>
0.733 

> <ROCS_FitTversky>
1.735 

> <ROCS_FitColorTversky>
0.620 

> <ROCS_FitTverskyCombo>
2.355 

> <ROCS_ColorScore>
-4.387

> <ROCS_Overlap>
1859.618

> <ROCS_Rank>
424                 

$$$$
untitled-dbase-395344_2
  -OEChem-02092423213D

 34 35  0     0  0  0  0  0  0999 V2000
    8.3779   13.2072   25.2959 C   0  0  0  0  0  0  0  0  0  0  0  0
    9.1757   12.6713   24.2863 C   0  0  0  0  0  0  0  0  0  0  0  0
    7.3926   12.4244   25.9020 C   0  0  0  0  0  0  0  0  0  0  0  0
    8.9998   11.3477   23.8886 C   0  0  0  0  0  0  0  0  0  0  0  0
    7.1893   11.0987   25.5015 C   0  0  0  0  0  0  0  0  0  0  0  0
    8.0253   10.5630   24.5078 C   0  0  0  0  0  0  0  0  0  0  0  0
    9.8547   10.8081   22.8395 C   0  0  0  0  0  0  0  0  0  0  0  0
    5.9230    9.0435   25.4781 C   0  0  0  0  0  0  0  0  0  0  0  0
    7.2340    8.4206   25.0221 C   0  0  0  0  0  0  0  0  0  0  0  0
   12.4784   10.1584   21.8733 C   0  0  0  0  0  0  0  0  0  0  0  0
   12.1629    7.9659   23.0577 C   0  0  0  0  0  0  0  0  0  0  0  0
   10.6325    8.5989   21.1695 C   0  0  0  0  0  0  0  0  0  0  0  0
   11.4616    9.1189   22.3429 C   0  0  0  0  0  0  0  0  0  0  0  0
    6.2058   10.3195   26.0962 N   0  0  0  0  0  0  0  0  0  0  0  0
    9.9188   11.2604   21.6903 O   0  0  0  0  0  0  0  0  0  0  0  0
    7.9108    9.2610   24.0769 O   0  0  0  0  0  0  0  0  0  0  0  0
   10.5795    9.7379   23.2854 O   0  0  0  0  0  0  0  0  0  0  0  0
    8.5200   14.2373   25.6099 H   0  0  0  0  0  0  0  0  0  0  0  0
    9.9345   13.2947   23.8210 H   0  0  0  0  0  0  0  0  0  0  0  0
    6.7759   12.8628   26.6832 H   0  0  0  0  0  0  0  0  0  0  0  0
    5.2584    9.2003   24.6204 H   0  0  0  0  0  0  0  0  0  0  0  0
    5.4124    8.3891   26.1912 H   0  0  0  0  0  0  0  0  0  0  0  0
    7.9030    8.2099   25.8664 H   0  0  0  0  0  0  0  0  0  0  0  0
    7.0334    7.4671   24.5221 H   0  0  0  0  0  0  0  0  0  0  0  0
   11.9790   10.9877   21.3597 H   0  0  0  0  0  0  0  0  0  0  0  0
   13.0556   10.5648   22.7102 H   0  0  0  0  0  0  0  0  0  0  0  0
   13.1772    9.7228   21.1500 H   0  0  0  0  0  0  0  0  0  0  0  0
   11.4371    7.2177   23.3964 H   0  0  0  0  0  0  0  0  0  0  0  0
   12.6818    8.3211   23.9554 H   0  0  0  0  0  0  0  0  0  0  0  0
   12.8926    7.4719   22.4081 H   0  0  0  0  0  0  0  0  0  0  0  0
    9.9031    7.8533   21.5061 H   0  0  0  0  0  0  0  0  0  0  0  0
   10.0927    9.4081   20.6671 H   0  0  0  0  0  0  0  0  0  0  0  0
   11.2709    8.0967   20.4336 H   0  0  0  0  0  0  0  0  0  0  0  0
    5.5428   10.7380   26.7364 H   0  0  0  0  0  0  0  0  0  0  0  0
  1  2  2  0  0  0  0
  1  3  1  0  0  0  0
  2  4  1  0  0  0  0
  3  5  2  0  0  0  0
  4  6  2  0  0  0  0
  4  7  1  0  0  0  0
  5  6  1  0  0  0  0
  5 14  1  0  0  0  0
  6 16  1  0  0  0  0
  7 15  2  0  0  0  0
  7 17  1  0  0  0  0
  8  9  1  0  0  0  0
  8 14  1  0  0  0  0
  9 16  1  0  0  0  0
 10 13  1  0  0  0  0
 11 13  1  0  0  0  0
 12 13  1  0  0  0  0
 13 17  1  0  0  0  0
  1 18  1  0  0  0  0
  2 19  1  0  0  0  0
  3 20  1  0  0  0  0
  8 21  1  0  0  0  0
  8 22  1  0  0  0  0
  9 23  1  0  0  0  0
  9 24  1  0  0  0  0
 10 25  1  0  0  0  0
 10 26  1  0  0  0  0
 10 27  1  0  0  0  0
 11 28  1  0  0  0  0
 11 29  1  0  0  0  0
 11 30  1  0  0  0  0
 12 31  1  0  0  0  0
 12 32  1  0  0  0  0
 12 33  1  0  0  0  0
 14 34  1  0  0  0  0
M  END
> <id>
EN300-6508752

> <smiles>
CC(C)(C)OC(=O)C=1C=CC=C2NCCOC12

> <MDLNUMBER>
MFCD23694095

> <IUPAC Name>
tert-butyl 3,4-dihydro-2H-1,4-benzoxazine-8-carboxylate

> <CAS>
1555726-44-7

> <URL>
https://www.enaminestore.com/catalog/EN300-6508752

> <ROCS_ShapeQuery>
_x1140_x0812_0A_x1140_0A_x1097_0A_x0365_0A_x1097_0A_x0310_0A

> <ROCS_TanimotoCombo>
0.609 

> <ROCS_ShapeTanimoto>
0.238 

> <ROCS_ColorTanimoto>
0.371 

> <ROCS_RefTversky>
0.216 

> <ROCS_RefColorTversky>
0.480 

> <ROCS_RefTverskyCombo>
0.696 

> <ROCS_FitTversky>
1.746 

> <ROCS_FitColorTversky>
0.621 

> <ROCS_FitTverskyCombo>
2.367 

> <ROCS_ColorScore>
-3.792

> <ROCS_Overlap>
2214.964

> <ROCS_Rank>
425                 

$$$$
untitled-dbase-479705_5
  -OEChem-02092423213D

 25 25  0     0  0  0  0  0  0999 V2000
    8.4040   12.4925   24.3001 C   0  0  0  0  0  0  0  0  0  0  0  0
    8.8329   10.2734   23.5596 C   0  0  0  0  0  0  0  0  0  0  0  0
    9.0925   11.6303   23.4540 C   0  0  0  0  0  0  0  0  0  0  0  0
    7.4897   11.9786   25.2131 C   0  0  0  0  0  0  0  0  0  0  0  0
    7.3017   10.6061   25.2398 C   0  0  0  0  0  0  0  0  0  0  0  0
   10.0538   12.1358   22.4898 C   0  0  0  0  0  0  0  0  0  0  0  0
   12.9883   13.3159   22.3844 C   0  0  0  0  0  0  0  0  0  0  0  0
   11.6226   13.8839   22.0621 C   0  0  0  0  0  0  0  0  0  0  0  0
    6.7532   12.9060   26.1188 C   0  0  0  0  0  0  0  0  0  0  0  0
    7.9521    9.7372   24.4338 N   0  0  0  0  0  0  0  0  0  0  0  0
    6.3706   10.0777   26.1686 N   0  0  0  0  0  0  0  0  0  0  0  0
   10.3057   11.5988   21.4017 O   0  0  0  0  0  0  0  0  0  0  0  0
   10.6525   13.2860   22.9288 O   0  0  0  0  0  0  0  0  0  0  0  0
    7.0777   14.2208   25.9385 F   0  0  0  0  0  0  0  0  0  0  0  0
    5.3961   12.8514   25.9719 F   0  0  0  0  0  0  0  0  0  0  0  0
    6.9888   12.6490   27.4386 F   0  0  0  0  0  0  0  0  0  0  0  0
    8.5795   13.5645   24.2484 H   0  0  0  0  0  0  0  0  0  0  0  0
    9.3392    9.5511   22.9263 H   0  0  0  0  0  0  0  0  0  0  0  0
   13.2659   13.5311   23.4200 H   0  0  0  0  0  0  0  0  0  0  0  0
   13.0010   12.2316   22.2329 H   0  0  0  0  0  0  0  0  0  0  0  0
   13.7488   13.7390   21.7196 H   0  0  0  0  0  0  0  0  0  0  0  0
   11.3510   13.6653   21.0251 H   0  0  0  0  0  0  0  0  0  0  0  0
   11.6114   14.9672   22.2148 H   0  0  0  0  0  0  0  0  0  0  0  0
    5.9177   10.6995   26.8022 H   0  0  0  0  0  0  0  0  0  0  0  0
    6.2613    9.0890   26.2299 H   0  0  0  0  0  0  0  0  0  0  0  0
  1  3  2  0  0  0  0
  1  4  1  0  0  0  0
  2  3  1  0  0  0  0
  2 10  2  0  0  0  0
  3  6  1  0  0  0  0
  4  5  2  0  0  0  0
  4  9  1  0  0  0  0
  5 10  1  0  0  0  0
  5 11  1  0  0  0  0
  6 12  2  0  0  0  0
  6 13  1  0  0  0  0
  7  8  1  0  0  0  0
  8 13  1  0  0  0  0
  9 14  1  0  0  0  0
  9 15  1  0  0  0  0
  9 16  1  0  0  0  0
  1 17  1  0  0  0  0
  2 18  1  0  0  0  0
  7 19  1  0  0  0  0
  7 20  1  0  0  0  0
  7 21  1  0  0  0  0
  8 22  1  0  0  0  0
  8 23  1  0  0  0  0
 11 24  1  0  0  0  0
 11 25  1  0  0  0  0
M  END
> <id>
EN300-20824748

> <smiles>
CCOC(=O)C=1C=NC(N)=C(C1)C(F)(F)F

> <MDLNUMBER>
MFCD28727714

> <IUPAC Name>
ethyl 6-amino-5-(trifluoromethyl)pyridine-3-carboxylate

> <CAS>
1805131-52-5

> <URL>
https://www.enaminestore.com/catalog/EN300-20824748

> <ROCS_ShapeQuery>
_x1140_x0812_0A_x1140_0A_x1097_0A_x0365_0A_x1097_0A_x0310_0A

> <ROCS_TanimotoCombo>
0.609 

> <ROCS_ShapeTanimoto>
0.254 

> <ROCS_ColorTanimoto>
0.355 

> <ROCS_RefTversky>
0.227 

> <ROCS_RefColorTversky>
0.434 

> <ROCS_RefTverskyCombo>
0.661 

> <ROCS_FitTversky>
1.908 

> <ROCS_FitColorTversky>
0.661 

> <ROCS_FitTverskyCombo>
2.569 

> <ROCS_ColorScore>
-3.408

> <ROCS_Overlap>
2324.381

> <ROCS_Rank>
426                 

$$$$
untitled-dbase-289619_6
  -OEChem-02092423213D

 24 24  0     0  0  0  0  0  0999 V2000
   11.2200    7.2566   25.6142 C   0  0  0  0  0  0  0  0  0  0  0  0
   10.5705    7.5429   24.6459 C   0  0  0  0  0  0  0  0  0  0  0  0
    8.4465   12.5165   24.2021 C   0  0  0  0  0  0  0  0  0  0  0  0
    7.5488   12.0961   25.1772 C   0  0  0  0  0  0  0  0  0  0  0  0
    9.2250   11.5798   23.5315 C   0  0  0  0  0  0  0  0  0  0  0  0
    9.0693   10.2453   23.8702 C   0  0  0  0  0  0  0  0  0  0  0  0
    7.4680   10.7385   25.4420 C   0  0  0  0  0  0  0  0  0  0  0  0
   10.1624   12.0303   22.5120 C   0  0  0  0  0  0  0  0  0  0  0  0
   12.0697   13.4065   22.1214 C   0  0  0  0  0  0  0  0  0  0  0  0
    9.7760    7.8870   23.4642 C   0  0  0  0  0  0  0  0  0  0  0  0
    8.2078    9.7989   24.8115 N   0  0  0  0  0  0  0  0  0  0  0  0
    9.8596    9.2845   23.1908 N   0  0  0  0  0  0  0  0  0  0  0  0
   10.1254   11.6804   21.3260 O   0  0  0  0  0  0  0  0  0  0  0  0
   11.0901   12.8913   23.0295 O   0  0  0  0  0  0  0  0  0  0  0  0
    6.3885   10.1291   26.6282 Cl  0  0  0  0  0  0  0  0  0  0  0  0
   11.7960    7.0031   26.4734 H   0  0  0  0  0  0  0  0  0  0  0  0
    8.5305   13.5758   23.9739 H   0  0  0  0  0  0  0  0  0  0  0  0
    6.9370   12.8192   25.7060 H   0  0  0  0  0  0  0  0  0  0  0  0
   12.7464   14.0773   22.6563 H   0  0  0  0  0  0  0  0  0  0  0  0
   11.5700   13.9450   21.3122 H   0  0  0  0  0  0  0  0  0  0  0  0
   12.6404   12.5735   21.7041 H   0  0  0  0  0  0  0  0  0  0  0  0
    8.7273    7.6148   23.6184 H   0  0  0  0  0  0  0  0  0  0  0  0
   10.1356    7.3283   22.5942 H   0  0  0  0  0  0  0  0  0  0  0  0
   10.4914    9.6330   22.4995 H   0  0  0  0  0  0  0  0  0  0  0  0
  1  2  3  0  0  0  0
  2 10  1  0  0  0  0
  3  4  2  0  0  0  0
  3  5  1  0  0  0  0
  4  7  1  0  0  0  0
  5  6  2  0  0  0  0
  5  8  1  0  0  0  0
  6 11  1  0  0  0  0
  6 12  1  0  0  0  0
  7 11  2  0  0  0  0
  7 15  1  0  0  0  0
  8 13  2  0  0  0  0
  8 14  1  0  0  0  0
  9 14  1  0  0  0  0
 10 12  1  0  0  0  0
  1 16  1  0  0  0  0
  3 17  1  0  0  0  0
  4 18  1  0  0  0  0
  9 19  1  0  0  0  0
  9 20  1  0  0  0  0
  9 21  1  0  0  0  0
 10 22  1  0  0  0  0
 10 23  1  0  0  0  0
 12 24  1  0  0  0  0
M  END
> <id>
EN300-6511465

> <smiles>
COC(=O)C=1C=CC(Cl)=NC1NCC#C

> <IUPAC Name>
methyl 6-chloro-2-[(prop-2-yn-1-yl)amino]pyridine-3-carboxylate

> <CAS>
2248329-77-1

> <URL>
https://www.enaminestore.com/catalog/EN300-6511465

> <ROCS_ShapeQuery>
_x1140_x0812_0A_x1140_0A_x1097_0A_x0365_0A_x1097_0A_x0310_0A

> <ROCS_TanimotoCombo>
0.609 

> <ROCS_ShapeTanimoto>
0.237 

> <ROCS_ColorTanimoto>
0.372 

> <ROCS_RefTversky>
0.213 

> <ROCS_RefColorTversky>
0.449 

> <ROCS_RefTverskyCombo>
0.662 

> <ROCS_FitTversky>
1.895 

> <ROCS_FitColorTversky>
0.684 

> <ROCS_FitTverskyCombo>
2.579 

> <ROCS_ColorScore>
-3.524

> <ROCS_Overlap>
2186.918

> <ROCS_Rank>
427                 

$$$$
untitled-dbase-276105_7
  -OEChem-02092423213D

 37 38  0     0  0  0  0  0  0999 V2000
    7.6773   12.8966   26.4968 C   0  0  0  0  0  0  0  0  0  0  0  0
    6.8632   12.3828   27.5021 C   0  0  0  0  0  0  0  0  0  0  0  0
    8.9458   12.5610   24.4281 C   0  0  0  0  0  0  0  0  0  0  0  0
    6.9402   10.2219   26.4304 C   0  0  0  0  0  0  0  0  0  0  0  0
    8.1255   12.0698   25.4527 C   0  0  0  0  0  0  0  0  0  0  0  0
    7.7549   10.7093   25.4121 C   0  0  0  0  0  0  0  0  0  0  0  0
    6.4944   11.0437   27.4685 C   0  0  0  0  0  0  0  0  0  0  0  0
    9.3717   11.7190   23.4110 C   0  0  0  0  0  0  0  0  0  0  0  0
    8.9574   10.4032   23.4563 C   0  0  0  0  0  0  0  0  0  0  0  0
   11.7639    9.7808   21.6424 C   0  0  0  0  0  0  0  0  0  0  0  0
   11.3498    8.9201   23.9470 C   0  0  0  0  0  0  0  0  0  0  0  0
   10.9314    7.4504   21.9592 C   0  0  0  0  0  0  0  0  0  0  0  0
    5.3608    9.1475   28.3491 C   0  0  0  0  0  0  0  0  0  0  0  0
    9.3820    9.4479   22.3898 C   0  0  0  0  0  0  0  0  0  0  0  0
   10.8378    8.8891   22.4965 C   0  0  0  0  0  0  0  0  0  0  0  0
    8.1667    9.8898   24.4264 N   0  0  0  0  0  0  0  0  0  0  0  0
   10.1656   12.1907   22.4172 O   0  0  0  0  0  0  0  0  0  0  0  0
    5.6999   10.5299   28.4471 O   0  0  0  0  0  0  0  0  0  0  0  0
    7.9595   13.9464   26.5324 H   0  0  0  0  0  0  0  0  0  0  0  0
    6.5221   13.0300   28.3053 H   0  0  0  0  0  0  0  0  0  0  0  0
    9.2527   13.6050   24.4225 H   0  0  0  0  0  0  0  0  0  0  0  0
    6.6410    9.1746   26.4216 H   0  0  0  0  0  0  0  0  0  0  0  0
   11.4434    9.7950   20.5946 H   0  0  0  0  0  0  0  0  0  0  0  0
   11.7638   10.8158   22.0028 H   0  0  0  0  0  0  0  0  0  0  0  0
   12.7982    9.4197   21.6714 H   0  0  0  0  0  0  0  0  0  0  0  0
   10.7256    8.3004   24.6003 H   0  0  0  0  0  0  0  0  0  0  0  0
   12.3815    8.5612   24.0215 H   0  0  0  0  0  0  0  0  0  0  0  0
   11.3359    9.9407   24.3471 H   0  0  0  0  0  0  0  0  0  0  0  0
   10.2891    6.7733   22.5342 H   0  0  0  0  0  0  0  0  0  0  0  0
   10.6108    7.3851   20.9143 H   0  0  0  0  0  0  0  0  0  0  0  0
   11.9563    7.0692   22.0253 H   0  0  0  0  0  0  0  0  0  0  0  0
    4.7240    8.8672   29.1917 H   0  0  0  0  0  0  0  0  0  0  0  0
    6.2736    8.5464   28.3526 H   0  0  0  0  0  0  0  0  0  0  0  0
    4.8199    8.9795   27.4148 H   0  0  0  0  0  0  0  0  0  0  0  0
    9.2662    9.9252   21.3989 H   0  0  0  0  0  0  0  0  0  0  0  0
    8.6834    8.5911   22.3620 H   0  0  0  0  0  0  0  0  0  0  0  0
   10.3535   13.1351   22.5503 H   0  0  0  0  0  0  0  0  0  0  0  0
  1  2  2  0  0  0  0
  1  5  1  0  0  0  0
  2  7  1  0  0  0  0
  3  5  1  0  0  0  0
  3  8  2  0  0  0  0
  4  6  1  0  0  0  0
  4  7  2  0  0  0  0
  5  6  2  0  0  0  0
  6 16  1  0  0  0  0
  7 18  1  0  0  0  0
  8  9  1  0  0  0  0
  8 17  1  0  0  0  0
  9 14  1  0  0  0  0
  9 16  2  0  0  0  0
 10 15  1  0  0  0  0
 11 15  1  0  0  0  0
 12 15  1  0  0  0  0
 13 18  1  0  0  0  0
 14 15  1  0  0  0  0
  1 19  1  0  0  0  0
  2 20  1  0  0  0  0
  3 21  1  0  0  0  0
  4 22  1  0  0  0  0
 10 23  1  0  0  0  0
 10 24  1  0  0  0  0
 10 25  1  0  0  0  0
 11 26  1  0  0  0  0
 11 27  1  0  0  0  0
 11 28  1  0  0  0  0
 12 29  1  0  0  0  0
 12 30  1  0  0  0  0
 12 31  1  0  0  0  0
 13 32  1  0  0  0  0
 13 33  1  0  0  0  0
 13 34  1  0  0  0  0
 14 35  1  0  0  0  0
 14 36  1  0  0  0  0
 17 37  1  0  0  0  0
M  END
> <id>
EN300-801297

> <smiles>
COC=1C=CC=2C=C(O)C(CC(C)(C)C)=NC2C1

> <MDLNUMBER>
MFCD31590728

> <IUPAC Name>
2-(2,2-dimethylpropyl)-7-methoxyquinolin-3-ol

> <CAS>
2137651-30-8

> <URL>
https://www.enaminestore.com/catalog/EN300-801297

> <ROCS_ShapeQuery>
_x1140_x0812_0A_x1140_0A_x1097_0A_x0365_0A_x1097_0A_x0310_0A

> <ROCS_TanimotoCombo>
0.609 

> <ROCS_ShapeTanimoto>
0.240 

> <ROCS_ColorTanimoto>
0.369 

> <ROCS_RefTversky>
0.218 

> <ROCS_RefColorTversky>
0.509 

> <ROCS_RefTverskyCombo>
0.727 

> <ROCS_FitTversky>
1.721 

> <ROCS_FitColorTversky>
0.573 

> <ROCS_FitTverskyCombo>
2.294 

> <ROCS_ColorScore>
-4.046

> <ROCS_Overlap>
2236.042

> <ROCS_Rank>
428                 

$$$$
untitled-dbase-440831_1
  -OEChem-02092423213D

 24 24  0     0  0  0  0  0  0999 V2000
    8.1541    9.7315   24.7371 C   0  0  0  0  0  0  0  0  0  0  0  0
    8.3492   12.4034   23.9590 C   0  0  0  0  0  0  0  0  0  0  0  0
    9.1630   10.1307   23.8607 C   0  0  0  0  0  0  0  0  0  0  0  0
    7.2426   10.6682   25.2245 C   0  0  0  0  0  0  0  0  0  0  0  0
    9.2606   11.4667   23.4716 C   0  0  0  0  0  0  0  0  0  0  0  0
    7.3402   12.0042   24.8355 C   0  0  0  0  0  0  0  0  0  0  0  0
    9.7222    7.7892   23.2049 C   0  0  0  0  0  0  0  0  0  0  0  0
    5.6733   11.1256   27.1097 C   0  0  0  0  0  0  0  0  0  0  0  0
   10.0741    9.1625   23.3808 N   0  0  0  0  0  0  0  0  0  0  0  0
    6.2232   10.2624   26.1107 N   0  0  0  0  0  0  0  0  0  0  0  0
   10.2801   11.9011   22.5787 N   0  3  0  0  0  0  0  0  0  0  0  0
   11.3749   12.2861   23.0518 O   0  5  0  0  0  0  0  0  0  0  0  0
   10.0517   11.8858   21.3465 O   0  0  0  0  0  0  0  0  0  0  0  0
    6.4696   12.9128   25.2979 F   0  0  0  0  0  0  0  0  0  0  0  0
    8.0771    8.6896   25.0412 H   0  0  0  0  0  0  0  0  0  0  0  0
    8.4126   13.4482   23.6649 H   0  0  0  0  0  0  0  0  0  0  0  0
    8.6717    7.6392   23.4947 H   0  0  0  0  0  0  0  0  0  0  0  0
    9.8548    7.5092   22.1494 H   0  0  0  0  0  0  0  0  0  0  0  0
   10.3695    7.1614   23.8349 H   0  0  0  0  0  0  0  0  0  0  0  0
    6.1658   12.1078   27.0577 H   0  0  0  0  0  0  0  0  0  0  0  0
    4.5940   11.2470   26.9354 H   0  0  0  0  0  0  0  0  0  0  0  0
    5.8369   10.6857   28.1045 H   0  0  0  0  0  0  0  0  0  0  0  0
   10.9983    9.4806   23.1642 H   0  0  0  0  0  0  0  0  0  0  0  0
    5.8871    9.3226   26.0168 H   0  0  0  0  0  0  0  0  0  0  0  0
  1  3  2  0  0  0  0
  1  4  1  0  0  0  0
  2  5  2  0  0  0  0
  2  6  1  0  0  0  0
  3  5  1  0  0  0  0
  3  9  1  0  0  0  0
  4  6  2  0  0  0  0
  4 10  1  0  0  0  0
  5 11  1  0  0  0  0
  6 14  1  0  0  0  0
  7  9  1  0  0  0  0
  8 10  1  0  0  0  0
 11 12  1  0  0  0  0
 11 13  2  0  0  0  0
  1 15  1  0  0  0  0
  2 16  1  0  0  0  0
  7 17  1  0  0  0  0
  7 18  1  0  0  0  0
  7 19  1  0  0  0  0
  8 20  1  0  0  0  0
  8 21  1  0  0  0  0
  8 22  1  0  0  0  0
  9 23  1  0  0  0  0
 10 24  1  0  0  0  0
M  CHG  2  11   1  12  -1
M  END
> <id>
EN300-98015

> <smiles>
CNC=1C=C(NC)C(=CC1F)[N+](=O)[O-]

> <MDLNUMBER>
MFCD21602670

> <IUPAC Name>
4-fluoro-N1,N3-dimethyl-6-nitrobenzene-1,3-diamine

> <CAS>
202330-66-3

> <Purity>
95

> <URL>
https://www.enaminestore.com/catalog/EN300-98015

> <ROCS_ShapeQuery>
_x1140_x0812_0A_x1140_0A_x1097_0A_x0365_0A_x1097_0A_x0310_0A

> <ROCS_TanimotoCombo>
0.609 

> <ROCS_ShapeTanimoto>
0.258 

> <ROCS_ColorTanimoto>
0.351 

> <ROCS_RefTversky>
0.227 

> <ROCS_RefColorTversky>
0.431 

> <ROCS_RefTverskyCombo>
0.658 

> <ROCS_FitTversky>
2.074 

> <ROCS_FitColorTversky>
0.655 

> <ROCS_FitTverskyCombo>
2.729 

> <ROCS_ColorScore>
-3.383

> <ROCS_Overlap>
2331.707

> <ROCS_Rank>
429                 

$$$$
untitled-dbase-479628_6
  -OEChem-02092423213D

 28 28  0     0  0  0  0  0  0999 V2000
    7.2115   11.4928   24.8629 C   0  0  0  0  0  0  0  0  0  0  0  0
    8.0409   12.4643   25.4121 C   0  0  0  0  0  0  0  0  0  0  0  0
    7.7653   10.4402   24.1426 C   0  0  0  0  0  0  0  0  0  0  0  0
    9.4065   12.3386   25.2141 C   0  0  0  0  0  0  0  0  0  0  0  0
    9.1432   10.4053   24.0012 C   0  0  0  0  0  0  0  0  0  0  0  0
   10.9242   10.8141   21.8237 C   0  0  0  0  0  0  0  0  0  0  0  0
   12.0922    9.3397   23.4792 C   0  0  0  0  0  0  0  0  0  0  0  0
   10.9195    8.3259   21.4846 C   0  0  0  0  0  0  0  0  0  0  0  0
   12.3548   12.5428   21.0651 C   0  0  0  0  0  0  0  0  0  0  0  0
   10.9086    9.4537   22.5169 C   0  0  0  0  0  0  0  0  0  0  0  0
    9.9810   11.3306   24.5204 N   0  0  0  0  0  0  0  0  0  0  0  0
    9.6781    9.3544   23.2834 N   0  0  0  0  0  0  0  0  0  0  0  0
    9.9249   11.4096   21.4389 O   0  0  0  0  0  0  0  0  0  0  0  0
   12.2073   11.2684   21.6994 O   0  0  0  0  0  0  0  0  0  0  0  0
    6.1355   11.5564   24.9950 H   0  0  0  0  0  0  0  0  0  0  0  0
    7.6316   13.2939   25.9772 H   0  0  0  0  0  0  0  0  0  0  0  0
    7.1255    9.6774   23.7110 H   0  0  0  0  0  0  0  0  0  0  0  0
   10.0965   13.0698   25.6223 H   0  0  0  0  0  0  0  0  0  0  0  0
   12.0999    8.3689   23.9882 H   0  0  0  0  0  0  0  0  0  0  0  0
   13.0491    9.4508   22.9571 H   0  0  0  0  0  0  0  0  0  0  0  0
   12.0485   10.1166   24.2518 H   0  0  0  0  0  0  0  0  0  0  0  0
   10.9084    7.3440   21.9727 H   0  0  0  0  0  0  0  0  0  0  0  0
   11.8163    8.3711   20.8558 H   0  0  0  0  0  0  0  0  0  0  0  0
   10.0457    8.3730   20.8253 H   0  0  0  0  0  0  0  0  0  0  0  0
   13.4141   12.8071   21.0186 H   0  0  0  0  0  0  0  0  0  0  0  0
   11.8043   13.2984   21.6311 H   0  0  0  0  0  0  0  0  0  0  0  0
   11.9515   12.4841   20.0514 H   0  0  0  0  0  0  0  0  0  0  0  0
    9.1969    8.4669   23.2831 H   0  0  0  0  0  0  0  0  0  0  0  0
  1  2  1  0  0  0  0
  1  3  2  0  0  0  0
  2  4  2  0  0  0  0
  3  5  1  0  0  0  0
  4 11  1  0  0  0  0
  5 11  2  0  0  0  0
  5 12  1  0  0  0  0
  6 10  1  0  0  0  0
  6 13  2  0  0  0  0
  6 14  1  0  0  0  0
  7 10  1  0  0  0  0
  8 10  1  0  0  0  0
  9 14  1  0  0  0  0
 10 12  1  0  0  0  0
  1 15  1  0  0  0  0
  2 16  1  0  0  0  0
  3 17  1  0  0  0  0
  4 18  1  0  0  0  0
  7 19  1  0  0  0  0
  7 20  1  0  0  0  0
  7 21  1  0  0  0  0
  8 22  1  0  0  0  0
  8 23  1  0  0  0  0
  8 24  1  0  0  0  0
  9 25  1  0  0  0  0
  9 26  1  0  0  0  0
  9 27  1  0  0  0  0
 12 28  1  0  0  0  0
M  END
> <id>
EN300-27725665

> <smiles>
COC(=O)C(C)(C)NC=1C=CC=CN1

> <IUPAC Name>
methyl 2-methyl-2-[(pyridin-2-yl)amino]propanoate

> <CAS>
1896933-97-3

> <URL>
https://www.enaminestore.com/catalog/EN300-27725665

> <ROCS_ShapeQuery>
_x1140_x0812_0A_x1140_0A_x1097_0A_x0365_0A_x1097_0A_x0310_0A

> <ROCS_TanimotoCombo>
0.609 

> <ROCS_ShapeTanimoto>
0.189 

> <ROCS_ColorTanimoto>
0.420 

> <ROCS_RefTversky>
0.176 

> <ROCS_RefColorTversky>
0.490 

> <ROCS_RefTverskyCombo>
0.666 

> <ROCS_FitTversky>
1.612 

> <ROCS_FitColorTversky>
0.746 

> <ROCS_FitTverskyCombo>
2.358 

> <ROCS_ColorScore>
-3.843

> <ROCS_Overlap>
1808.878

> <ROCS_Rank>
430                 

$$$$
untitled-dbase-161399_0
  -OEChem-02092423213D

 18 18  0     0  0  0  0  0  0999 V2000
    8.5563   12.5998   24.0703 C   0  0  0  0  0  0  0  0  0  0  0  0
    7.6170   12.1908   25.0103 C   0  0  0  0  0  0  0  0  0  0  0  0
    9.3422   11.6526   23.4234 C   0  0  0  0  0  0  0  0  0  0  0  0
    9.1516   10.3195   23.7496 C   0  0  0  0  0  0  0  0  0  0  0  0
    7.5034   10.8336   25.2654 C   0  0  0  0  0  0  0  0  0  0  0  0
    6.7767   13.2095   25.7012 C   0  0  0  0  0  0  0  0  0  0  0  0
    8.2492    9.8841   24.6572 N   0  0  0  0  0  0  0  0  0  0  0  0
   10.2932   12.0646   22.4709 N   0  0  0  0  0  0  0  0  0  0  0  0
    9.9480    9.3469   23.0943 N   0  0  0  0  0  0  0  0  0  0  0  0
    6.3792   10.2047   26.4049 Cl  0  0  0  0  0  0  0  0  0  0  0  0
    8.6743   13.6566   23.8430 H   0  0  0  0  0  0  0  0  0  0  0  0
    5.8534   13.3909   25.1369 H   0  0  0  0  0  0  0  0  0  0  0  0
    6.5060   12.8836   26.7143 H   0  0  0  0  0  0  0  0  0  0  0  0
    7.3115   14.1628   25.8076 H   0  0  0  0  0  0  0  0  0  0  0  0
   10.3616   13.0350   22.2338 H   0  0  0  0  0  0  0  0  0  0  0  0
   10.8221   11.3736   21.9754 H   0  0  0  0  0  0  0  0  0  0  0  0
   10.5849    9.6440   22.3879 H   0  0  0  0  0  0  0  0  0  0  0  0
    9.7853    8.3831   23.2878 H   0  0  0  0  0  0  0  0  0  0  0  0
  1  2  1  0  0  0  0
  1  3  2  0  0  0  0
  2  5  2  0  0  0  0
  2  6  1  0  0  0  0
  3  4  1  0  0  0  0
  3  8  1  0  0  0  0
  4  7  2  0  0  0  0
  4  9  1  0  0  0  0
  5  7  1  0  0  0  0
  5 10  1  0  0  0  0
  1 11  1  0  0  0  0
  6 12  1  0  0  0  0
  6 13  1  0  0  0  0
  6 14  1  0  0  0  0
  8 15  1  0  0  0  0
  8 16  1  0  0  0  0
  9 17  1  0  0  0  0
  9 18  1  0  0  0  0
M  END
> <id>
EN300-21047708

> <smiles>
CC=1C=C(N)C(N)=NC1Cl

> <MDLNUMBER>
MFCD29045074

> <IUPAC Name>
6-chloro-5-methylpyridine-2,3-diamine

> <CAS>
1691252-03-5

> <Purity>
95

> <URL>
https://www.enaminestore.com/catalog/EN300-21047708

> <ROCS_ShapeQuery>
_x1140_x0812_0A_x1140_0A_x1097_0A_x0365_0A_x1097_0A_x0310_0A

> <ROCS_TanimotoCombo>
0.609 

> <ROCS_ShapeTanimoto>
0.214 

> <ROCS_ColorTanimoto>
0.394 

> <ROCS_RefTversky>
0.193 

> <ROCS_RefColorTversky>
0.502 

> <ROCS_RefTverskyCombo>
0.694 

> <ROCS_FitTversky>
2.092 

> <ROCS_FitColorTversky>
0.649 

> <ROCS_FitTverskyCombo>
2.741 

> <ROCS_ColorScore>
-3.963

> <ROCS_Overlap>
1973.870

> <ROCS_Rank>
431                 

$$$$
untitled-dbase-90222_4
  -OEChem-02092423213D

 29 30  0     0  0  0  0  0  0999 V2000
    6.7739   12.0013   27.4970 C   0  0  0  0  0  0  0  0  0  0  0  0
    7.7647   12.5770   26.6899 C   0  0  0  0  0  0  0  0  0  0  0  0
    6.2548   10.7364   27.2092 C   0  0  0  0  0  0  0  0  0  0  0  0
    9.1875   12.0769   24.5510 C   0  0  0  0  0  0  0  0  0  0  0  0
    8.2313   11.8557   25.5770 C   0  0  0  0  0  0  0  0  0  0  0  0
    7.6893   10.5996   25.3243 C   0  0  0  0  0  0  0  0  0  0  0  0
    6.7043   10.0015   26.1080 C   0  0  0  0  0  0  0  0  0  0  0  0
    9.1651   10.9572   23.7521 C   0  0  0  0  0  0  0  0  0  0  0  0
    9.9246   10.6114   22.5512 C   0  0  0  0  0  0  0  0  0  0  0  0
   10.0712    8.0386   22.8078 C   0  0  0  0  0  0  0  0  0  0  0  0
   11.5702    9.2731   21.2050 C   0  0  0  0  0  0  0  0  0  0  0  0
   11.8669    9.5168   23.6753 C   0  0  0  0  0  0  0  0  0  0  0  0
   10.8276    9.3504   22.5457 C   0  0  0  0  0  0  0  0  0  0  0  0
    9.8547   11.3172   21.5420 O   0  0  0  0  0  0  0  0  0  0  0  0
    8.2597   10.0551   24.2128 O   0  0  0  0  0  0  0  0  0  0  0  0
    6.2085    8.7910   25.8300 F   0  0  0  0  0  0  0  0  0  0  0  0
    6.4040   12.5495   28.3597 H   0  0  0  0  0  0  0  0  0  0  0  0
    8.1581   13.5610   26.9264 H   0  0  0  0  0  0  0  0  0  0  0  0
    5.4869   10.3148   27.8530 H   0  0  0  0  0  0  0  0  0  0  0  0
    9.8136   12.9478   24.4146 H   0  0  0  0  0  0  0  0  0  0  0  0
   10.7353    7.1691   22.7975 H   0  0  0  0  0  0  0  0  0  0  0  0
    9.5880    8.0519   23.7918 H   0  0  0  0  0  0  0  0  0  0  0  0
    9.2901    7.8728   22.0570 H   0  0  0  0  0  0  0  0  0  0  0  0
   12.2227    8.3964   21.1530 H   0  0  0  0  0  0  0  0  0  0  0  0
   12.1954   10.1591   21.0468 H   0  0  0  0  0  0  0  0  0  0  0  0
   10.8685    9.2036   20.3657 H   0  0  0  0  0  0  0  0  0  0  0  0
   12.5380    8.6509   23.7213 H   0  0  0  0  0  0  0  0  0  0  0  0
   12.4807   10.4122   23.5252 H   0  0  0  0  0  0  0  0  0  0  0  0
   11.3865    9.6107   24.6561 H   0  0  0  0  0  0  0  0  0  0  0  0
  1  2  2  0  0  0  0
  1  3  1  0  0  0  0
  2  5  1  0  0  0  0
  3  7  2  0  0  0  0
  4  5  1  0  0  0  0
  4  8  2  0  0  0  0
  5  6  2  0  0  0  0
  6  7  1  0  0  0  0
  6 15  1  0  0  0  0
  7 16  1  0  0  0  0
  8  9  1  0  0  0  0
  8 15  1  0  0  0  0
  9 13  1  0  0  0  0
  9 14  2  0  0  0  0
 10 13  1  0  0  0  0
 11 13  1  0  0  0  0
 12 13  1  0  0  0  0
  1 17  1  0  0  0  0
  2 18  1  0  0  0  0
  3 19  1  0  0  0  0
  4 20  1  0  0  0  0
 10 21  1  0  0  0  0
 10 22  1  0  0  0  0
 10 23  1  0  0  0  0
 11 24  1  0  0  0  0
 11 25  1  0  0  0  0
 11 26  1  0  0  0  0
 12 27  1  0  0  0  0
 12 28  1  0  0  0  0
 12 29  1  0  0  0  0
M  END
> <id>
EN300-744821

> <smiles>
CC(C)(C)C(=O)C1=CC=2C=CC=C(F)C2O1

> <MDLNUMBER>
MFCD21233465

> <IUPAC Name>
1-(7-fluoro-1-benzofuran-2-yl)-2,2-dimethylpropan-1-one

> <CAS>
1482877-81-5

> <URL>
https://www.enaminestore.com/catalog/EN300-744821

> <ROCS_ShapeQuery>
_x1140_x0812_0A_x1140_0A_x1097_0A_x0365_0A_x1097_0A_x0310_0A

> <ROCS_TanimotoCombo>
0.609 

> <ROCS_ShapeTanimoto>
0.221 

> <ROCS_ColorTanimoto>
0.388 

> <ROCS_RefTversky>
0.202 

> <ROCS_RefColorTversky>
0.463 

> <ROCS_RefTverskyCombo>
0.666 

> <ROCS_FitTversky>
1.694 

> <ROCS_FitColorTversky>
0.704 

> <ROCS_FitTverskyCombo>
2.398 

> <ROCS_ColorScore>
-3.639

> <ROCS_Overlap>
2076.453

> <ROCS_Rank>
432                 

$$$$
untitled-dbase-320972_0
  -OEChem-02092423213D

 18 18  0     0  0  0  0  0  0999 V2000
    7.5981   12.1602   25.0915 C   0  0  0  0  0  0  0  0  0  0  0  0
    8.5878   12.6167   24.2282 C   0  0  0  0  0  0  0  0  0  0  0  0
    7.4545   10.7909   25.2472 C   0  0  0  0  0  0  0  0  0  0  0  0
    9.3923   11.7030   23.5565 C   0  0  0  0  0  0  0  0  0  0  0  0
    9.1685   10.3542   23.7811 C   0  0  0  0  0  0  0  0  0  0  0  0
   10.2887   13.3892   21.9506 C   0  0  0  0  0  0  0  0  0  0  0  0
    8.2169    9.8729   24.6120 N   0  0  0  0  0  0  0  0  0  0  0  0
    9.9837    9.4155   23.0997 N   0  0  0  0  0  0  0  0  0  0  0  0
   10.3948   12.1631   22.6823 N   0  0  0  0  0  0  0  0  0  0  0  0
    6.9593   12.8541   25.6257 H   0  0  0  0  0  0  0  0  0  0  0  0
    8.7225   13.6859   24.0874 H   0  0  0  0  0  0  0  0  0  0  0  0
    6.6972   10.3829   25.9087 H   0  0  0  0  0  0  0  0  0  0  0  0
    9.3317   13.8768   22.1880 H   0  0  0  0  0  0  0  0  0  0  0  0
   11.1185   14.0553   22.2293 H   0  0  0  0  0  0  0  0  0  0  0  0
   10.3347   13.1776   20.8721 H   0  0  0  0  0  0  0  0  0  0  0  0
   10.6583    9.7495   22.4468 H   0  0  0  0  0  0  0  0  0  0  0  0
    9.7992    8.4436   23.2186 H   0  0  0  0  0  0  0  0  0  0  0  0
   11.2123   11.5892   22.5814 H   0  0  0  0  0  0  0  0  0  0  0  0
  1  2  2  0  0  0  0
  1  3  1  0  0  0  0
  2  4  1  0  0  0  0
  3  7  2  0  0  0  0
  4  5  2  0  0  0  0
  4  9  1  0  0  0  0
  5  7  1  0  0  0  0
  5  8  1  0  0  0  0
  6  9  1  0  0  0  0
  1 10  1  0  0  0  0
  2 11  1  0  0  0  0
  3 12  1  0  0  0  0
  6 13  1  0  0  0  0
  6 14  1  0  0  0  0
  6 15  1  0  0  0  0
  8 16  1  0  0  0  0
  8 17  1  0  0  0  0
  9 18  1  0  0  0  0
M  END
> <id>
EN300-111144

> <smiles>
CNC=1C=CC=NC1N

> <MDLNUMBER>
MFCD00490112

> <IUPAC Name>
N3-methylpyridine-2,3-diamine

> <CAS>
56291-51-1

> <Purity>
95

> <URL>
https://www.enaminestore.com/catalog/EN300-111144

> <MP>
124-125

> <ROCS_ShapeQuery>
_x1140_x0812_0A_x1140_0A_x1097_0A_x0365_0A_x1097_0A_x0310_0A

> <ROCS_TanimotoCombo>
0.609 

> <ROCS_ShapeTanimoto>
0.199 

> <ROCS_ColorTanimoto>
0.409 

> <ROCS_RefTversky>
0.181 

> <ROCS_RefColorTversky>
0.481 

> <ROCS_RefTverskyCombo>
0.662 

> <ROCS_FitTversky>
2.040 

> <ROCS_FitColorTversky>
0.733 

> <ROCS_FitTverskyCombo>
2.773 

> <ROCS_ColorScore>
-3.779

> <ROCS_Overlap>
1851.912

> <ROCS_Rank>
433                 

$$$$
untitled-dbase-530752_1
  -OEChem-02092423213D

 16 16  0     0  0  0  0  0  0999 V2000
    8.5722   12.4968   24.1296 C   0  0  0  0  0  0  0  0  0  0  0  0
    7.6156   10.5301   25.0642 C   0  0  0  0  0  0  0  0  0  0  0  0
    9.4877   11.6951   23.4569 C   0  0  0  0  0  0  0  0  0  0  0  0
    7.6150   11.9110   24.9505 C   0  0  0  0  0  0  0  0  0  0  0  0
    9.4045   10.3239   23.6376 C   0  0  0  0  0  0  0  0  0  0  0  0
   11.8618   12.1559   22.8429 C   0  0  0  0  0  0  0  0  0  0  0  0
    8.4888    9.7185   24.4267 N   0  0  0  0  0  0  0  0  0  0  0  0
   10.4531   12.2962   22.6279 N   0  0  0  0  0  0  0  0  0  0  0  0
    6.7218   12.6576   25.6095 F   0  0  0  0  0  0  0  0  0  0  0  0
   10.6247    9.1566   22.7496 Br  0  0  0  0  0  0  0  0  0  0  0  0
    8.5942   13.5780   24.0222 H   0  0  0  0  0  0  0  0  0  0  0  0
    6.8893   10.0246   25.6920 H   0  0  0  0  0  0  0  0  0  0  0  0
   12.0373   11.5246   23.7265 H   0  0  0  0  0  0  0  0  0  0  0  0
   12.3224   11.6876   21.9605 H   0  0  0  0  0  0  0  0  0  0  0  0
   12.3081   13.1478   23.0065 H   0  0  0  0  0  0  0  0  0  0  0  0
   10.1167   12.8448   21.8574 H   0  0  0  0  0  0  0  0  0  0  0  0
  1  3  1  0  0  0  0
  1  4  2  0  0  0  0
  2  4  1  0  0  0  0
  2  7  2  0  0  0  0
  3  5  2  0  0  0  0
  3  8  1  0  0  0  0
  4  9  1  0  0  0  0
  5  7  1  0  0  0  0
  5 10  1  0  0  0  0
  6  8  1  0  0  0  0
  1 11  1  0  0  0  0
  2 12  1  0  0  0  0
  6 13  1  0  0  0  0
  6 14  1  0  0  0  0
  6 15  1  0  0  0  0
  8 16  1  0  0  0  0
M  END
> <id>
EN300-33048191

> <smiles>
CNC=1C=C(F)C=NC1Br

> <MDLNUMBER>
MFCD34551491

> <IUPAC Name>
2-bromo-5-fluoro-N-methylpyridin-3-amine

> <CAS>
2694723-53-8

> <URL>
https://www.enaminestore.com/catalog/EN300-33048191

> <ROCS_ShapeQuery>
_x1140_x0812_0A_x1140_0A_x1097_0A_x0365_0A_x1097_0A_x0310_0A

> <ROCS_TanimotoCombo>
0.609 

> <ROCS_ShapeTanimoto>
0.210 

> <ROCS_ColorTanimoto>
0.398 

> <ROCS_RefTversky>
0.190 

> <ROCS_RefColorTversky>
0.438 

> <ROCS_RefTverskyCombo>
0.628 

> <ROCS_FitTversky>
2.071 

> <ROCS_FitColorTversky>
0.814 

> <ROCS_FitTverskyCombo>
2.884 

> <ROCS_ColorScore>
-3.417

> <ROCS_Overlap>
1943.881

> <ROCS_Rank>
434                 

$$$$
untitled-dbase-475647_5
  -OEChem-02092423213D

 25 25  0     0  0  0  0  0  0999 V2000
    8.4406   12.5133   24.2091 C   0  0  0  0  0  0  0  0  0  0  0  0
    7.4634   10.7341   25.4485 C   0  0  0  0  0  0  0  0  0  0  0  0
    9.2193   11.5774   23.5377 C   0  0  0  0  0  0  0  0  0  0  0  0
    7.5434   12.0919   25.1842 C   0  0  0  0  0  0  0  0  0  0  0  0
    9.0644   10.2427   23.8758 C   0  0  0  0  0  0  0  0  0  0  0  0
   10.1565   12.0284   22.5181 C   0  0  0  0  0  0  0  0  0  0  0  0
    6.6959   13.0680   25.9200 C   0  0  0  0  0  0  0  0  0  0  0  0
   13.2597   12.4775   22.1138 C   0  0  0  0  0  0  0  0  0  0  0  0
   12.0635   13.4051   22.1279 C   0  0  0  0  0  0  0  0  0  0  0  0
    8.2034    9.7953   24.8172 N   0  0  0  0  0  0  0  0  0  0  0  0
    9.8553    9.2823   23.1962 N   0  0  0  0  0  0  0  0  0  0  0  0
   10.1193   11.6791   21.3321 O   0  0  0  0  0  0  0  0  0  0  0  0
   11.0841   12.8894   23.0360 O   0  0  0  0  0  0  0  0  0  0  0  0
    8.5300   13.5716   23.9751 H   0  0  0  0  0  0  0  0  0  0  0  0
    6.7806   10.3465   26.1983 H   0  0  0  0  0  0  0  0  0  0  0  0
    5.7438   13.2248   25.3956 H   0  0  0  0  0  0  0  0  0  0  0  0
    6.4748   12.7209   26.9393 H   0  0  0  0  0  0  0  0  0  0  0  0
    7.1980   14.0407   26.0213 H   0  0  0  0  0  0  0  0  0  0  0  0
   13.7094   12.4055   23.1080 H   0  0  0  0  0  0  0  0  0  0  0  0
   12.9670   11.4750   21.7848 H   0  0  0  0  0  0  0  0  0  0  0  0
   14.0172   12.8354   21.4086 H   0  0  0  0  0  0  0  0  0  0  0  0
   11.6185   13.4726   21.1307 H   0  0  0  0  0  0  0  0  0  0  0  0
   12.3575   14.4060   22.4577 H   0  0  0  0  0  0  0  0  0  0  0  0
   10.4613    9.5881   22.4667 H   0  0  0  0  0  0  0  0  0  0  0  0
    9.7175    8.3164   23.3988 H   0  0  0  0  0  0  0  0  0  0  0  0
  1  3  1  0  0  0  0
  1  4  2  0  0  0  0
  2  4  1  0  0  0  0
  2 10  2  0  0  0  0
  3  5  2  0  0  0  0
  3  6  1  0  0  0  0
  4  7  1  0  0  0  0
  5 10  1  0  0  0  0
  5 11  1  0  0  0  0
  6 12  2  0  0  0  0
  6 13  1  0  0  0  0
  8  9  1  0  0  0  0
  9 13  1  0  0  0  0
  1 14  1  0  0  0  0
  2 15  1  0  0  0  0
  7 16  1  0  0  0  0
  7 17  1  0  0  0  0
  7 18  1  0  0  0  0
  8 19  1  0  0  0  0
  8 20  1  0  0  0  0
  8 21  1  0  0  0  0
  9 22  1  0  0  0  0
  9 23  1  0  0  0  0
 11 24  1  0  0  0  0
 11 25  1  0  0  0  0
M  END
> <id>
EN300-5241706

> <smiles>
CCOC(=O)C=1C=C(C)C=NC1N

> <MDLNUMBER>
MFCD16610932

> <IUPAC Name>
ethyl 2-amino-5-methylpyridine-3-carboxylate

> <CAS>
85147-14-4

> <URL>
https://www.enaminestore.com/catalog/EN300-5241706

> <ROCS_ShapeQuery>
_x1140_x0812_0A_x1140_0A_x1097_0A_x0365_0A_x1097_0A_x0310_0A

> <ROCS_TanimotoCombo>
0.609 

> <ROCS_ShapeTanimoto>
0.236 

> <ROCS_ColorTanimoto>
0.373 

> <ROCS_RefTversky>
0.211 

> <ROCS_RefColorTversky>
0.450 

> <ROCS_RefTverskyCombo>
0.661 

> <ROCS_FitTversky>
2.006 

> <ROCS_FitColorTversky>
0.685 

> <ROCS_FitTverskyCombo>
2.691 

> <ROCS_ColorScore>
-3.533

> <ROCS_Overlap>
2160.719

> <ROCS_Rank>
435                 

$$$$
untitled-dbase-436656_0
  -OEChem-02092423213D

 18 19  0     0  0  0  0  0  0999 V2000
    8.9075   13.7617   23.7772 C   0  0  0  0  0  0  0  0  0  0  0  0
   10.0067   13.6212   22.9581 C   0  0  0  0  0  0  0  0  0  0  0  0
    8.4949   12.4595   24.1506 C   0  0  0  0  0  0  0  0  0  0  0  0
    9.3604   11.5538   23.5445 C   0  0  0  0  0  0  0  0  0  0  0  0
    9.1932   10.1937   23.7375 C   0  0  0  0  0  0  0  0  0  0  0  0
    7.3852   10.7286   25.0703 C   0  0  0  0  0  0  0  0  0  0  0  0
    7.4665   12.0686   24.9429 N   0  0  0  0  0  0  0  0  0  0  0  0
    8.1759    9.7785   24.5233 N   0  0  0  0  0  0  0  0  0  0  0  0
   10.2722   12.2815   22.8236 N   0  0  0  0  0  0  0  0  0  0  0  0
   10.0573    9.2628   23.1363 N   0  0  0  0  0  0  0  0  0  0  0  0
    6.3342   10.2532   25.8872 N   0  0  0  0  0  0  0  0  0  0  0  0
    8.4575   14.6998   24.0707 H   0  0  0  0  0  0  0  0  0  0  0  0
   10.6244   14.3544   22.4589 H   0  0  0  0  0  0  0  0  0  0  0  0
   11.0262   11.8917   22.2748 H   0  0  0  0  0  0  0  0  0  0  0  0
   10.7787    9.5863   22.5199 H   0  0  0  0  0  0  0  0  0  0  0  0
    9.8849    8.2824   23.2547 H   0  0  0  0  0  0  0  0  0  0  0  0
    5.7489   10.9121   26.3564 H   0  0  0  0  0  0  0  0  0  0  0  0
    6.2562    9.2719   26.0542 H   0  0  0  0  0  0  0  0  0  0  0  0
  1  2  2  0  0  0  0
  1  3  1  0  0  0  0
  2  9  1  0  0  0  0
  3  4  2  0  0  0  0
  3  7  1  0  0  0  0
  4  5  1  0  0  0  0
  4  9  1  0  0  0  0
  5  8  2  0  0  0  0
  5 10  1  0  0  0  0
  6  7  2  0  0  0  0
  6  8  1  0  0  0  0
  6 11  1  0  0  0  0
  1 12  1  0  0  0  0
  2 13  1  0  0  0  0
  9 14  1  0  0  0  0
 10 15  1  0  0  0  0
 10 16  1  0  0  0  0
 11 17  1  0  0  0  0
 11 18  1  0  0  0  0
M  END
> <id>
EN300-1572834

> <smiles>
NC=1N=C(N)C=2NC=CC2N1

> <MDLNUMBER>
MFCD19208508

> <IUPAC Name>
5H-pyrrolo[3,2-d]pyrimidine-2,4-diamine

> <CAS>
805178-29-4

> <URL>
https://www.enaminestore.com/catalog/EN300-1572834

> <ROCS_ShapeQuery>
_x1140_x0812_0A_x1140_0A_x1097_0A_x0365_0A_x1097_0A_x0310_0A

> <ROCS_TanimotoCombo>
0.609 

> <ROCS_ShapeTanimoto>
0.230 

> <ROCS_ColorTanimoto>
0.378 

> <ROCS_RefTversky>
0.206 

> <ROCS_RefColorTversky>
0.581 

> <ROCS_RefTverskyCombo>
0.787 

> <ROCS_FitTversky>
2.052 

> <ROCS_FitColorTversky>
0.520 

> <ROCS_FitTverskyCombo>
2.572 

> <ROCS_ColorScore>
-4.681

> <ROCS_Overlap>
2109.422

> <ROCS_Rank>
436                 

$$$$
untitled-dbase-154077_0
  -OEChem-02092423213D

 18 19  0     0  0  0  0  0  0999 V2000
    8.9075   13.7617   23.7772 C   0  0  0  0  0  0  0  0  0  0  0  0
   10.0067   13.6212   22.9581 C   0  0  0  0  0  0  0  0  0  0  0  0
    8.4949   12.4595   24.1506 C   0  0  0  0  0  0  0  0  0  0  0  0
    9.3604   11.5538   23.5445 C   0  0  0  0  0  0  0  0  0  0  0  0
    9.1932   10.1937   23.7375 C   0  0  0  0  0  0  0  0  0  0  0  0
    7.3852   10.7286   25.0703 C   0  0  0  0  0  0  0  0  0  0  0  0
    7.4665   12.0686   24.9429 N   0  0  0  0  0  0  0  0  0  0  0  0
    8.1759    9.7785   24.5233 N   0  0  0  0  0  0  0  0  0  0  0  0
   10.2722   12.2815   22.8236 N   0  0  0  0  0  0  0  0  0  0  0  0
   10.0573    9.2628   23.1363 N   0  0  0  0  0  0  0  0  0  0  0  0
    6.3342   10.2532   25.8872 N   0  0  0  0  0  0  0  0  0  0  0  0
    8.4575   14.6998   24.0707 H   0  0  0  0  0  0  0  0  0  0  0  0
   10.6244   14.3544   22.4589 H   0  0  0  0  0  0  0  0  0  0  0  0
   11.0262   11.8917   22.2748 H   0  0  0  0  0  0  0  0  0  0  0  0
   10.7787    9.5863   22.5199 H   0  0  0  0  0  0  0  0  0  0  0  0
    9.8849    8.2824   23.2547 H   0  0  0  0  0  0  0  0  0  0  0  0
    5.7489   10.9121   26.3564 H   0  0  0  0  0  0  0  0  0  0  0  0
    6.2562    9.2719   26.0542 H   0  0  0  0  0  0  0  0  0  0  0  0
  1  2  2  0  0  0  0
  1  3  1  0  0  0  0
  2  9  1  0  0  0  0
  3  4  2  0  0  0  0
  3  7  1  0  0  0  0
  4  5  1  0  0  0  0
  4  9  1  0  0  0  0
  5  8  2  0  0  0  0
  5 10  1  0  0  0  0
  6  7  2  0  0  0  0
  6  8  1  0  0  0  0
  6 11  1  0  0  0  0
  1 12  1  0  0  0  0
  2 13  1  0  0  0  0
  9 14  1  0  0  0  0
 10 15  1  0  0  0  0
 10 16  1  0  0  0  0
 11 17  1  0  0  0  0
 11 18  1  0  0  0  0
M  END
> <id>
EN300-1588729

> <smiles>
Cl.NC=1N=C(N)C=2NC=CC2N1

> <MDLNUMBER>
MFCD17012983

> <IUPAC Name>
5H-pyrrolo[3,2-d]pyrimidine-2,4-diamine hydrochloride

> <CAS>
934524-55-7

> <Purity>
95

> <URL>
https://www.enaminestore.com/catalog/EN300-1588729

> <Saltdate>
Cl

> <ROCS_ShapeQuery>
_x1140_x0812_0A_x1140_0A_x1097_0A_x0365_0A_x1097_0A_x0310_0A

> <ROCS_TanimotoCombo>
0.609 

> <ROCS_ShapeTanimoto>
0.230 

> <ROCS_ColorTanimoto>
0.378 

> <ROCS_RefTversky>
0.206 

> <ROCS_RefColorTversky>
0.581 

> <ROCS_RefTverskyCombo>
0.787 

> <ROCS_FitTversky>
2.052 

> <ROCS_FitColorTversky>
0.520 

> <ROCS_FitTverskyCombo>
2.572 

> <ROCS_ColorScore>
-4.681

> <ROCS_Overlap>
2109.422

> <ROCS_Rank>
437                 

$$$$
untitled-dbase-135255_3
  -OEChem-02092423213D

 25 25  0     0  0  0  0  0  0999 V2000
    7.9233   11.9747   25.5796 C   0  0  0  0  0  0  0  0  0  0  0  0
    7.8169   10.6008   25.5247 C   0  0  0  0  0  0  0  0  0  0  0  0
    8.7907   10.9336   23.5880 C   0  0  0  0  0  0  0  0  0  0  0  0
    9.3999   10.6387   22.2782 C   0  0  0  0  0  0  0  0  0  0  0  0
    7.2255    9.7392   26.5672 C   0  0  0  0  0  0  0  0  0  0  0  0
   10.9769    8.4748   23.7077 C   0  0  0  0  0  0  0  0  0  0  0  0
   12.0078    9.1739   21.5382 C   0  0  0  0  0  0  0  0  0  0  0  0
    9.4864    9.1853   21.8118 C   0  0  0  0  0  0  0  0  0  0  0  0
   10.8043    8.4853   22.1872 C   0  0  0  0  0  0  0  0  0  0  0  0
    8.3134   10.0021   24.3833 N   0  0  0  0  0  0  0  0  0  0  0  0
    9.8171   11.5495   21.5621 O   0  0  0  0  0  0  0  0  0  0  0  0
    8.6757   12.5509   24.1501 S   0  0  0  0  0  0  0  0  0  0  0  0
    7.6088   12.6484   26.3639 H   0  0  0  0  0  0  0  0  0  0  0  0
    6.1455    9.5965   26.3991 H   0  0  0  0  0  0  0  0  0  0  0  0
    7.6951    8.7411   26.5946 H   0  0  0  0  0  0  0  0  0  0  0  0
    7.3543   10.1643   27.5774 H   0  0  0  0  0  0  0  0  0  0  0  0
   11.0103    9.4957   24.1025 H   0  0  0  0  0  0  0  0  0  0  0  0
   11.9030    7.9678   23.9996 H   0  0  0  0  0  0  0  0  0  0  0  0
   10.1405    7.9586   24.1909 H   0  0  0  0  0  0  0  0  0  0  0  0
   12.0839   10.2214   21.8453 H   0  0  0  0  0  0  0  0  0  0  0  0
   11.9205    9.1561   20.4465 H   0  0  0  0  0  0  0  0  0  0  0  0
   12.9445    8.6745   21.8086 H   0  0  0  0  0  0  0  0  0  0  0  0
    8.6466    8.6232   22.2368 H   0  0  0  0  0  0  0  0  0  0  0  0
    9.3806    9.1967   20.7200 H   0  0  0  0  0  0  0  0  0  0  0  0
   10.7773    7.4431   21.8457 H   0  0  0  0  0  0  0  0  0  0  0  0
  1  2  2  0  0  0  0
  1 12  1  0  0  0  0
  2  5  1  0  0  0  0
  2 10  1  0  0  0  0
  3  4  1  0  0  0  0
  3 10  2  0  0  0  0
  3 12  1  0  0  0  0
  4  8  1  0  0  0  0
  4 11  2  0  0  0  0
  6  9  1  0  0  0  0
  7  9  1  0  0  0  0
  8  9  1  0  0  0  0
  1 13  1  0  0  0  0
  5 14  1  0  0  0  0
  5 15  1  0  0  0  0
  5 16  1  0  0  0  0
  6 17  1  0  0  0  0
  6 18  1  0  0  0  0
  6 19  1  0  0  0  0
  7 20  1  0  0  0  0
  7 21  1  0  0  0  0
  7 22  1  0  0  0  0
  8 23  1  0  0  0  0
  8 24  1  0  0  0  0
  9 25  1  0  0  0  0
M  END
> <id>
EN300-1268922

> <smiles>
CC(C)CC(=O)C1=NC(C)=CS1

> <IUPAC Name>
3-methyl-1-(4-methyl-1,3-thiazol-2-yl)butan-1-one

> <CAS>
2172385-91-8

> <URL>
https://www.enaminestore.com/catalog/EN300-1268922

> <ROCS_ShapeQuery>
_x1140_x0812_0A_x1140_0A_x1097_0A_x0365_0A_x1097_0A_x0310_0A

> <ROCS_TanimotoCombo>
0.609 

> <ROCS_ShapeTanimoto>
0.178 

> <ROCS_ColorTanimoto>
0.431 

> <ROCS_RefTversky>
0.166 

> <ROCS_RefColorTversky>
0.463 

> <ROCS_RefTverskyCombo>
0.629 

> <ROCS_FitTversky>
1.693 

> <ROCS_FitColorTversky>
0.860 

> <ROCS_FitTverskyCombo>
2.553 

> <ROCS_ColorScore>
-3.613

> <ROCS_Overlap>
1697.006

> <ROCS_Rank>
438                 

$$$$
untitled-dbase-576368_2
  -OEChem-02092423213D

 29 29  0     0  0  0  0  0  0999 V2000
    8.0576   13.3968   24.6424 C   0  0  0  0  0  0  0  0  0  0  0  0
    8.7468   12.7715   23.6820 C   0  0  0  0  0  0  0  0  0  0  0  0
    8.3184   10.5676   24.6095 C   0  0  0  0  0  0  0  0  0  0  0  0
    9.5016   10.8645   22.4349 C   0  0  0  0  0  0  0  0  0  0  0  0
    7.3684   12.6414   25.7239 C   0  0  0  0  0  0  0  0  0  0  0  0
    8.0134   11.2816   25.9166 C   0  0  0  0  0  0  0  0  0  0  0  0
   11.8413    9.8689   23.0985 C   0  0  0  0  0  0  0  0  0  0  0  0
   10.8059    7.5806   23.1324 C   0  0  0  0  0  0  0  0  0  0  0  0
   11.2745    8.7090   20.9380 C   0  0  0  0  0  0  0  0  0  0  0  0
   10.8727    8.9176   22.3974 C   0  0  0  0  0  0  0  0  0  0  0  0
    8.8553   11.3860   23.5863 N   0  0  0  0  0  0  0  0  0  0  0  0
    8.1411    9.3505   24.5326 O   0  0  0  0  0  0  0  0  0  0  0  0
    9.9684   11.5482   21.5239 O   0  0  0  0  0  0  0  0  0  0  0  0
    9.5622    9.4947   22.4315 O   0  0  0  0  0  0  0  0  0  0  0  0
    7.9751   14.4789   24.6302 H   0  0  0  0  0  0  0  0  0  0  0  0
    9.2174   13.3597   22.9012 H   0  0  0  0  0  0  0  0  0  0  0  0
    7.4211   13.2029   26.6632 H   0  0  0  0  0  0  0  0  0  0  0  0
    6.3088   12.5342   25.4646 H   0  0  0  0  0  0  0  0  0  0  0  0
    7.3581   10.6471   26.5239 H   0  0  0  0  0  0  0  0  0  0  0  0
    8.9627   11.3835   26.4577 H   0  0  0  0  0  0  0  0  0  0  0  0
   11.8921   10.8297   22.5740 H   0  0  0  0  0  0  0  0  0  0  0  0
   11.5446   10.0543   24.1360 H   0  0  0  0  0  0  0  0  0  0  0  0
   12.8590    9.4618   23.0971 H   0  0  0  0  0  0  0  0  0  0  0  0
   10.1121    6.8950   22.6327 H   0  0  0  0  0  0  0  0  0  0  0  0
   10.4271    7.7143   24.1521 H   0  0  0  0  0  0  0  0  0  0  0  0
   11.7883    7.1005   23.1876 H   0  0  0  0  0  0  0  0  0  0  0  0
   10.5799    8.0267   20.4348 H   0  0  0  0  0  0  0  0  0  0  0  0
   11.2918    9.6540   20.3854 H   0  0  0  0  0  0  0  0  0  0  0  0
   12.2661    8.2471   20.8690 H   0  0  0  0  0  0  0  0  0  0  0  0
  1  2  2  0  0  0  0
  1  5  1  0  0  0  0
  2 11  1  0  0  0  0
  3  6  1  0  0  0  0
  3 11  1  0  0  0  0
  3 12  2  0  0  0  0
  4 11  1  0  0  0  0
  4 13  2  0  0  0  0
  4 14  1  0  0  0  0
  5  6  1  0  0  0  0
  7 10  1  0  0  0  0
  8 10  1  0  0  0  0
  9 10  1  0  0  0  0
 10 14  1  0  0  0  0
  1 15  1  0  0  0  0
  2 16  1  0  0  0  0
  5 17  1  0  0  0  0
  5 18  1  0  0  0  0
  6 19  1  0  0  0  0
  6 20  1  0  0  0  0
  7 21  1  0  0  0  0
  7 22  1  0  0  0  0
  7 23  1  0  0  0  0
  8 24  1  0  0  0  0
  8 25  1  0  0  0  0
  8 26  1  0  0  0  0
  9 27  1  0  0  0  0
  9 28  1  0  0  0  0
  9 29  1  0  0  0  0
M  END
> <id>
EN300-37267440

> <smiles>
CC(C)(C)OC(=O)N1C=CCCC1=O

> <IUPAC Name>
tert-butyl 2-oxo-1,2,3,4-tetrahydropyridine-1-carboxylate

> <CAS>
1450882-23-1

> <Purity>
95

> <URL>
https://www.enaminestore.com/catalog/EN300-37267440

> <ROCS_ShapeQuery>
_x1140_x0812_0A_x1140_0A_x1097_0A_x0365_0A_x1097_0A_x0310_0A

> <ROCS_TanimotoCombo>
0.608 

> <ROCS_ShapeTanimoto>
0.211 

> <ROCS_ColorTanimoto>
0.397 

> <ROCS_RefTversky>
0.193 

> <ROCS_RefColorTversky>
0.437 

> <ROCS_RefTverskyCombo>
0.631 

> <ROCS_FitTversky>
1.769 

> <ROCS_FitColorTversky>
0.812 

> <ROCS_FitTverskyCombo>
2.582 

> <ROCS_ColorScore>
-3.412

> <ROCS_Overlap>
1981.937

> <ROCS_Rank>
439                 

$$$$
untitled-dbase-531539_9
  -OEChem-02092423213D

 20 20  0     0  0  0  0  0  0999 V2000
   11.5538   15.6632   22.6337 C   0  0  0  0  0  0  0  0  0  0  0  0
    8.7845   11.6636   25.8742 C   0  0  0  0  0  0  0  0  0  0  0  0
    9.6158   12.1716   24.8822 C   0  0  0  0  0  0  0  0  0  0  0  0
    7.9644   10.5952   25.5487 C   0  0  0  0  0  0  0  0  0  0  0  0
    8.7454   10.5381   23.3889 C   0  0  0  0  0  0  0  0  0  0  0  0
    9.6020   11.6039   23.6131 C   0  0  0  0  0  0  0  0  0  0  0  0
   10.6466   14.5193   22.4587 C   0  0  0  0  0  0  0  0  0  0  0  0
   11.3323   13.1944   22.7752 C   0  0  0  0  0  0  0  0  0  0  0  0
   12.2680   16.5673   22.7711 N   0  0  0  0  0  0  0  0  0  0  0  0
    7.9233   10.0173   24.3273 N   0  0  0  0  0  0  0  0  0  0  0  0
   10.4304   12.0954   22.5912 N   0  0  0  0  0  0  0  0  0  0  0  0
    8.7785   12.0902   26.8706 H   0  0  0  0  0  0  0  0  0  0  0  0
   10.2701   13.0093   25.1084 H   0  0  0  0  0  0  0  0  0  0  0  0
    7.2973   10.1623   26.2868 H   0  0  0  0  0  0  0  0  0  0  0  0
    8.6899   10.0534   22.4187 H   0  0  0  0  0  0  0  0  0  0  0  0
   10.2978   14.4991   21.4196 H   0  0  0  0  0  0  0  0  0  0  0  0
    9.7614   14.6505   23.0921 H   0  0  0  0  0  0  0  0  0  0  0  0
   12.1888   13.0562   22.1073 H   0  0  0  0  0  0  0  0  0  0  0  0
   11.7093   13.1858   23.8040 H   0  0  0  0  0  0  0  0  0  0  0  0
   10.3737   11.6435   21.6950 H   0  0  0  0  0  0  0  0  0  0  0  0
  1  7  1  0  0  0  0
  1  9  3  0  0  0  0
  2  3  2  0  0  0  0
  2  4  1  0  0  0  0
  3  6  1  0  0  0  0
  4 10  2  0  0  0  0
  5  6  2  0  0  0  0
  5 10  1  0  0  0  0
  6 11  1  0  0  0  0
  7  8  1  0  0  0  0
  8 11  1  0  0  0  0
  2 12  1  0  0  0  0
  3 13  1  0  0  0  0
  4 14  1  0  0  0  0
  5 15  1  0  0  0  0
  7 16  1  0  0  0  0
  7 17  1  0  0  0  0
  8 18  1  0  0  0  0
  8 19  1  0  0  0  0
 11 20  1  0  0  0  0
M  END
> <id>
EN300-341922

> <smiles>
N#CCCNC=1C=CC=NC1

> <MDLNUMBER>
MFCD19220976

> <IUPAC Name>
3-[(pyridin-3-yl)amino]propanenitrile

> <CAS>
101257-92-5

> <Purity>
95

> <URL>
https://www.enaminestore.com/catalog/EN300-341922

> <MP>
57-58

> <ROCS_ShapeQuery>
_x1140_x0812_0A_x1140_0A_x1097_0A_x0365_0A_x1097_0A_x0310_0A

> <ROCS_TanimotoCombo>
0.608 

> <ROCS_ShapeTanimoto>
0.169 

> <ROCS_ColorTanimoto>
0.439 

> <ROCS_RefTversky>
0.159 

> <ROCS_RefColorTversky>
0.469 

> <ROCS_RefTverskyCombo>
0.628 

> <ROCS_FitTversky>
1.658 

> <ROCS_FitColorTversky>
0.872 

> <ROCS_FitTverskyCombo>
2.530 

> <ROCS_ColorScore>
-3.661

> <ROCS_Overlap>
1625.173

> <ROCS_Rank>
440                 

$$$$
untitled-dbase-119618_3
  -OEChem-02092423213D

 33 34  0     0  0  0  0  0  0999 V2000
    7.6786   12.8955   26.4982 C   0  0  0  0  0  0  0  0  0  0  0  0
    6.8649   12.3817   27.5038 C   0  0  0  0  0  0  0  0  0  0  0  0
    8.9461   12.5598   24.4288 C   0  0  0  0  0  0  0  0  0  0  0  0
    6.9409   10.2210   26.4317 C   0  0  0  0  0  0  0  0  0  0  0  0
    8.1262   12.0687   25.4537 C   0  0  0  0  0  0  0  0  0  0  0  0
    7.7552   10.7083   25.4131 C   0  0  0  0  0  0  0  0  0  0  0  0
    9.3713   11.7178   23.4113 C   0  0  0  0  0  0  0  0  0  0  0  0
    6.4958   11.0427   27.4702 C   0  0  0  0  0  0  0  0  0  0  0  0
    8.9567   10.4022   23.4566 C   0  0  0  0  0  0  0  0  0  0  0  0
   11.7633    9.7800   21.6431 C   0  0  0  0  0  0  0  0  0  0  0  0
   11.3488    8.9188   23.9475 C   0  0  0  0  0  0  0  0  0  0  0  0
   10.9308    7.4495   21.9592 C   0  0  0  0  0  0  0  0  0  0  0  0
    9.3813    9.4469   22.3900 C   0  0  0  0  0  0  0  0  0  0  0  0
   10.8371    8.8880   22.4969 C   0  0  0  0  0  0  0  0  0  0  0  0
    8.1664    9.8888   24.4271 N   0  0  0  0  0  0  0  0  0  0  0  0
   10.1648   12.1896   22.4171 O   0  0  0  0  0  0  0  0  0  0  0  0
    5.3912   10.3327   28.8298 Br  0  0  0  0  0  0  0  0  0  0  0  0
    7.9619   13.9452   26.5338 H   0  0  0  0  0  0  0  0  0  0  0  0
    6.5298   13.0376   28.3027 H   0  0  0  0  0  0  0  0  0  0  0  0
    9.2550   13.6032   24.4239 H   0  0  0  0  0  0  0  0  0  0  0  0
    6.6470    9.1720   26.4132 H   0  0  0  0  0  0  0  0  0  0  0  0
   11.4430    9.7944   20.5952 H   0  0  0  0  0  0  0  0  0  0  0  0
   11.7632   10.8149   22.0037 H   0  0  0  0  0  0  0  0  0  0  0  0
   12.7976    9.4188   21.6722 H   0  0  0  0  0  0  0  0  0  0  0  0
   10.7245    8.2989   24.6005 H   0  0  0  0  0  0  0  0  0  0  0  0
   12.3805    8.5599   24.0220 H   0  0  0  0  0  0  0  0  0  0  0  0
   11.3349    9.9393   24.3477 H   0  0  0  0  0  0  0  0  0  0  0  0
   10.2884    6.7722   22.5340 H   0  0  0  0  0  0  0  0  0  0  0  0
   10.6104    7.3844   20.9143 H   0  0  0  0  0  0  0  0  0  0  0  0
   11.9557    7.0683   22.0255 H   0  0  0  0  0  0  0  0  0  0  0  0
    9.2657    9.9244   21.3993 H   0  0  0  0  0  0  0  0  0  0  0  0
    8.6827    8.5902   22.3621 H   0  0  0  0  0  0  0  0  0  0  0  0
   10.3527   13.1340   22.5503 H   0  0  0  0  0  0  0  0  0  0  0  0
  1  2  2  0  0  0  0
  1  5  1  0  0  0  0
  2  8  1  0  0  0  0
  3  5  2  0  0  0  0
  3  7  1  0  0  0  0
  4  6  1  0  0  0  0
  4  8  2  0  0  0  0
  5  6  1  0  0  0  0
  6 15  2  0  0  0  0
  7  9  2  0  0  0  0
  7 16  1  0  0  0  0
  8 17  1  0  0  0  0
  9 13  1  0  0  0  0
  9 15  1  0  0  0  0
 10 14  1  0  0  0  0
 11 14  1  0  0  0  0
 12 14  1  0  0  0  0
 13 14  1  0  0  0  0
  1 18  1  0  0  0  0
  2 19  1  0  0  0  0
  3 20  1  0  0  0  0
  4 21  1  0  0  0  0
 10 22  1  0  0  0  0
 10 23  1  0  0  0  0
 10 24  1  0  0  0  0
 11 25  1  0  0  0  0
 11 26  1  0  0  0  0
 11 27  1  0  0  0  0
 12 28  1  0  0  0  0
 12 29  1  0  0  0  0
 12 30  1  0  0  0  0
 13 31  1  0  0  0  0
 13 32  1  0  0  0  0
 16 33  1  0  0  0  0
M  END
> <id>
EN300-801224

> <smiles>
CC(C)(C)CC=1N=C2C=C(Br)C=CC2=CC1O

> <MDLNUMBER>
MFCD31601588

> <IUPAC Name>
7-bromo-2-(2,2-dimethylpropyl)quinolin-3-ol

> <CAS>
2138005-45-3

> <URL>
https://www.enaminestore.com/catalog/EN300-801224

> <ROCS_ShapeQuery>
_x1140_x0812_0A_x1140_0A_x1097_0A_x0365_0A_x1097_0A_x0310_0A

> <ROCS_TanimotoCombo>
0.608 

> <ROCS_ShapeTanimoto>
0.239 

> <ROCS_ColorTanimoto>
0.369 

> <ROCS_RefTversky>
0.216 

> <ROCS_RefColorTversky>
0.509 

> <ROCS_RefTverskyCombo>
0.725 

> <ROCS_FitTversky>
1.783 

> <ROCS_FitColorTversky>
0.573 

> <ROCS_FitTverskyCombo>
2.357 

> <ROCS_ColorScore>
-4.046

> <ROCS_Overlap>
2220.007

> <ROCS_Rank>
441                 

$$$$
untitled-dbase-161162_1
  -OEChem-02092423213D

 22 22  0     0  0  0  0  0  0999 V2000
    8.8748   12.5196   24.4726 C   0  0  0  0  0  0  0  0  0  0  0  0
    7.8880   10.5249   25.3117 C   0  0  0  0  0  0  0  0  0  0  0  0
    8.0967   11.8889   25.4370 C   0  0  0  0  0  0  0  0  0  0  0  0
    9.4129   11.7775   23.4271 C   0  0  0  0  0  0  0  0  0  0  0  0
    9.1454   10.4184   23.3919 C   0  0  0  0  0  0  0  0  0  0  0  0
    7.5071   12.6547   26.5678 C   0  0  0  0  0  0  0  0  0  0  0  0
   10.8954    8.7425   22.7476 C   0  0  0  0  0  0  0  0  0  0  0  0
    9.6958    9.5680   22.2934 C   0  0  0  0  0  0  0  0  0  0  0  0
    8.3941    9.7707   24.3104 N   0  0  0  0  0  0  0  0  0  0  0  0
   10.2021   12.4056   22.4470 N   0  0  0  0  0  0  0  0  0  0  0  0
    9.0597   13.5893   24.5373 H   0  0  0  0  0  0  0  0  0  0  0  0
    7.2906    9.9787   26.0351 H   0  0  0  0  0  0  0  0  0  0  0  0
    6.5119   13.0339   26.2996 H   0  0  0  0  0  0  0  0  0  0  0  0
    7.4074   12.0312   27.4674 H   0  0  0  0  0  0  0  0  0  0  0  0
    8.1384   13.5103   26.8468 H   0  0  0  0  0  0  0  0  0  0  0  0
   11.6910    9.3860   23.1382 H   0  0  0  0  0  0  0  0  0  0  0  0
   11.3052    8.1657   21.9125 H   0  0  0  0  0  0  0  0  0  0  0  0
   10.6129    8.0398   23.5388 H   0  0  0  0  0  0  0  0  0  0  0  0
    8.9169    8.8924   21.9075 H   0  0  0  0  0  0  0  0  0  0  0  0
    9.9908   10.1946   21.4376 H   0  0  0  0  0  0  0  0  0  0  0  0
   10.3333   13.3982   22.4831 H   0  0  0  0  0  0  0  0  0  0  0  0
   10.5446   11.8689   21.6734 H   0  0  0  0  0  0  0  0  0  0  0  0
  1  3  2  0  0  0  0
  1  4  1  0  0  0  0
  2  3  1  0  0  0  0
  2  9  2  0  0  0  0
  3  6  1  0  0  0  0
  4  5  2  0  0  0  0
  4 10  1  0  0  0  0
  5  8  1  0  0  0  0
  5  9  1  0  0  0  0
  7  8  1  0  0  0  0
  1 11  1  0  0  0  0
  2 12  1  0  0  0  0
  6 13  1  0  0  0  0
  6 14  1  0  0  0  0
  6 15  1  0  0  0  0
  7 16  1  0  0  0  0
  7 17  1  0  0  0  0
  7 18  1  0  0  0  0
  8 19  1  0  0  0  0
  8 20  1  0  0  0  0
 10 21  1  0  0  0  0
 10 22  1  0  0  0  0
M  END
> <id>
EN300-1622070

> <smiles>
CCC=1N=CC(C)=CC1N

> <MDLNUMBER>
MFCD26518810

> <IUPAC Name>
2-ethyl-5-methylpyridin-3-amine

> <CAS>
1557843-16-9

> <URL>
https://www.enaminestore.com/catalog/EN300-1622070

> <ROCS_ShapeQuery>
_x1140_x0812_0A_x1140_0A_x1097_0A_x0365_0A_x1097_0A_x0310_0A

> <ROCS_TanimotoCombo>
0.608 

> <ROCS_ShapeTanimoto>
0.198 

> <ROCS_ColorTanimoto>
0.410 

> <ROCS_RefTversky>
0.181 

> <ROCS_RefColorTversky>
0.482 

> <ROCS_RefTverskyCombo>
0.662 

> <ROCS_FitTversky>
1.960 

> <ROCS_FitColorTversky>
0.734 

> <ROCS_FitTverskyCombo>
2.694 

> <ROCS_ColorScore>
-3.782

> <ROCS_Overlap>
1849.051

> <ROCS_Rank>
442                 

$$$$
untitled-dbase-93399_3
  -OEChem-02092423213D

 32 33  0     0  0  0  0  0  0999 V2000
    6.7514   12.0106   27.4887 C   0  0  0  0  0  0  0  0  0  0  0  0
    7.7426   12.5868   26.6825 C   0  0  0  0  0  0  0  0  0  0  0  0
    6.2390   10.7420   27.2051 C   0  0  0  0  0  0  0  0  0  0  0  0
    9.1755   12.0829   24.5513 C   0  0  0  0  0  0  0  0  0  0  0  0
    8.2165   11.8623   25.5749 C   0  0  0  0  0  0  0  0  0  0  0  0
    6.6958   10.0039   26.1091 C   0  0  0  0  0  0  0  0  0  0  0  0
    7.6811   10.6027   25.3261 C   0  0  0  0  0  0  0  0  0  0  0  0
    9.1610   10.9593   23.7576 C   0  0  0  0  0  0  0  0  0  0  0  0
    9.9269   10.6097   22.5619 C   0  0  0  0  0  0  0  0  0  0  0  0
    6.1370    8.6530   25.8241 C   0  0  0  0  0  0  0  0  0  0  0  0
   10.8232    8.5785   23.8950 C   0  0  0  0  0  0  0  0  0  0  0  0
   10.4152    8.4286   21.4149 C   0  0  0  0  0  0  0  0  0  0  0  0
   12.2837    9.8218   22.3192 C   0  0  0  0  0  0  0  0  0  0  0  0
   10.8342    9.3517   22.5671 C   0  0  0  0  0  0  0  0  0  0  0  0
    9.8591   11.3099   21.5487 O   0  0  0  0  0  0  0  0  0  0  0  0
    8.2579   10.0554   24.2194 O   0  0  0  0  0  0  0  0  0  0  0  0
    6.3759   12.5609   28.3477 H   0  0  0  0  0  0  0  0  0  0  0  0
    8.1312   13.5735   26.9154 H   0  0  0  0  0  0  0  0  0  0  0  0
    5.4698   10.3282   27.8534 H   0  0  0  0  0  0  0  0  0  0  0  0
    9.7982   12.9559   24.4132 H   0  0  0  0  0  0  0  0  0  0  0  0
    5.2657    8.7300   25.1612 H   0  0  0  0  0  0  0  0  0  0  0  0
    6.8820    8.0048   25.3430 H   0  0  0  0  0  0  0  0  0  0  0  0
    5.8260    8.1454   26.7475 H   0  0  0  0  0  0  0  0  0  0  0  0
   11.4722    7.6980   23.8663 H   0  0  0  0  0  0  0  0  0  0  0  0
   11.1828    9.2056   24.7194 H   0  0  0  0  0  0  0  0  0  0  0  0
    9.8122    8.2417   24.1511 H   0  0  0  0  0  0  0  0  0  0  0  0
   11.0289    7.5236   21.3770 H   0  0  0  0  0  0  0  0  0  0  0  0
   10.5127    8.9336   20.4473 H   0  0  0  0  0  0  0  0  0  0  0  0
    9.3727    8.1075   21.5221 H   0  0  0  0  0  0  0  0  0  0  0  0
   12.9758    8.9714   22.3119 H   0  0  0  0  0  0  0  0  0  0  0  0
   12.3769   10.3414   21.3588 H   0  0  0  0  0  0  0  0  0  0  0  0
   12.6235   10.5132   23.0990 H   0  0  0  0  0  0  0  0  0  0  0  0
  1  2  1  0  0  0  0
  1  3  2  0  0  0  0
  2  5  2  0  0  0  0
  3  6  1  0  0  0  0
  4  5  1  0  0  0  0
  4  8  2  0  0  0  0
  5  7  1  0  0  0  0
  6  7  2  0  0  0  0
  6 10  1  0  0  0  0
  7 16  1  0  0  0  0
  8  9  1  0  0  0  0
  8 16  1  0  0  0  0
  9 14  1  0  0  0  0
  9 15  2  0  0  0  0
 11 14  1  0  0  0  0
 12 14  1  0  0  0  0
 13 14  1  0  0  0  0
  1 17  1  0  0  0  0
  2 18  1  0  0  0  0
  3 19  1  0  0  0  0
  4 20  1  0  0  0  0
 10 21  1  0  0  0  0
 10 22  1  0  0  0  0
 10 23  1  0  0  0  0
 11 24  1  0  0  0  0
 11 25  1  0  0  0  0
 11 26  1  0  0  0  0
 12 27  1  0  0  0  0
 12 28  1  0  0  0  0
 12 29  1  0  0  0  0
 13 30  1  0  0  0  0
 13 31  1  0  0  0  0
 13 32  1  0  0  0  0
M  END
> <id>
EN300-744855

> <smiles>
CC=1C=CC=C2C=C(OC12)C(=O)C(C)(C)C

> <MDLNUMBER>
MFCD21233474

> <IUPAC Name>
2,2-dimethyl-1-(7-methyl-1-benzofuran-2-yl)propan-1-one

> <CAS>
1497032-71-9

> <URL>
https://www.enaminestore.com/catalog/EN300-744855

> <ROCS_ShapeQuery>
_x1140_x0812_0A_x1140_0A_x1097_0A_x0365_0A_x1097_0A_x0310_0A

> <ROCS_TanimotoCombo>
0.608 

> <ROCS_ShapeTanimoto>
0.220 

> <ROCS_ColorTanimoto>
0.388 

> <ROCS_RefTversky>
0.202 

> <ROCS_RefColorTversky>
0.464 

> <ROCS_RefTverskyCombo>
0.666 

> <ROCS_FitTversky>
1.696 

> <ROCS_FitColorTversky>
0.704 

> <ROCS_FitTverskyCombo>
2.400 

> <ROCS_ColorScore>
-3.640

> <ROCS_Overlap>
2071.047

> <ROCS_Rank>
443                 

$$$$
untitled-dbase-397731_5
  -OEChem-02092423213D

 25 25  0     0  0  0  0  0  0999 V2000
    8.4437   12.5177   24.2051 C   0  0  0  0  0  0  0  0  0  0  0  0
    7.5449   12.0996   25.1801 C   0  0  0  0  0  0  0  0  0  0  0  0
    9.2212   11.5792   23.5358 C   0  0  0  0  0  0  0  0  0  0  0  0
    7.4620   10.7424   25.4465 C   0  0  0  0  0  0  0  0  0  0  0  0
    9.0634   10.2453   23.8759 C   0  0  0  0  0  0  0  0  0  0  0  0
   10.1585   12.0273   22.5153 C   0  0  0  0  0  0  0  0  0  0  0  0
    6.5081   10.2578   26.4868 C   0  0  0  0  0  0  0  0  0  0  0  0
   13.2622   12.4728   22.1095 C   0  0  0  0  0  0  0  0  0  0  0  0
   12.0668   13.4015   22.1219 C   0  0  0  0  0  0  0  0  0  0  0  0
    8.2008    9.8011   24.8172 N   0  0  0  0  0  0  0  0  0  0  0  0
    9.8529    9.2826   23.1978 N   0  0  0  0  0  0  0  0  0  0  0  0
   10.1209   11.6756   21.3299 O   0  0  0  0  0  0  0  0  0  0  0  0
   11.0871   12.8885   23.0311 O   0  0  0  0  0  0  0  0  0  0  0  0
    8.5294   13.5767   23.9759 H   0  0  0  0  0  0  0  0  0  0  0  0
    6.9320   12.8216   25.7087 H   0  0  0  0  0  0  0  0  0  0  0  0
    5.5326   10.0383   26.0366 H   0  0  0  0  0  0  0  0  0  0  0  0
    6.8800    9.3476   26.9741 H   0  0  0  0  0  0  0  0  0  0  0  0
    6.3672   11.0068   27.2766 H   0  0  0  0  0  0  0  0  0  0  0  0
   13.7120   12.4024   23.1038 H   0  0  0  0  0  0  0  0  0  0  0  0
   12.9685   11.4699   21.7825 H   0  0  0  0  0  0  0  0  0  0  0  0
   14.0199   12.8286   21.4034 H   0  0  0  0  0  0  0  0  0  0  0  0
   11.6217   13.4674   21.1246 H   0  0  0  0  0  0  0  0  0  0  0  0
   12.3618   14.4028   22.4496 H   0  0  0  0  0  0  0  0  0  0  0  0
   10.4598    9.5864   22.4683 H   0  0  0  0  0  0  0  0  0  0  0  0
    9.7133    8.3173   23.4016 H   0  0  0  0  0  0  0  0  0  0  0  0
  1  2  2  0  0  0  0
  1  3  1  0  0  0  0
  2  4  1  0  0  0  0
  3  5  2  0  0  0  0
  3  6  1  0  0  0  0
  4  7  1  0  0  0  0
  4 10  2  0  0  0  0
  5 10  1  0  0  0  0
  5 11  1  0  0  0  0
  6 12  2  0  0  0  0
  6 13  1  0  0  0  0
  8  9  1  0  0  0  0
  9 13  1  0  0  0  0
  1 14  1  0  0  0  0
  2 15  1  0  0  0  0
  7 16  1  0  0  0  0
  7 17  1  0  0  0  0
  7 18  1  0  0  0  0
  8 19  1  0  0  0  0
  8 20  1  0  0  0  0
  8 21  1  0  0  0  0
  9 22  1  0  0  0  0
  9 23  1  0  0  0  0
 11 24  1  0  0  0  0
 11 25  1  0  0  0  0
M  END
> <id>
EN300-5161474

> <smiles>
CCOC(=O)C=1C=CC(C)=NC1N

> <MDLNUMBER>
MFCD16610933

> <IUPAC Name>
ethyl 2-amino-6-methylpyridine-3-carboxylate

> <CAS>
70959-85-2

> <URL>
https://www.enaminestore.com/catalog/EN300-5161474

> <ROCS_ShapeQuery>
_x1140_x0812_0A_x1140_0A_x1097_0A_x0365_0A_x1097_0A_x0310_0A

> <ROCS_TanimotoCombo>
0.608 

> <ROCS_ShapeTanimoto>
0.235 

> <ROCS_ColorTanimoto>
0.373 

> <ROCS_RefTversky>
0.211 

> <ROCS_RefColorTversky>
0.450 

> <ROCS_RefTverskyCombo>
0.661 

> <ROCS_FitTversky>
2.002 

> <ROCS_FitColorTversky>
0.685 

> <ROCS_FitTverskyCombo>
2.687 

> <ROCS_ColorScore>
-3.534

> <ROCS_Overlap>
2157.436

> <ROCS_Rank>
444                 

$$$$
untitled-dbase-575451_6
  -OEChem-02092423213D

 39 40  0     0  0  0  0  0  0999 V2000
    9.9885   11.2430   22.8103 C   0  0  0  0  0  0  0  0  0  0  0  0
    7.9882   12.5389   23.5248 C   0  0  0  0  0  0  0  0  0  0  0  0
    9.6924   11.7384   25.2451 C   0  0  0  0  0  0  0  0  0  0  0  0
    7.0481   11.4088   23.9475 C   0  0  0  0  0  0  0  0  0  0  0  0
    8.7270   10.6301   25.6738 C   0  0  0  0  0  0  0  0  0  0  0  0
    6.6525   12.0463   26.4487 C   0  0  0  0  0  0  0  0  0  0  0  0
    6.1177   10.7883   27.1465 C   0  0  0  0  0  0  0  0  0  0  0  0
    9.4602   12.2280   23.8124 C   0  0  0  0  0  0  0  0  0  0  0  0
    7.2805   11.0663   25.4186 C   0  0  0  0  0  0  0  0  0  0  0  0
   12.1713    9.7166   21.8092 C   0  0  0  0  0  0  0  0  0  0  0  0
   11.5206    8.0031   23.5267 C   0  0  0  0  0  0  0  0  0  0  0  0
    9.9097    8.6175   21.7003 C   0  0  0  0  0  0  0  0  0  0  0  0
   11.0192    9.1251   22.6202 C   0  0  0  0  0  0  0  0  0  0  0  0
    6.2988   10.0490   25.8835 N   0  0  0  0  0  0  0  0  0  0  0  0
    9.9678   11.4192   21.5997 O   0  0  0  0  0  0  0  0  0  0  0  0
   10.4806   10.1505   23.4609 O   0  0  0  0  0  0  0  0  0  0  0  0
    7.8427   12.7475   22.4602 H   0  0  0  0  0  0  0  0  0  0  0  0
    7.7147   13.4488   24.0693 H   0  0  0  0  0  0  0  0  0  0  0  0
    9.5799   12.5923   25.9288 H   0  0  0  0  0  0  0  0  0  0  0  0
   10.7243   11.3785   25.3609 H   0  0  0  0  0  0  0  0  0  0  0  0
    6.0129   11.7177   23.7616 H   0  0  0  0  0  0  0  0  0  0  0  0
    7.2316   10.5278   23.3202 H   0  0  0  0  0  0  0  0  0  0  0  0
    8.9499    9.7064   25.1246 H   0  0  0  0  0  0  0  0  0  0  0  0
    8.8921   10.4068   26.7361 H   0  0  0  0  0  0  0  0  0  0  0  0
    5.8926   12.7383   26.0766 H   0  0  0  0  0  0  0  0  0  0  0  0
    7.3769   12.6069   27.0516 H   0  0  0  0  0  0  0  0  0  0  0  0
    6.7179   10.4225   27.9843 H   0  0  0  0  0  0  0  0  0  0  0  0
    5.0725   10.8561   27.4678 H   0  0  0  0  0  0  0  0  0  0  0  0
   10.0440   13.1440   23.6590 H   0  0  0  0  0  0  0  0  0  0  0  0
   11.8155   10.5224   21.1572 H   0  0  0  0  0  0  0  0  0  0  0  0
   12.9578   10.1158   22.4578 H   0  0  0  0  0  0  0  0  0  0  0  0
   12.6154    8.9604   21.1519 H   0  0  0  0  0  0  0  0  0  0  0  0
   10.6972    7.5758   24.1104 H   0  0  0  0  0  0  0  0  0  0  0  0
   12.2485    8.3835   24.2524 H   0  0  0  0  0  0  0  0  0  0  0  0
   11.9916    7.1993   22.9518 H   0  0  0  0  0  0  0  0  0  0  0  0
    9.0832    8.1932   22.2818 H   0  0  0  0  0  0  0  0  0  0  0  0
    9.5122    9.4180   21.0681 H   0  0  0  0  0  0  0  0  0  0  0  0
   10.2776    7.8129   21.0533 H   0  0  0  0  0  0  0  0  0  0  0  0
    6.7013    9.1218   26.0240 H   0  0  0  0  0  0  0  0  0  0  0  0
  1  8  1  0  0  0  0
  1 15  2  0  0  0  0
  1 16  1  0  0  0  0
  2  4  1  0  0  0  0
  2  8  1  0  0  0  0
  3  5  1  0  0  0  0
  3  8  1  0  0  0  0
  4  9  1  0  0  0  0
  5  9  1  0  0  0  0
  6  7  1  0  0  0  0
  6  9  1  0  0  0  0
  7 14  1  0  0  0  0
  9 14  1  0  0  0  0
 10 13  1  0  0  0  0
 11 13  1  0  0  0  0
 12 13  1  0  0  0  0
 13 16  1  0  0  0  0
  2 17  1  0  0  0  0
  2 18  1  0  0  0  0
  3 19  1  0  0  0  0
  3 20  1  0  0  0  0
  4 21  1  0  0  0  0
  4 22  1  0  0  0  0
  5 23  1  0  0  0  0
  5 24  1  0  0  0  0
  6 25  1  0  0  0  0
  6 26  1  0  0  0  0
  7 27  1  0  0  0  0
  7 28  1  0  0  0  0
  8 29  1  0  0  0  0
 10 30  1  0  0  0  0
 10 31  1  0  0  0  0
 10 32  1  0  0  0  0
 11 33  1  0  0  0  0
 11 34  1  0  0  0  0
 11 35  1  0  0  0  0
 12 36  1  0  0  0  0
 12 37  1  0  0  0  0
 12 38  1  0  0  0  0
 14 39  1  0  0  0  0
M  END
> <id>
EN300-37459018

> <smiles>
CC(C)(C)OC(=O)C1CCC2(CCN2)CC1

> <IUPAC Name>
tert-butyl 1-azaspiro[3.5]nonane-7-carboxylate

> <URL>
https://www.enaminestore.com/catalog/EN300-37459018

> <ROCS_ShapeQuery>
_x1140_x0812_0A_x1140_0A_x1097_0A_x0365_0A_x1097_0A_x0310_0A

> <ROCS_TanimotoCombo>
0.608 

> <ROCS_ShapeTanimoto>
0.228 

> <ROCS_ColorTanimoto>
0.380 

> <ROCS_RefTversky>
0.207 

> <ROCS_RefColorTversky>
0.488 

> <ROCS_RefTverskyCombo>
0.696 

> <ROCS_FitTversky>
1.779 

> <ROCS_FitColorTversky>
0.632 

> <ROCS_FitTverskyCombo>
2.411 

> <ROCS_ColorScore>
-3.857

> <ROCS_Overlap>
2127.125

> <ROCS_Rank>
445                 

$$$$
untitled-dbase-144091_1
  -OEChem-02092423213D

 22 22  0     0  0  0  0  0  0999 V2000
    8.8796   12.5218   24.4744 C   0  0  0  0  0  0  0  0  0  0  0  0
    8.1005   11.8923   25.4388 C   0  0  0  0  0  0  0  0  0  0  0  0
    9.4158   11.7792   23.4283 C   0  0  0  0  0  0  0  0  0  0  0  0
    7.8890   10.5287   25.3128 C   0  0  0  0  0  0  0  0  0  0  0  0
    9.1455   10.4207   23.3925 C   0  0  0  0  0  0  0  0  0  0  0  0
    7.0577    9.8205   26.3297 C   0  0  0  0  0  0  0  0  0  0  0  0
   10.8917    8.7413   22.7468 C   0  0  0  0  0  0  0  0  0  0  0  0
    9.6937    9.5695   22.2934 C   0  0  0  0  0  0  0  0  0  0  0  0
    8.3932    9.7740   24.3109 N   0  0  0  0  0  0  0  0  0  0  0  0
   10.2050   12.4065   22.4480 N   0  0  0  0  0  0  0  0  0  0  0  0
    9.0622   13.5907   24.5479 H   0  0  0  0  0  0  0  0  0  0  0  0
    7.6764   12.4602   26.2598 H   0  0  0  0  0  0  0  0  0  0  0  0
    6.0034    9.8221   26.0282 H   0  0  0  0  0  0  0  0  0  0  0  0
    7.3831    8.7798   26.4544 H   0  0  0  0  0  0  0  0  0  0  0  0
    7.1397   10.2995   27.3138 H   0  0  0  0  0  0  0  0  0  0  0  0
   11.6889    9.3830   23.1373 H   0  0  0  0  0  0  0  0  0  0  0  0
   11.2999    8.1640   21.9113 H   0  0  0  0  0  0  0  0  0  0  0  0
   10.6080    8.0389   23.5379 H   0  0  0  0  0  0  0  0  0  0  0  0
    8.9132    8.8958   21.9076 H   0  0  0  0  0  0  0  0  0  0  0  0
    9.9896   10.1958   21.4377 H   0  0  0  0  0  0  0  0  0  0  0  0
   10.3377   13.3990   22.4842 H   0  0  0  0  0  0  0  0  0  0  0  0
   10.5463   11.8697   21.6738 H   0  0  0  0  0  0  0  0  0  0  0  0
  1  2  2  0  0  0  0
  1  3  1  0  0  0  0
  2  4  1  0  0  0  0
  3  5  2  0  0  0  0
  3 10  1  0  0  0  0
  4  6  1  0  0  0  0
  4  9  2  0  0  0  0
  5  8  1  0  0  0  0
  5  9  1  0  0  0  0
  7  8  1  0  0  0  0
  1 11  1  0  0  0  0
  2 12  1  0  0  0  0
  6 13  1  0  0  0  0
  6 14  1  0  0  0  0
  6 15  1  0  0  0  0
  7 16  1  0  0  0  0
  7 17  1  0  0  0  0
  7 18  1  0  0  0  0
  8 19  1  0  0  0  0
  8 20  1  0  0  0  0
 10 21  1  0  0  0  0
 10 22  1  0  0  0  0
M  END
> <id>
EN300-1622328

> <smiles>
CCC=1N=C(C)C=CC1N

> <MDLNUMBER>
MFCD24644895

> <IUPAC Name>
2-ethyl-6-methylpyridin-3-amine

> <CAS>
1344663-48-4

> <Purity>
95

> <URL>
https://www.enaminestore.com/catalog/EN300-1622328

> <MP>
108-111

> <ROCS_ShapeQuery>
_x1140_x0812_0A_x1140_0A_x1097_0A_x0365_0A_x1097_0A_x0310_0A

> <ROCS_TanimotoCombo>
0.608 

> <ROCS_ShapeTanimoto>
0.198 

> <ROCS_ColorTanimoto>
0.410 

> <ROCS_RefTversky>
0.180 

> <ROCS_RefColorTversky>
0.482 

> <ROCS_RefTverskyCombo>
0.662 

> <ROCS_FitTversky>
1.958 

> <ROCS_FitColorTversky>
0.734 

> <ROCS_FitTverskyCombo>
2.693 

> <ROCS_ColorScore>
-3.782

> <ROCS_Overlap>
1848.544

> <ROCS_Rank>
446                 

$$$$
untitled-dbase-38876_8
  -OEChem-02092423213D

 22 22  0     0  0  0  0  0  0999 V2000
    7.5360   11.4783   25.9298 C   0  0  0  0  0  0  0  0  0  0  0  0
    7.8875   12.5526   25.1202 C   0  0  0  0  0  0  0  0  0  0  0  0
    7.8608   10.2039   25.4936 C   0  0  0  0  0  0  0  0  0  0  0  0
    8.5438   12.3230   23.9161 C   0  0  0  0  0  0  0  0  0  0  0  0
    8.8237   11.0108   23.5701 C   0  0  0  0  0  0  0  0  0  0  0  0
    9.5067   10.6886   22.3261 C   0  0  0  0  0  0  0  0  0  0  0  0
    8.9229   13.4710   23.0455 C   0  0  0  0  0  0  0  0  0  0  0  0
   11.1348    8.7310   22.5136 C   0  0  0  0  0  0  0  0  0  0  0  0
    9.7863    9.2144   22.0031 C   0  0  0  0  0  0  0  0  0  0  0  0
    8.4978    9.9415   24.3305 N   0  0  0  0  0  0  0  0  0  0  0  0
    9.8743   11.5541   21.5143 O   0  0  0  0  0  0  0  0  0  0  0  0
    7.0237   11.6332   26.8725 H   0  0  0  0  0  0  0  0  0  0  0  0
    7.6452   13.5639   25.4350 H   0  0  0  0  0  0  0  0  0  0  0  0
    7.6095    9.3325   26.0894 H   0  0  0  0  0  0  0  0  0  0  0  0
    9.9267   13.8323   23.3028 H   0  0  0  0  0  0  0  0  0  0  0  0
    8.9180   13.1872   21.9845 H   0  0  0  0  0  0  0  0  0  0  0  0
    8.2162   14.3050   23.1530 H   0  0  0  0  0  0  0  0  0  0  0  0
   11.9524    9.3164   22.0799 H   0  0  0  0  0  0  0  0  0  0  0  0
   11.1860    8.8273   23.6025 H   0  0  0  0  0  0  0  0  0  0  0  0
   11.2997    7.6798   22.2554 H   0  0  0  0  0  0  0  0  0  0  0  0
    8.9997    8.6042   22.4601 H   0  0  0  0  0  0  0  0  0  0  0  0
    9.7569    9.0863   20.9157 H   0  0  0  0  0  0  0  0  0  0  0  0
  1  2  2  0  0  0  0
  1  3  1  0  0  0  0
  2  4  1  0  0  0  0
  3 10  2  0  0  0  0
  4  5  2  0  0  0  0
  4  7  1  0  0  0  0
  5  6  1  0  0  0  0
  5 10  1  0  0  0  0
  6  9  1  0  0  0  0
  6 11  2  0  0  0  0
  8  9  1  0  0  0  0
  1 12  1  0  0  0  0
  2 13  1  0  0  0  0
  3 14  1  0  0  0  0
  7 15  1  0  0  0  0
  7 16  1  0  0  0  0
  7 17  1  0  0  0  0
  8 18  1  0  0  0  0
  8 19  1  0  0  0  0
  8 20  1  0  0  0  0
  9 21  1  0  0  0  0
  9 22  1  0  0  0  0
M  END
> <id>
EN300-195447

> <smiles>
CCC(=O)C=1N=CC=CC1C

> <MDLNUMBER>
MFCD16087790

> <IUPAC Name>
1-(3-methylpyridin-2-yl)propan-1-one

> <CAS>
917872-34-5

> <Purity>
95

> <URL>
https://www.enaminestore.com/catalog/EN300-195447

> <ROCS_ShapeQuery>
_x1140_x0812_0A_x1140_0A_x1097_0A_x0365_0A_x1097_0A_x0310_0A

> <ROCS_TanimotoCombo>
0.608 

> <ROCS_ShapeTanimoto>
0.197 

> <ROCS_ColorTanimoto>
0.411 

> <ROCS_RefTversky>
0.181 

> <ROCS_RefColorTversky>
0.448 

> <ROCS_RefTverskyCombo>
0.629 

> <ROCS_FitTversky>
1.870 

> <ROCS_FitColorTversky>
0.832 

> <ROCS_FitTverskyCombo>
2.703 

> <ROCS_ColorScore>
-3.496

> <ROCS_Overlap>
1849.119

> <ROCS_Rank>
447                 

$$$$
untitled-dbase-574247_6
  -OEChem-02092423213D

 34 35  0     0  0  0  0  0  0999 V2000
    8.3836   13.2055   25.2951 C   0  0  0  0  0  0  0  0  0  0  0  0
    9.1909   12.6644   24.2964 C   0  0  0  0  0  0  0  0  0  0  0  0
    7.3910   12.4261   25.8935 C   0  0  0  0  0  0  0  0  0  0  0  0
    9.0162   11.3397   23.9024 C   0  0  0  0  0  0  0  0  0  0  0  0
    7.1890   11.0986   25.4966 C   0  0  0  0  0  0  0  0  0  0  0  0
    8.0329   10.5582   24.5129 C   0  0  0  0  0  0  0  0  0  0  0  0
    9.8618   10.8043   22.8437 C   0  0  0  0  0  0  0  0  0  0  0  0
    5.9091    9.0480   25.4812 C   0  0  0  0  0  0  0  0  0  0  0  0
    7.2004    8.4268   24.9878 C   0  0  0  0  0  0  0  0  0  0  0  0
   12.4777   10.1683   21.8475 C   0  0  0  0  0  0  0  0  0  0  0  0
   12.1876    7.9746   23.0361 C   0  0  0  0  0  0  0  0  0  0  0  0
   10.6322    8.5987   21.1654 C   0  0  0  0  0  0  0  0  0  0  0  0
   11.4720    9.1236   22.3291 C   0  0  0  0  0  0  0  0  0  0  0  0
    6.1992   10.3263   26.0878 N   0  0  0  0  0  0  0  0  0  0  0  0
    9.9103   11.2565   21.6936 O   0  0  0  0  0  0  0  0  0  0  0  0
    7.9263    9.2565   24.0838 O   0  0  0  0  0  0  0  0  0  0  0  0
   10.5975    9.7382   23.2815 O   0  0  0  0  0  0  0  0  0  0  0  0
    6.9219    7.2669   24.3399 F   0  0  0  0  0  0  0  0  0  0  0  0
    8.0092    8.1046   26.0285 F   0  0  0  0  0  0  0  0  0  0  0  0
    8.5282   14.2345   25.6116 H   0  0  0  0  0  0  0  0  0  0  0  0
    9.9493   13.2874   23.8295 H   0  0  0  0  0  0  0  0  0  0  0  0
    6.7818   12.8618   26.6821 H   0  0  0  0  0  0  0  0  0  0  0  0
    5.2070    9.1819   24.6524 H   0  0  0  0  0  0  0  0  0  0  0  0
    5.4333    8.3932   26.2203 H   0  0  0  0  0  0  0  0  0  0  0  0
   11.9680   10.9947   21.3395 H   0  0  0  0  0  0  0  0  0  0  0  0
   13.0624   10.5780   22.6776 H   0  0  0  0  0  0  0  0  0  0  0  0
   13.1705    9.7362   21.1164 H   0  0  0  0  0  0  0  0  0  0  0  0
   11.4698    7.2226   23.3833 H   0  0  0  0  0  0  0  0  0  0  0  0
   12.7149    8.3328   23.9277 H   0  0  0  0  0  0  0  0  0  0  0  0
   12.9124    7.4842   22.3783 H   0  0  0  0  0  0  0  0  0  0  0  0
    9.9108    7.8493   21.5106 H   0  0  0  0  0  0  0  0  0  0  0  0
   10.0824    9.4048   20.6690 H   0  0  0  0  0  0  0  0  0  0  0  0
   11.2648    8.0997   20.4224 H   0  0  0  0  0  0  0  0  0  0  0  0
    5.9004   10.5223   27.0347 H   0  0  0  0  0  0  0  0  0  0  0  0
  1  2  2  0  0  0  0
  1  3  1  0  0  0  0
  2  4  1  0  0  0  0
  3  5  2  0  0  0  0
  4  6  2  0  0  0  0
  4  7  1  0  0  0  0
  5  6  1  0  0  0  0
  5 14  1  0  0  0  0
  6 16  1  0  0  0  0
  7 15  2  0  0  0  0
  7 17  1  0  0  0  0
  8  9  1  0  0  0  0
  8 14  1  0  0  0  0
  9 16  1  0  0  0  0
  9 18  1  0  0  0  0
  9 19  1  0  0  0  0
 10 13  1  0  0  0  0
 11 13  1  0  0  0  0
 12 13  1  0  0  0  0
 13 17  1  0  0  0  0
  1 20  1  0  0  0  0
  2 21  1  0  0  0  0
  3 22  1  0  0  0  0
  8 23  1  0  0  0  0
  8 24  1  0  0  0  0
 10 25  1  0  0  0  0
 10 26  1  0  0  0  0
 10 27  1  0  0  0  0
 11 28  1  0  0  0  0
 11 29  1  0  0  0  0
 11 30  1  0  0  0  0
 12 31  1  0  0  0  0
 12 32  1  0  0  0  0
 12 33  1  0  0  0  0
 14 34  1  0  0  0  0
M  END
> <id>
EN300-43359302

> <smiles>
CC(C)(C)OC(=O)C=1C=CC=C2NCC(F)(F)OC12

> <IUPAC Name>
tert-butyl 2,2-difluoro-3,4-dihydro-2H-1,4-benzoxazine-8-carboxylate

> <URL>
https://www.enaminestore.com/catalog/EN300-43359302

> <ROCS_ShapeQuery>
_x1140_x0812_0A_x1140_0A_x1097_0A_x0365_0A_x1097_0A_x0310_0A

> <ROCS_TanimotoCombo>
0.608 

> <ROCS_ShapeTanimoto>
0.238 

> <ROCS_ColorTanimoto>
0.370 

> <ROCS_RefTversky>
0.218 

> <ROCS_RefColorTversky>
0.479 

> <ROCS_RefTverskyCombo>
0.697 

> <ROCS_FitTversky>
1.633 

> <ROCS_FitColorTversky>
0.620 

> <ROCS_FitTverskyCombo>
2.253 

> <ROCS_ColorScore>
-3.786

> <ROCS_Overlap>
2234.059

> <ROCS_Rank>
448                 

$$$$
untitled-dbase-366410_8
  -OEChem-02092423213D

 46 46  0     0  0  0  0  0  0999 V2000
    8.8143   14.2333   25.7822 C   0  0  0  0  0  0  0  0  0  0  0  0
    9.0889   15.3160   26.2224 C   0  0  0  0  0  0  0  0  0  0  0  0
    9.1530   12.4892   24.1208 C   0  0  0  0  0  0  0  0  0  0  0  0
    7.8886   10.4320   24.1999 C   0  0  0  0  0  0  0  0  0  0  0  0
    8.4874   12.9422   25.2598 C   0  0  0  0  0  0  0  0  0  0  0  0
    8.8536   11.2342   23.5908 C   0  0  0  0  0  0  0  0  0  0  0  0
    7.5224   12.1401   25.8689 C   0  0  0  0  0  0  0  0  0  0  0  0
    7.2230   10.8850   25.3390 C   0  0  0  0  0  0  0  0  0  0  0  0
    9.5452   10.7614   22.4019 C   0  0  0  0  0  0  0  0  0  0  0  0
    6.8028   12.6188   27.0930 C   0  0  0  0  0  0  0  0  0  0  0  0
   11.9229    9.8364   23.0718 C   0  0  0  0  0  0  0  0  0  0  0  0
   10.9542    7.5190   23.0953 C   0  0  0  0  0  0  0  0  0  0  0  0
   11.3983    8.6667   20.9059 C   0  0  0  0  0  0  0  0  0  0  0  0
    8.9856   17.1159   28.7085 C   0  0  0  0  0  0  0  0  0  0  0  0
   11.3717   17.2870   26.8023 C   0  0  0  0  0  0  0  0  0  0  0  0
    8.6362   18.3391   25.9265 C   0  0  0  0  0  0  0  0  0  0  0  0
   10.9850    8.8594   22.3642 C   0  0  0  0  0  0  0  0  0  0  0  0
    6.2490   10.0573   25.9404 N   0  0  0  0  0  0  0  0  0  0  0  0
    9.9799   11.4969   21.5058 O   0  0  0  0  0  0  0  0  0  0  0  0
    9.6588    9.3980   22.3948 O   0  0  0  0  0  0  0  0  0  0  0  0
    9.5195   17.0103   26.9131 Si  0  0  0  0  0  0  0  0  0  0  0  0
    9.9061   13.1111   23.6403 H   0  0  0  0  0  0  0  0  0  0  0  0
    7.6553    9.4533   23.7860 H   0  0  0  0  0  0  0  0  0  0  0  0
    5.8968   13.1620   26.8068 H   0  0  0  0  0  0  0  0  0  0  0  0
    6.5226   11.7779   27.7363 H   0  0  0  0  0  0  0  0  0  0  0  0
    7.4402   13.2823   27.6873 H   0  0  0  0  0  0  0  0  0  0  0  0
   11.9478   10.7998   22.5500 H   0  0  0  0  0  0  0  0  0  0  0  0
   11.6169   10.0102   24.1085 H   0  0  0  0  0  0  0  0  0  0  0  0
   12.9519    9.4590   23.0733 H   0  0  0  0  0  0  0  0  0  0  0  0
   10.2824    6.8149   22.5911 H   0  0  0  0  0  0  0  0  0  0  0  0
   10.5676    7.6388   24.1139 H   0  0  0  0  0  0  0  0  0  0  0  0
   11.9498    7.0674   23.1532 H   0  0  0  0  0  0  0  0  0  0  0  0
   10.7257    7.9659   20.3981 H   0  0  0  0  0  0  0  0  0  0  0  0
   11.3904    9.6133   20.3559 H   0  0  0  0  0  0  0  0  0  0  0  0
   12.4031    8.2339   20.8396 H   0  0  0  0  0  0  0  0  0  0  0  0
    9.2253   18.0945   29.1356 H   0  0  0  0  0  0  0  0  0  0  0  0
    7.9067   16.9639   28.8100 H   0  0  0  0  0  0  0  0  0  0  0  0
    9.4871   16.3561   29.3157 H   0  0  0  0  0  0  0  0  0  0  0  0
   11.6496   18.2684   27.1989 H   0  0  0  0  0  0  0  0  0  0  0  0
   11.9196   16.5306   27.3727 H   0  0  0  0  0  0  0  0  0  0  0  0
   11.7179   17.2371   25.7654 H   0  0  0  0  0  0  0  0  0  0  0  0
    8.8703   19.3373   26.3090 H   0  0  0  0  0  0  0  0  0  0  0  0
    8.9289   18.3098   24.8725 H   0  0  0  0  0  0  0  0  0  0  0  0
    7.5504   18.2111   25.9738 H   0  0  0  0  0  0  0  0  0  0  0  0
    6.0220    9.1841   25.5117 H   0  0  0  0  0  0  0  0  0  0  0  0
    5.7392   10.4008   26.7278 H   0  0  0  0  0  0  0  0  0  0  0  0
  1  2  3  0  0  0  0
  1  5  1  0  0  0  0
  2 21  1  0  0  0  0
  3  5  1  0  0  0  0
  3  6  2  0  0  0  0
  4  6  1  0  0  0  0
  4  8  2  0  0  0  0
  5  7  2  0  0  0  0
  6  9  1  0  0  0  0
  7  8  1  0  0  0  0
  7 10  1  0  0  0  0
  8 18  1  0  0  0  0
  9 19  2  0  0  0  0
  9 20  1  0  0  0  0
 11 17  1  0  0  0  0
 12 17  1  0  0  0  0
 13 17  1  0  0  0  0
 14 21  1  0  0  0  0
 15 21  1  0  0  0  0
 16 21  1  0  0  0  0
 17 20  1  0  0  0  0
  3 22  1  0  0  0  0
  4 23  1  0  0  0  0
 10 24  1  0  0  0  0
 10 25  1  0  0  0  0
 10 26  1  0  0  0  0
 11 27  1  0  0  0  0
 11 28  1  0  0  0  0
 11 29  1  0  0  0  0
 12 30  1  0  0  0  0
 12 31  1  0  0  0  0
 12 32  1  0  0  0  0
 13 33  1  0  0  0  0
 13 34  1  0  0  0  0
 13 35  1  0  0  0  0
 14 36  1  0  0  0  0
 14 37  1  0  0  0  0
 14 38  1  0  0  0  0
 15 39  1  0  0  0  0
 15 40  1  0  0  0  0
 15 41  1  0  0  0  0
 16 42  1  0  0  0  0
 16 43  1  0  0  0  0
 16 44  1  0  0  0  0
 18 45  1  0  0  0  0
 18 46  1  0  0  0  0
M  END
> <id>
EN300-26627475

> <smiles>
CC=1C(N)=CC(=CC1C#C[Si](C)(C)C)C(=O)OC(C)(C)C

> <IUPAC Name>
tert-butyl 3-amino-4-methyl-5-[2-(trimethylsilyl)ethynyl]benzoate

> <CAS>
2418726-43-7

> <URL>
https://www.enaminestore.com/catalog/EN300-26627475

> <ROCS_ShapeQuery>
_x1140_x0812_0A_x1140_0A_x1097_0A_x0365_0A_x1097_0A_x0310_0A

> <ROCS_TanimotoCombo>
0.608 

> <ROCS_ShapeTanimoto>
0.225 

> <ROCS_ColorTanimoto>
0.383 

> <ROCS_RefTversky>
0.208 

> <ROCS_RefColorTversky>
0.459 

> <ROCS_RefTverskyCombo>
0.667 

> <ROCS_FitTversky>
1.568 

> <ROCS_FitColorTversky>
0.700 

> <ROCS_FitTverskyCombo>
2.268 

> <ROCS_ColorScore>
-3.602

> <ROCS_Overlap>
2132.550

> <ROCS_Rank>
449                 

$$$$
untitled-dbase-569552_4
  -OEChem-02092423213D

 29 30  0     0  0  0  0  0  0999 V2000
    8.1694   12.0054   25.4812 C   0  0  0  0  0  0  0  0  0  0  0  0
    9.0145   12.3844   24.4441 C   0  0  0  0  0  0  0  0  0  0  0  0
    7.7338   10.6905   25.5152 C   0  0  0  0  0  0  0  0  0  0  0  0
    9.3928   11.4502   23.4863 C   0  0  0  0  0  0  0  0  0  0  0  0
    8.9026   10.1601   23.6097 C   0  0  0  0  0  0  0  0  0  0  0  0
   10.2812   11.8747   22.4087 C   0  0  0  0  0  0  0  0  0  0  0  0
   13.5614   12.6698   23.9373 C   0  0  0  0  0  0  0  0  0  0  0  0
   13.6603   13.3547   22.5805 C   0  0  0  0  0  0  0  0  0  0  0  0
   12.0586   12.5271   24.1341 C   0  0  0  0  0  0  0  0  0  0  0  0
   12.5443   12.6928   21.7872 C   0  0  0  0  0  0  0  0  0  0  0  0
   11.1271    8.8849   22.6409 C   0  0  0  0  0  0  0  0  0  0  0  0
    8.0799    9.7547   24.6030 N   0  0  0  0  0  0  0  0  0  0  0  0
   11.5305   12.3636   22.7800 N   0  0  0  0  0  0  0  0  0  0  0  0
    9.9210   11.7722   21.2364 O   0  0  0  0  0  0  0  0  0  0  0  0
    9.3350    8.8897   22.4260 S   0  0  0  0  0  0  0  0  0  0  0  0
    7.8612   12.7165   26.2387 H   0  0  0  0  0  0  0  0  0  0  0  0
    9.3706   13.4102   24.3948 H   0  0  0  0  0  0  0  0  0  0  0  0
    7.0728   10.3449   26.3031 H   0  0  0  0  0  0  0  0  0  0  0  0
   14.0358   11.6821   23.8987 H   0  0  0  0  0  0  0  0  0  0  0  0
   14.0346   13.2526   24.7324 H   0  0  0  0  0  0  0  0  0  0  0  0
   13.4681   14.4291   22.6841 H   0  0  0  0  0  0  0  0  0  0  0  0
   14.6415   13.2195   22.1172 H   0  0  0  0  0  0  0  0  0  0  0  0
   11.7944   11.6746   24.7663 H   0  0  0  0  0  0  0  0  0  0  0  0
   11.6203   13.4379   24.5567 H   0  0  0  0  0  0  0  0  0  0  0  0
   12.1290   13.3373   21.0069 H   0  0  0  0  0  0  0  0  0  0  0  0
   12.8775   11.7549   21.3292 H   0  0  0  0  0  0  0  0  0  0  0  0
   11.5793    8.1449   21.9760 H   0  0  0  0  0  0  0  0  0  0  0  0
   11.3762    8.6341   23.6750 H   0  0  0  0  0  0  0  0  0  0  0  0
   11.5319    9.8721   22.4051 H   0  0  0  0  0  0  0  0  0  0  0  0
  1  2  2  0  0  0  0
  1  3  1  0  0  0  0
  2  4  1  0  0  0  0
  3 12  2  0  0  0  0
  4  5  2  0  0  0  0
  4  6  1  0  0  0  0
  5 12  1  0  0  0  0
  5 15  1  0  0  0  0
  6 13  1  0  0  0  0
  6 14  2  0  0  0  0
  7  8  1  0  0  0  0
  7  9  1  0  0  0  0
  8 10  1  0  0  0  0
  9 13  1  0  0  0  0
 10 13  1  0  0  0  0
 11 15  1  0  0  0  0
  1 16  1  0  0  0  0
  2 17  1  0  0  0  0
  3 18  1  0  0  0  0
  7 19  1  0  0  0  0
  7 20  1  0  0  0  0
  8 21  1  0  0  0  0
  8 22  1  0  0  0  0
  9 23  1  0  0  0  0
  9 24  1  0  0  0  0
 10 25  1  0  0  0  0
 10 26  1  0  0  0  0
 11 27  1  0  0  0  0
 11 28  1  0  0  0  0
 11 29  1  0  0  0  0
M  END
> <id>
EN300-7509767

> <smiles>
CSC=1N=CC=CC1C(=O)N2CCCC2

> <MDLNUMBER>
MFCD11731615

> <IUPAC Name>
2-(methylsulfanyl)-3-(pyrrolidine-1-carbonyl)pyridine

> <CAS>
1089558-83-7

> <URL>
https://www.enaminestore.com/catalog/EN300-7509767

> <ROCS_ShapeQuery>
_x1140_x0812_0A_x1140_0A_x1097_0A_x0365_0A_x1097_0A_x0310_0A

> <ROCS_TanimotoCombo>
0.608 

> <ROCS_ShapeTanimoto>
0.218 

> <ROCS_ColorTanimoto>
0.390 

> <ROCS_RefTversky>
0.199 

> <ROCS_RefColorTversky>
0.464 

> <ROCS_RefTverskyCombo>
0.664 

> <ROCS_FitTversky>
1.770 

> <ROCS_FitColorTversky>
0.708 

> <ROCS_FitTverskyCombo>
2.478 

> <ROCS_ColorScore>
-3.646

> <ROCS_Overlap>
2043.362

> <ROCS_Rank>
450                 

$$$$
untitled-dbase-283277_6
  -OEChem-02092423213D

 25 25  0     0  0  0  0  0  0999 V2000
    8.9105   11.2832   23.7893 C   0  0  0  0  0  0  0  0  0  0  0  0
    8.5696   12.5340   24.2599 C   0  0  0  0  0  0  0  0  0  0  0  0
    7.3247   10.6902   25.1834 C   0  0  0  0  0  0  0  0  0  0  0  0
    9.9664   11.0174   22.7800 C   0  0  0  0  0  0  0  0  0  0  0  0
   11.5256    9.2550   21.1783 C   0  0  0  0  0  0  0  0  0  0  0  0
   12.2424    8.2207   23.3521 C   0  0  0  0  0  0  0  0  0  0  0  0
    9.8227    8.1701   22.6810 C   0  0  0  0  0  0  0  0  0  0  0  0
   11.1257    8.9662   22.6245 C   0  0  0  0  0  0  0  0  0  0  0  0
    8.1980   10.2246   24.3181 N   0  0  0  0  0  0  0  0  0  0  0  0
    6.4587    9.9154   25.8894 N   0  0  0  0  0  0  0  0  0  0  0  0
    9.9433   11.4780   21.6492 O   0  0  0  0  0  0  0  0  0  0  0  0
   10.9284   10.2097   23.2984 O   0  0  0  0  0  0  0  0  0  0  0  0
    7.3055   12.3911   25.4101 S   0  0  0  0  0  0  0  0  0  0  0  0
    9.3431   14.1882   23.7486 Br  0  0  0  0  0  0  0  0  0  0  0  0
   10.7266    9.7900   20.6525 H   0  0  0  0  0  0  0  0  0  0  0  0
   12.4397    9.8551   21.1247 H   0  0  0  0  0  0  0  0  0  0  0  0
   11.6901    8.3235   20.6246 H   0  0  0  0  0  0  0  0  0  0  0  0
   11.9598    8.0114   24.3902 H   0  0  0  0  0  0  0  0  0  0  0  0
   13.1531    8.8289   23.3968 H   0  0  0  0  0  0  0  0  0  0  0  0
   12.4825    7.2726   22.8603 H   0  0  0  0  0  0  0  0  0  0  0  0
    9.5357    7.9628   23.7182 H   0  0  0  0  0  0  0  0  0  0  0  0
    9.0009    8.7066   22.1957 H   0  0  0  0  0  0  0  0  0  0  0  0
    9.9396    7.1962   22.1920 H   0  0  0  0  0  0  0  0  0  0  0  0
    6.4056    8.9009   25.7483 H   0  0  0  0  0  0  0  0  0  0  0  0
    5.7611   10.3249   26.5201 H   0  0  0  0  0  0  0  0  0  0  0  0
  1  2  2  0  0  0  0
  1  4  1  0  0  0  0
  1  9  1  0  0  0  0
  2 13  1  0  0  0  0
  2 14  1  0  0  0  0
  3  9  2  0  0  0  0
  3 10  1  0  0  0  0
  3 13  1  0  0  0  0
  4 11  2  0  0  0  0
  4 12  1  0  0  0  0
  5  8  1  0  0  0  0
  6  8  1  0  0  0  0
  7  8  1  0  0  0  0
  8 12  1  0  0  0  0
  5 15  1  0  0  0  0
  5 16  1  0  0  0  0
  5 17  1  0  0  0  0
  6 18  1  0  0  0  0
  6 19  1  0  0  0  0
  6 20  1  0  0  0  0
  7 21  1  0  0  0  0
  7 22  1  0  0  0  0
  7 23  1  0  0  0  0
 10 24  1  0  0  0  0
 10 25  1  0  0  0  0
M  END
> <id>
EN300-6510721

> <smiles>
CC(C)(C)OC(=O)C=1N=C(N)SC1Br

> <IUPAC Name>
tert-butyl 2-amino-5-bromo-1,3-thiazole-4-carboxylate

> <CAS>
2248341-61-7

> <URL>
https://www.enaminestore.com/catalog/EN300-6510721

> <ROCS_ShapeQuery>
_x1140_x0812_0A_x1140_0A_x1097_0A_x0365_0A_x1097_0A_x0310_0A

> <ROCS_TanimotoCombo>
0.608 

> <ROCS_ShapeTanimoto>
0.214 

> <ROCS_ColorTanimoto>
0.394 

> <ROCS_RefTversky>
0.195 

> <ROCS_RefColorTversky>
0.534 

> <ROCS_RefTverskyCombo>
0.729 

> <ROCS_FitTversky>
1.828 

> <ROCS_FitColorTversky>
0.601 

> <ROCS_FitTverskyCombo>
2.429 

> <ROCS_ColorScore>
-4.242

> <ROCS_Overlap>
1999.313

> <ROCS_Rank>
451                 

$$$$
untitled-dbase-524626_6
  -OEChem-02092423213D

 26 26  0     0  0  0  0  0  0999 V2000
    8.1442   11.8274   25.4247 C   0  0  0  0  0  0  0  0  0  0  0  0
    9.1123   11.9266   24.4554 C   0  0  0  0  0  0  0  0  0  0  0  0
    7.5163   10.5934   25.1700 C   0  0  0  0  0  0  0  0  0  0  0  0
   11.4858    9.0454   23.8982 C   0  0  0  0  0  0  0  0  0  0  0  0
   11.3296    8.7772   21.4143 C   0  0  0  0  0  0  0  0  0  0  0  0
    5.9402   10.8722   27.0840 C   0  0  0  0  0  0  0  0  0  0  0  0
    9.8297   10.4352   22.5543 C   0  0  0  0  0  0  0  0  0  0  0  0
   10.5444    9.0792   22.6923 C   0  0  0  0  0  0  0  0  0  0  0  0
    8.0413    9.9546   24.1210 N   0  0  0  0  0  0  0  0  0  0  0  0
    9.0092   10.7904   23.7080 N   0  0  0  0  0  0  0  0  0  0  0  0
    6.4907   10.1500   25.9416 N   0  0  0  0  0  0  0  0  0  0  0  0
    7.9315   12.5497   26.1999 H   0  0  0  0  0  0  0  0  0  0  0  0
    9.8463   12.6910   24.2411 H   0  0  0  0  0  0  0  0  0  0  0  0
   12.2526    9.8230   23.8131 H   0  0  0  0  0  0  0  0  0  0  0  0
   10.9403    9.2106   24.8333 H   0  0  0  0  0  0  0  0  0  0  0  0
   12.0041    8.0843   23.9705 H   0  0  0  0  0  0  0  0  0  0  0  0
   12.0920    9.5428   21.2356 H   0  0  0  0  0  0  0  0  0  0  0  0
   11.8397    7.8112   21.4905 H   0  0  0  0  0  0  0  0  0  0  0  0
   10.6702    8.7450   20.5403 H   0  0  0  0  0  0  0  0  0  0  0  0
    6.4823   11.8203   27.2150 H   0  0  0  0  0  0  0  0  0  0  0  0
    4.8747   11.0807   26.9070 H   0  0  0  0  0  0  0  0  0  0  0  0
    6.0481   10.2598   27.9914 H   0  0  0  0  0  0  0  0  0  0  0  0
   10.5518   11.2437   22.3862 H   0  0  0  0  0  0  0  0  0  0  0  0
    9.1566   10.4295   21.6873 H   0  0  0  0  0  0  0  0  0  0  0  0
    9.7978    8.2857   22.8234 H   0  0  0  0  0  0  0  0  0  0  0  0
    6.0523    9.2451   25.7310 H   0  0  0  0  0  0  0  0  0  0  0  0
  1  2  2  0  0  0  0
  1  3  1  0  0  0  0
  2 10  1  0  0  0  0
  3  9  2  0  0  0  0
  3 11  1  0  0  0  0
  4  8  1  0  0  0  0
  5  8  1  0  0  0  0
  6 11  1  0  0  0  0
  7  8  1  0  0  0  0
  7 10  1  0  0  0  0
  9 10  1  0  0  0  0
  1 12  1  0  0  0  0
  2 13  1  0  0  0  0
  4 14  1  0  0  0  0
  4 15  1  0  0  0  0
  4 16  1  0  0  0  0
  5 17  1  0  0  0  0
  5 18  1  0  0  0  0
  5 19  1  0  0  0  0
  6 20  1  0  0  0  0
  6 21  1  0  0  0  0
  6 22  1  0  0  0  0
  7 23  1  0  0  0  0
  7 24  1  0  0  0  0
  8 25  1  0  0  0  0
 11 26  1  0  0  0  0
M  END
> <id>
EN300-33048177

> <smiles>
CNC=1C=CN(CC(C)C)N1

> <IUPAC Name>
N-methyl-1-(2-methylpropyl)-1H-pyrazol-3-amine

> <CAS>
2694725-52-3

> <URL>
https://www.enaminestore.com/catalog/EN300-33048177

> <ROCS_ShapeQuery>
_x1140_x0812_0A_x1140_0A_x1097_0A_x0365_0A_x1097_0A_x0310_0A

> <ROCS_TanimotoCombo>
0.608 

> <ROCS_ShapeTanimoto>
0.190 

> <ROCS_ColorTanimoto>
0.418 

> <ROCS_RefTversky>
0.175 

> <ROCS_RefColorTversky>
0.453 

> <ROCS_RefTverskyCombo>
0.628 

> <ROCS_FitTversky>
1.827 

> <ROCS_FitColorTversky>
0.842 

> <ROCS_FitTverskyCombo>
2.669 

> <ROCS_ColorScore>
-3.536

> <ROCS_Overlap>
1793.791

> <ROCS_Rank>
452                 

$$$$
untitled-dbase-137201_8
  -OEChem-02092423213D

 29 30  0     0  0  0  0  0  0999 V2000
    8.4620   12.5443   24.2014 C   0  0  0  0  0  0  0  0  0  0  0  0
    9.2268   11.5881   23.5371 C   0  0  0  0  0  0  0  0  0  0  0  0
    7.5695   12.1071   25.1589 C   0  0  0  0  0  0  0  0  0  0  0  0
    7.4807   10.7458   25.4293 C   0  0  0  0  0  0  0  0  0  0  0  0
    9.0622   10.2452   23.8776 C   0  0  0  0  0  0  0  0  0  0  0  0
   10.1708   12.0250   22.5170 C   0  0  0  0  0  0  0  0  0  0  0  0
    6.6599   12.8974   26.0382 C   0  0  0  0  0  0  0  0  0  0  0  0
    6.4972   10.4870   26.5344 C   0  0  0  0  0  0  0  0  0  0  0  0
    5.7009   11.8005   26.5297 C   0  0  0  0  0  0  0  0  0  0  0  0
   12.8657   13.2911   21.4553 C   0  0  0  0  0  0  0  0  0  0  0  0
   11.6445   13.8612   22.1448 C   0  0  0  0  0  0  0  0  0  0  0  0
    8.2031    9.7906   24.8214 N   0  0  0  0  0  0  0  0  0  0  0  0
    9.8506    9.2856   23.1917 N   0  0  0  0  0  0  0  0  0  0  0  0
   10.1300   11.6729   21.3322 O   0  0  0  0  0  0  0  0  0  0  0  0
   11.1082   12.8755   23.0339 O   0  0  0  0  0  0  0  0  0  0  0  0
    8.5618   13.6018   23.9785 H   0  0  0  0  0  0  0  0  0  0  0  0
    7.2218   13.3333   26.8705 H   0  0  0  0  0  0  0  0  0  0  0  0
    6.1247   13.6806   25.4943 H   0  0  0  0  0  0  0  0  0  0  0  0
    5.8606    9.6223   26.3298 H   0  0  0  0  0  0  0  0  0  0  0  0
    7.0293   10.3482   27.4808 H   0  0  0  0  0  0  0  0  0  0  0  0
    5.2692   12.0313   27.5086 H   0  0  0  0  0  0  0  0  0  0  0  0
    4.8653   11.7112   25.8213 H   0  0  0  0  0  0  0  0  0  0  0  0
   13.6356   13.0228   22.1841 H   0  0  0  0  0  0  0  0  0  0  0  0
   12.6014   12.4003   20.8761 H   0  0  0  0  0  0  0  0  0  0  0  0
   13.2845   14.0166   20.7500 H   0  0  0  0  0  0  0  0  0  0  0  0
   10.8785   14.1275   21.4104 H   0  0  0  0  0  0  0  0  0  0  0  0
   11.9106   14.7507   22.7237 H   0  0  0  0  0  0  0  0  0  0  0  0
   10.4556    9.5944   22.4633 H   0  0  0  0  0  0  0  0  0  0  0  0
    9.7104    8.3199   23.3904 H   0  0  0  0  0  0  0  0  0  0  0  0
  1  2  1  0  0  0  0
  1  3  2  0  0  0  0
  2  5  2  0  0  0  0
  2  6  1  0  0  0  0
  3  4  1  0  0  0  0
  3  7  1  0  0  0  0
  4  8  1  0  0  0  0
  4 12  2  0  0  0  0
  5 12  1  0  0  0  0
  5 13  1  0  0  0  0
  6 14  2  0  0  0  0
  6 15  1  0  0  0  0
  7  9  1  0  0  0  0
  8  9  1  0  0  0  0
 10 11  1  0  0  0  0
 11 15  1  0  0  0  0
  1 16  1  0  0  0  0
  7 17  1  0  0  0  0
  7 18  1  0  0  0  0
  8 19  1  0  0  0  0
  8 20  1  0  0  0  0
  9 21  1  0  0  0  0
  9 22  1  0  0  0  0
 10 23  1  0  0  0  0
 10 24  1  0  0  0  0
 10 25  1  0  0  0  0
 11 26  1  0  0  0  0
 11 27  1  0  0  0  0
 13 28  1  0  0  0  0
 13 29  1  0  0  0  0
M  END
> <id>
EN300-86436

> <smiles>
CCOC(=O)C=1C=C2CCCC2=NC1N

> <MDLNUMBER>
MFCD01822273

> <IUPAC Name>
ethyl 2-amino-5H,6H,7H-cyclopenta[b]pyridine-3-carboxylate

> <CAS>
68708-34-9

> <URL>
https://www.enaminestore.com/catalog/EN300-86436

> <ROCS_ShapeQuery>
_x1140_x0812_0A_x1140_0A_x1097_0A_x0365_0A_x1097_0A_x0310_0A

> <ROCS_TanimotoCombo>
0.608 

> <ROCS_ShapeTanimoto>
0.270 

> <ROCS_ColorTanimoto>
0.338 

> <ROCS_RefTversky>
0.237 

> <ROCS_RefColorTversky>
0.448 

> <ROCS_RefTverskyCombo>
0.685 

> <ROCS_FitTversky>
2.065 

> <ROCS_FitColorTversky>
0.578 

> <ROCS_FitTverskyCombo>
2.644 

> <ROCS_ColorScore>
-3.543

> <ROCS_Overlap>
2430.737

> <ROCS_Rank>
453                 

$$$$
untitled-dbase-339060_6
  -OEChem-02092423213D

 25 25  0     1  0  0  0  0  0999 V2000
   11.1309    8.9790   22.4675 C   0  0  0  0  0  0  0  0  0  0  0  0
   11.3380   10.2812   22.6741 C   0  0  0  0  0  0  0  0  0  0  0  0
   10.2160   11.2213   22.4799 C   0  0  0  0  0  0  0  0  0  0  0  0
    7.0091   11.7034   24.1453 C   0  0  0  0  0  0  0  0  0  0  0  0
    8.2445   12.4058   23.5900 C   0  0  0  0  0  0  0  0  0  0  0  0
    9.7350   10.9069   24.8808 C   0  0  0  0  0  0  0  0  0  0  0  0
    7.3008   11.0964   25.5173 C   0  0  2  0  0  0  0  0  0  0  0  0
    8.5284   10.1809   25.4766 C   0  0  1  0  0  0  0  0  0  0  0  0
    9.4026   11.4987   23.5764 N   0  0  0  0  0  0  0  0  0  0  0  0
   10.0700   11.7079   21.3571 O   0  0  0  0  0  0  0  0  0  0  0  0
    6.1576   10.3737   25.9585 O   0  0  0  0  0  0  0  0  0  0  0  0
    8.2645    9.0295   24.6744 O   0  0  0  0  0  0  0  0  0  0  0  0
   11.9154    8.2403   22.5938 H   0  0  0  0  0  0  0  0  0  0  0  0
   10.1517    8.6253   22.1623 H   0  0  0  0  0  0  0  0  0  0  0  0
   12.2998   10.6720   22.9792 H   0  0  0  0  0  0  0  0  0  0  0  0
    6.1780   12.4144   24.2273 H   0  0  0  0  0  0  0  0  0  0  0  0
    6.6687   10.9270   23.4484 H   0  0  0  0  0  0  0  0  0  0  0  0
    8.0256   12.8242   22.6078 H   0  0  0  0  0  0  0  0  0  0  0  0
    8.5150   13.2521   24.2337 H   0  0  0  0  0  0  0  0  0  0  0  0
   10.0564   11.7245   25.5363 H   0  0  0  0  0  0  0  0  0  0  0  0
   10.5723   10.2094   24.7750 H   0  0  0  0  0  0  0  0  0  0  0  0
    7.4758   11.9076   26.2348 H   0  0  0  0  0  0  0  0  0  0  0  0
    8.7653    9.8191   26.4833 H   0  0  0  0  0  0  0  0  0  0  0  0
    5.4270   11.0106   26.0077 H   0  0  0  0  0  0  0  0  0  0  0  0
    9.0636    8.4827   24.7097 H   0  0  0  0  0  0  0  0  0  0  0  0
  1  2  2  0  0  0  0
  2  3  1  0  0  0  0
  3  9  1  0  0  0  0
  3 10  2  0  0  0  0
  4  5  1  0  0  0  0
  4  7  1  0  0  0  0
  5  9  1  0  0  0  0
  6  8  1  0  0  0  0
  6  9  1  0  0  0  0
  7  8  1  0  0  0  0
  7 11  1  6  0  0  0
  8 12  1  6  0  0  0
  1 13  1  0  0  0  0
  1 14  1  0  0  0  0
  2 15  1  0  0  0  0
  4 16  1  0  0  0  0
  4 17  1  0  0  0  0
  5 18  1  0  0  0  0
  5 19  1  0  0  0  0
  6 20  1  0  0  0  0
  6 21  1  0  0  0  0
  7 22  1  0  0  0  0
  8 23  1  0  0  0  0
 11 24  1  0  0  0  0
 12 25  1  0  0  0  0
M  END
> <id>
EN300-26574093

> <smiles>
O[C@@H]1CCN(C[C@@H]1O)C(=O)C=C |&1:1,6,r|

> <IUPAC Name>
rac-1-[(3R,4S)-3,4-dihydroxypiperidin-1-yl]prop-2-en-1-one

> <CAS>
2305415-34-1

> <URL>
https://www.enaminestore.com/catalog/EN300-26574093

> <ROCS_ShapeQuery>
_x1140_x0812_0A_x1140_0A_x1097_0A_x0365_0A_x1097_0A_x0310_0A

> <ROCS_TanimotoCombo>
0.608 

> <ROCS_ShapeTanimoto>
0.198 

> <ROCS_ColorTanimoto>
0.410 

> <ROCS_RefTversky>
0.182 

> <ROCS_RefColorTversky>
0.549 

> <ROCS_RefTverskyCombo>
0.730 

> <ROCS_FitTversky>
1.824 

> <ROCS_FitColorTversky>
0.619 

> <ROCS_FitTverskyCombo>
2.443 

> <ROCS_ColorScore>
-4.363

> <ROCS_Overlap>
1860.512

> <ROCS_Rank>
454                 

$$$$
untitled-dbase-477298_5
  -OEChem-02092423213D

 29 30  0     0  0  0  0  0  0999 V2000
    8.4356   12.4955   24.3035 C   0  0  0  0  0  0  0  0  0  0  0  0
    8.8330   10.2824   23.5606 C   0  0  0  0  0  0  0  0  0  0  0  0
    9.1092   11.6311   23.4531 C   0  0  0  0  0  0  0  0  0  0  0  0
    7.5201   11.9907   25.2320 C   0  0  0  0  0  0  0  0  0  0  0  0
    7.2835   10.6073   25.2627 C   0  0  0  0  0  0  0  0  0  0  0  0
   10.0714   12.1269   22.4853 C   0  0  0  0  0  0  0  0  0  0  0  0
    6.7735   12.9287   26.1444 C   0  0  0  0  0  0  0  0  0  0  0  0
    6.2140   12.1918   27.3607 C   0  0  0  0  0  0  0  0  0  0  0  0
    5.4804   10.9318   26.9187 C   0  0  0  0  0  0  0  0  0  0  0  0
   13.0197   13.2716   22.3674 C   0  0  0  0  0  0  0  0  0  0  0  0
   11.6594   13.8568   22.0532 C   0  0  0  0  0  0  0  0  0  0  0  0
    7.9461    9.7576   24.4366 N   0  0  0  0  0  0  0  0  0  0  0  0
    6.3702   10.0734   26.1635 N   0  0  0  0  0  0  0  0  0  0  0  0
   10.3116   11.5893   21.3946 O   0  0  0  0  0  0  0  0  0  0  0  0
   10.6865   13.2688   22.9234 O   0  0  0  0  0  0  0  0  0  0  0  0
    8.6200   13.5662   24.2516 H   0  0  0  0  0  0  0  0  0  0  0  0
    9.3276    9.5525   22.9266 H   0  0  0  0  0  0  0  0  0  0  0  0
    7.4357   13.7321   26.4875 H   0  0  0  0  0  0  0  0  0  0  0  0
    5.9534   13.3862   25.5779 H   0  0  0  0  0  0  0  0  0  0  0  0
    7.0284   11.9234   28.0465 H   0  0  0  0  0  0  0  0  0  0  0  0
    5.5348   12.8502   27.9138 H   0  0  0  0  0  0  0  0  0  0  0  0
    5.1076   10.3879   27.7931 H   0  0  0  0  0  0  0  0  0  0  0  0
    4.6130   11.1928   26.3009 H   0  0  0  0  0  0  0  0  0  0  0  0
   13.3051   13.4812   23.4020 H   0  0  0  0  0  0  0  0  0  0  0  0
   13.0185   12.1875   22.2136 H   0  0  0  0  0  0  0  0  0  0  0  0
   13.7819   13.6869   21.6997 H   0  0  0  0  0  0  0  0  0  0  0  0
   11.3800   13.6437   21.0170 H   0  0  0  0  0  0  0  0  0  0  0  0
   11.6622   14.9399   22.2081 H   0  0  0  0  0  0  0  0  0  0  0  0
    6.2128    9.0732   26.1488 H   0  0  0  0  0  0  0  0  0  0  0  0
  1  3  2  0  0  0  0
  1  4  1  0  0  0  0
  2  3  1  0  0  0  0
  2 12  2  0  0  0  0
  3  6  1  0  0  0  0
  4  5  2  0  0  0  0
  4  7  1  0  0  0  0
  5 12  1  0  0  0  0
  5 13  1  0  0  0  0
  6 14  2  0  0  0  0
  6 15  1  0  0  0  0
  7  8  1  0  0  0  0
  8  9  1  0  0  0  0
  9 13  1  0  0  0  0
 10 11  1  0  0  0  0
 11 15  1  0  0  0  0
  1 16  1  0  0  0  0
  2 17  1  0  0  0  0
  7 18  1  0  0  0  0
  7 19  1  0  0  0  0
  8 20  1  0  0  0  0
  8 21  1  0  0  0  0
  9 22  1  0  0  0  0
  9 23  1  0  0  0  0
 10 24  1  0  0  0  0
 10 25  1  0  0  0  0
 10 26  1  0  0  0  0
 11 27  1  0  0  0  0
 11 28  1  0  0  0  0
 13 29  1  0  0  0  0
M  END
> <id>
EN300-6213734

> <smiles>
CCOC(=O)C=1C=NC=2NCCCC2C1

> <MDLNUMBER>
MFCD22372811

> <IUPAC Name>
ethyl 5,6,7,8-tetrahydro-1,8-naphthyridine-3-carboxylate

> <CAS>
1417794-43-4

> <URL>
https://www.enaminestore.com/catalog/EN300-6213734

> <ROCS_ShapeQuery>
_x1140_x0812_0A_x1140_0A_x1097_0A_x0365_0A_x1097_0A_x0310_0A

> <ROCS_TanimotoCombo>
0.608 

> <ROCS_ShapeTanimoto>
0.253 

> <ROCS_ColorTanimoto>
0.355 

> <ROCS_RefTversky>
0.225 

> <ROCS_RefColorTversky>
0.434 

> <ROCS_RefTverskyCombo>
0.659 

> <ROCS_FitTversky>
1.965 

> <ROCS_FitColorTversky>
0.661 

> <ROCS_FitTverskyCombo>
2.627 

> <ROCS_ColorScore>
-3.410

> <ROCS_Overlap>
2303.963

> <ROCS_Rank>
455                 

$$$$
untitled-dbase-555417_1
  -OEChem-02092423213D

 21 21  0     0  0  0  0  0  0999 V2000
    8.4503   12.5147   24.2130 C   0  0  0  0  0  0  0  0  0  0  0  0
    7.5552   12.0848   25.1863 C   0  0  0  0  0  0  0  0  0  0  0  0
    9.2291   11.5848   23.5333 C   0  0  0  0  0  0  0  0  0  0  0  0
    7.4772   10.7249   25.4404 C   0  0  0  0  0  0  0  0  0  0  0  0
    9.0763   10.2473   23.8615 C   0  0  0  0  0  0  0  0  0  0  0  0
   10.1674   12.0272   22.5136 C   0  0  0  0  0  0  0  0  0  0  0  0
    6.5268   10.2285   26.4783 C   0  0  0  0  0  0  0  0  0  0  0  0
   12.0849   13.3904   22.1186 C   0  0  0  0  0  0  0  0  0  0  0  0
    8.2173    9.7918   24.8008 N   0  0  0  0  0  0  0  0  0  0  0  0
   10.1280   11.6769   21.3268 O   0  0  0  0  0  0  0  0  0  0  0  0
    9.8256    9.2985   23.2152 O   0  0  0  0  0  0  0  0  0  0  0  0
   11.1027   12.8829   23.0282 O   0  0  0  0  0  0  0  0  0  0  0  0
    8.5321   13.5758   23.9929 H   0  0  0  0  0  0  0  0  0  0  0  0
    6.9414   12.8001   25.7232 H   0  0  0  0  0  0  0  0  0  0  0  0
    5.5510   10.0101   26.0283 H   0  0  0  0  0  0  0  0  0  0  0  0
    6.9023    9.3150   26.9568 H   0  0  0  0  0  0  0  0  0  0  0  0
    6.3854   10.9700   27.2750 H   0  0  0  0  0  0  0  0  0  0  0  0
   12.7668   14.0570   22.6522 H   0  0  0  0  0  0  0  0  0  0  0  0
   11.5882   13.9316   21.3093 H   0  0  0  0  0  0  0  0  0  0  0  0
   12.6495   12.5531   21.7016 H   0  0  0  0  0  0  0  0  0  0  0  0
    9.6041    8.4205   23.5549 H   0  0  0  0  0  0  0  0  0  0  0  0
  1  2  2  0  0  0  0
  1  3  1  0  0  0  0
  2  4  1  0  0  0  0
  3  5  2  0  0  0  0
  3  6  1  0  0  0  0
  4  7  1  0  0  0  0
  4  9  2  0  0  0  0
  5  9  1  0  0  0  0
  5 11  1  0  0  0  0
  6 10  2  0  0  0  0
  6 12  1  0  0  0  0
  8 12  1  0  0  0  0
  1 13  1  0  0  0  0
  2 14  1  0  0  0  0
  7 15  1  0  0  0  0
  7 16  1  0  0  0  0
  7 17  1  0  0  0  0
  8 18  1  0  0  0  0
  8 19  1  0  0  0  0
  8 20  1  0  0  0  0
 11 21  1  0  0  0  0
M  END
> <id>
EN300-140219

> <smiles>
COC(=O)C=1C=CC(C)=NC1O

> <MDLNUMBER>
MFCD09953605

> <IUPAC Name>
methyl 2-hydroxy-6-methylpyridine-3-carboxylate

> <CAS>
51146-06-6

> <Purity>
95

> <URL>
https://www.enaminestore.com/catalog/EN300-140219

> <ROCS_ShapeQuery>
_x1140_x0812_0A_x1140_0A_x1097_0A_x0365_0A_x1097_0A_x0310_0A

> <ROCS_TanimotoCombo>
0.608 

> <ROCS_ShapeTanimoto>
0.234 

> <ROCS_ColorTanimoto>
0.374 

> <ROCS_RefTversky>
0.209 

> <ROCS_RefColorTversky>
0.451 

> <ROCS_RefTverskyCombo>
0.660 

> <ROCS_FitTversky>
2.051 

> <ROCS_FitColorTversky>
0.687 

> <ROCS_FitTverskyCombo>
2.738 

> <ROCS_ColorScore>
-3.544

> <ROCS_Overlap>
2137.199

> <ROCS_Rank>
456                 

$$$$
untitled-dbase-311940_1
  -OEChem-02092423213D

 21 21  0     0  0  0  0  0  0999 V2000
    8.4503   12.5147   24.2130 C   0  0  0  0  0  0  0  0  0  0  0  0
    7.5552   12.0848   25.1863 C   0  0  0  0  0  0  0  0  0  0  0  0
    9.2291   11.5848   23.5333 C   0  0  0  0  0  0  0  0  0  0  0  0
    7.4772   10.7249   25.4404 C   0  0  0  0  0  0  0  0  0  0  0  0
    9.0763   10.2473   23.8615 C   0  0  0  0  0  0  0  0  0  0  0  0
   10.1674   12.0272   22.5136 C   0  0  0  0  0  0  0  0  0  0  0  0
    6.5268   10.2285   26.4783 C   0  0  0  0  0  0  0  0  0  0  0  0
   12.0849   13.3904   22.1186 C   0  0  0  0  0  0  0  0  0  0  0  0
    8.2173    9.7918   24.8008 N   0  0  0  0  0  0  0  0  0  0  0  0
   10.1280   11.6769   21.3268 O   0  0  0  0  0  0  0  0  0  0  0  0
    9.8256    9.2985   23.2152 O   0  0  0  0  0  0  0  0  0  0  0  0
   11.1027   12.8829   23.0282 O   0  0  0  0  0  0  0  0  0  0  0  0
    8.5321   13.5758   23.9929 H   0  0  0  0  0  0  0  0  0  0  0  0
    6.9414   12.8001   25.7232 H   0  0  0  0  0  0  0  0  0  0  0  0
    5.5510   10.0101   26.0283 H   0  0  0  0  0  0  0  0  0  0  0  0
    6.9023    9.3150   26.9568 H   0  0  0  0  0  0  0  0  0  0  0  0
    6.3854   10.9700   27.2750 H   0  0  0  0  0  0  0  0  0  0  0  0
   12.7668   14.0570   22.6522 H   0  0  0  0  0  0  0  0  0  0  0  0
   11.5882   13.9316   21.3093 H   0  0  0  0  0  0  0  0  0  0  0  0
   12.6495   12.5531   21.7016 H   0  0  0  0  0  0  0  0  0  0  0  0
    9.6041    8.4205   23.5549 H   0  0  0  0  0  0  0  0  0  0  0  0
  1  2  2  0  0  0  0
  1  3  1  0  0  0  0
  2  4  1  0  0  0  0
  3  5  2  0  0  0  0
  3  6  1  0  0  0  0
  4  7  1  0  0  0  0
  4  9  2  0  0  0  0
  5  9  1  0  0  0  0
  5 11  1  0  0  0  0
  6 10  2  0  0  0  0
  6 12  1  0  0  0  0
  8 12  1  0  0  0  0
  1 13  1  0  0  0  0
  2 14  1  0  0  0  0
  7 15  1  0  0  0  0
  7 16  1  0  0  0  0
  7 17  1  0  0  0  0
  8 18  1  0  0  0  0
  8 19  1  0  0  0  0
  8 20  1  0  0  0  0
 11 21  1  0  0  0  0
M  END
> <id>
EN300-1700547

> <smiles>
Cl.COC(=O)C=1C=CC(C)=NC1O

> <MDLNUMBER>
MFCD31666192

> <IUPAC Name>
methyl 2-hydroxy-6-methylpyridine-3-carboxylate hydrochloride

> <CAS>
2193064-81-0

> <Purity>
95

> <URL>
https://www.enaminestore.com/catalog/EN300-1700547

> <Saltdate>
Cl

> <ROCS_ShapeQuery>
_x1140_x0812_0A_x1140_0A_x1097_0A_x0365_0A_x1097_0A_x0310_0A

> <ROCS_TanimotoCombo>
0.608 

> <ROCS_ShapeTanimoto>
0.234 

> <ROCS_ColorTanimoto>
0.374 

> <ROCS_RefTversky>
0.209 

> <ROCS_RefColorTversky>
0.451 

> <ROCS_RefTverskyCombo>
0.660 

> <ROCS_FitTversky>
2.051 

> <ROCS_FitColorTversky>
0.687 

> <ROCS_FitTverskyCombo>
2.738 

> <ROCS_ColorScore>
-3.544

> <ROCS_Overlap>
2137.199

> <ROCS_Rank>
457                 

$$$$
untitled-dbase-23728_1
  -OEChem-02092423213D

 18 18  0     0  0  0  0  0  0999 V2000
    8.5622   12.5717   24.2827 C   0  0  0  0  0  0  0  0  0  0  0  0
    7.5576   12.0431   25.0857 C   0  0  0  0  0  0  0  0  0  0  0  0
    9.1303   10.3577   23.6256 C   0  0  0  0  0  0  0  0  0  0  0  0
    9.3679   11.7197   23.5356 C   0  0  0  0  0  0  0  0  0  0  0  0
    7.4009   10.6665   25.1061 C   0  0  0  0  0  0  0  0  0  0  0  0
   11.0986   13.4368   23.0046 C   0  0  0  0  0  0  0  0  0  0  0  0
    8.1641    9.8071   24.3943 N   0  0  0  0  0  0  0  0  0  0  0  0
    6.3737   10.1434   25.9306 N   0  0  0  0  0  0  0  0  0  0  0  0
   10.3911   12.2239   22.7163 N   0  0  0  0  0  0  0  0  0  0  0  0
    8.7086   13.6479   24.2460 H   0  0  0  0  0  0  0  0  0  0  0  0
    6.9246   12.7005   25.6724 H   0  0  0  0  0  0  0  0  0  0  0  0
    9.7263    9.6427   23.0662 H   0  0  0  0  0  0  0  0  0  0  0  0
   10.7126   13.8743   23.9372 H   0  0  0  0  0  0  0  0  0  0  0  0
   12.1705   13.2177   23.1187 H   0  0  0  0  0  0  0  0  0  0  0  0
   10.9559   14.1495   22.1789 H   0  0  0  0  0  0  0  0  0  0  0  0
    5.8417   10.7711   26.4930 H   0  0  0  0  0  0  0  0  0  0  0  0
    6.2699    9.1546   26.0003 H   0  0  0  0  0  0  0  0  0  0  0  0
   10.6236   11.6964   21.8928 H   0  0  0  0  0  0  0  0  0  0  0  0
  1  2  2  0  0  0  0
  1  4  1  0  0  0  0
  2  5  1  0  0  0  0
  3  4  2  0  0  0  0
  3  7  1  0  0  0  0
  4  9  1  0  0  0  0
  5  7  2  0  0  0  0
  5  8  1  0  0  0  0
  6  9  1  0  0  0  0
  1 10  1  0  0  0  0
  2 11  1  0  0  0  0
  3 12  1  0  0  0  0
  6 13  1  0  0  0  0
  6 14  1  0  0  0  0
  6 15  1  0  0  0  0
  8 16  1  0  0  0  0
  8 17  1  0  0  0  0
  9 18  1  0  0  0  0
M  END
> <id>
EN300-91749

> <smiles>
Cl.Cl.CNC=1C=CC(N)=NC1

> <MDLNUMBER>
MFCD20501961

> <IUPAC Name>
N5-methylpyridine-2,5-diamine dihydrochloride

> <CAS>
1354961-28-6

> <Purity>
95

> <URL>
https://www.enaminestore.com/catalog/EN300-91749

> <Saltdate>
Cl

> <ROCS_ShapeQuery>
_x1140_x0812_0A_x1140_0A_x1097_0A_x0365_0A_x1097_0A_x0310_0A

> <ROCS_TanimotoCombo>
0.608 

> <ROCS_ShapeTanimoto>
0.196 

> <ROCS_ColorTanimoto>
0.412 

> <ROCS_RefTversky>
0.178 

> <ROCS_RefColorTversky>
0.483 

> <ROCS_RefTverskyCombo>
0.662 

> <ROCS_FitTversky>
2.016 

> <ROCS_FitColorTversky>
0.736 

> <ROCS_FitTverskyCombo>
2.752 

> <ROCS_ColorScore>
-3.794

> <ROCS_Overlap>
1826.682

> <ROCS_Rank>
458                 

$$$$
untitled-dbase-31822_1
  -OEChem-02092423213D

 18 18  0     0  0  0  0  0  0999 V2000
    8.5622   12.5717   24.2827 C   0  0  0  0  0  0  0  0  0  0  0  0
    7.5576   12.0431   25.0857 C   0  0  0  0  0  0  0  0  0  0  0  0
    9.1303   10.3577   23.6256 C   0  0  0  0  0  0  0  0  0  0  0  0
    9.3679   11.7197   23.5356 C   0  0  0  0  0  0  0  0  0  0  0  0
    7.4009   10.6665   25.1061 C   0  0  0  0  0  0  0  0  0  0  0  0
   11.0986   13.4368   23.0046 C   0  0  0  0  0  0  0  0  0  0  0  0
    8.1641    9.8071   24.3943 N   0  0  0  0  0  0  0  0  0  0  0  0
    6.3737   10.1434   25.9306 N   0  0  0  0  0  0  0  0  0  0  0  0
   10.3911   12.2239   22.7163 N   0  0  0  0  0  0  0  0  0  0  0  0
    8.7086   13.6479   24.2460 H   0  0  0  0  0  0  0  0  0  0  0  0
    6.9246   12.7005   25.6724 H   0  0  0  0  0  0  0  0  0  0  0  0
    9.7263    9.6427   23.0662 H   0  0  0  0  0  0  0  0  0  0  0  0
   10.7126   13.8743   23.9372 H   0  0  0  0  0  0  0  0  0  0  0  0
   12.1705   13.2177   23.1187 H   0  0  0  0  0  0  0  0  0  0  0  0
   10.9559   14.1495   22.1789 H   0  0  0  0  0  0  0  0  0  0  0  0
    5.8417   10.7711   26.4930 H   0  0  0  0  0  0  0  0  0  0  0  0
    6.2699    9.1546   26.0003 H   0  0  0  0  0  0  0  0  0  0  0  0
   10.6236   11.6964   21.8928 H   0  0  0  0  0  0  0  0  0  0  0  0
  1  2  2  0  0  0  0
  1  4  1  0  0  0  0
  2  5  1  0  0  0  0
  3  4  2  0  0  0  0
  3  7  1  0  0  0  0
  4  9  1  0  0  0  0
  5  7  2  0  0  0  0
  5  8  1  0  0  0  0
  6  9  1  0  0  0  0
  1 10  1  0  0  0  0
  2 11  1  0  0  0  0
  3 12  1  0  0  0  0
  6 13  1  0  0  0  0
  6 14  1  0  0  0  0
  6 15  1  0  0  0  0
  8 16  1  0  0  0  0
  8 17  1  0  0  0  0
  9 18  1  0  0  0  0
M  END
> <id>
EN300-147172

> <smiles>
CNC=1C=CC(N)=NC1

> <MDLNUMBER>
MFCD11186944

> <IUPAC Name>
N5-methylpyridine-2,5-diamine

> <CAS>
856169-89-6

> <URL>
https://www.enaminestore.com/catalog/EN300-147172

> <ROCS_ShapeQuery>
_x1140_x0812_0A_x1140_0A_x1097_0A_x0365_0A_x1097_0A_x0310_0A

> <ROCS_TanimotoCombo>
0.608 

> <ROCS_ShapeTanimoto>
0.196 

> <ROCS_ColorTanimoto>
0.412 

> <ROCS_RefTversky>
0.178 

> <ROCS_RefColorTversky>
0.483 

> <ROCS_RefTverskyCombo>
0.662 

> <ROCS_FitTversky>
2.016 

> <ROCS_FitColorTversky>
0.736 

> <ROCS_FitTverskyCombo>
2.752 

> <ROCS_ColorScore>
-3.794

> <ROCS_Overlap>
1826.682

> <ROCS_Rank>
459                 

$$$$
untitled-dbase-93725_3
  -OEChem-02092423213D

 32 33  0     0  0  0  0  0  0999 V2000
    6.2359   10.7369   27.2036 C   0  0  0  0  0  0  0  0  0  0  0  0
    6.7462   12.0065   27.4866 C   0  0  0  0  0  0  0  0  0  0  0  0
    6.6942    9.9989   26.1082 C   0  0  0  0  0  0  0  0  0  0  0  0
    9.1708   12.0810   24.5497 C   0  0  0  0  0  0  0  0  0  0  0  0
    8.2120   11.8595   25.5732 C   0  0  0  0  0  0  0  0  0  0  0  0
    7.7366   12.5839   26.6803 C   0  0  0  0  0  0  0  0  0  0  0  0
    7.6786   10.5988   25.3251 C   0  0  0  0  0  0  0  0  0  0  0  0
    9.1584   10.9569   23.7567 C   0  0  0  0  0  0  0  0  0  0  0  0
    9.9260   10.6089   22.5616 C   0  0  0  0  0  0  0  0  0  0  0  0
    8.2449   13.9451   27.0315 C   0  0  0  0  0  0  0  0  0  0  0  0
   10.8253    8.5795   23.8954 C   0  0  0  0  0  0  0  0  0  0  0  0
   10.4196    8.4288   21.4150 C   0  0  0  0  0  0  0  0  0  0  0  0
   12.2846    9.8257   22.3208 C   0  0  0  0  0  0  0  0  0  0  0  0
   10.8357    9.3528   22.5675 C   0  0  0  0  0  0  0  0  0  0  0  0
    9.8575   11.3090   21.5484 O   0  0  0  0  0  0  0  0  0  0  0  0
    8.2567   10.0518   24.2188 O   0  0  0  0  0  0  0  0  0  0  0  0
    5.4685   10.3138   27.8469 H   0  0  0  0  0  0  0  0  0  0  0  0
    6.3629   12.5478   28.3490 H   0  0  0  0  0  0  0  0  0  0  0  0
    6.3039    9.0138   25.8820 H   0  0  0  0  0  0  0  0  0  0  0  0
    9.7929   12.9543   24.4101 H   0  0  0  0  0  0  0  0  0  0  0  0
    9.1012   13.8658   27.7105 H   0  0  0  0  0  0  0  0  0  0  0  0
    8.5578   14.4933   26.1349 H   0  0  0  0  0  0  0  0  0  0  0  0
    7.4658   14.5443   27.5178 H   0  0  0  0  0  0  0  0  0  0  0  0
   11.4760    7.7003   23.8672 H   0  0  0  0  0  0  0  0  0  0  0  0
   11.1829    9.2072   24.7201 H   0  0  0  0  0  0  0  0  0  0  0  0
    9.8148    8.2406   24.1507 H   0  0  0  0  0  0  0  0  0  0  0  0
   11.0351    7.5251   21.3776 H   0  0  0  0  0  0  0  0  0  0  0  0
   10.5169    8.9340   20.4474 H   0  0  0  0  0  0  0  0  0  0  0  0
    9.3776    8.1057   21.5213 H   0  0  0  0  0  0  0  0  0  0  0  0
   12.9784    8.9768   22.3140 H   0  0  0  0  0  0  0  0  0  0  0  0
   12.3775   10.3456   21.3605 H   0  0  0  0  0  0  0  0  0  0  0  0
   12.6224   10.5178   23.1009 H   0  0  0  0  0  0  0  0  0  0  0  0
  1  2  2  0  0  0  0
  1  3  1  0  0  0  0
  2  6  1  0  0  0  0
  3  7  2  0  0  0  0
  4  5  1  0  0  0  0
  4  8  2  0  0  0  0
  5  6  2  0  0  0  0
  5  7  1  0  0  0  0
  6 10  1  0  0  0  0
  7 16  1  0  0  0  0
  8  9  1  0  0  0  0
  8 16  1  0  0  0  0
  9 14  1  0  0  0  0
  9 15  2  0  0  0  0
 11 14  1  0  0  0  0
 12 14  1  0  0  0  0
 13 14  1  0  0  0  0
  1 17  1  0  0  0  0
  2 18  1  0  0  0  0
  3 19  1  0  0  0  0
  4 20  1  0  0  0  0
 10 21  1  0  0  0  0
 10 22  1  0  0  0  0
 10 23  1  0  0  0  0
 11 24  1  0  0  0  0
 11 25  1  0  0  0  0
 11 26  1  0  0  0  0
 12 27  1  0  0  0  0
 12 28  1  0  0  0  0
 12 29  1  0  0  0  0
 13 30  1  0  0  0  0
 13 31  1  0  0  0  0
 13 32  1  0  0  0  0
M  END
> <id>
EN300-744887

> <smiles>
CC=1C=CC=C2OC(=CC12)C(=O)C(C)(C)C

> <MDLNUMBER>
MFCD31455956

> <IUPAC Name>
2,2-dimethyl-1-(4-methyl-1-benzofuran-2-yl)propan-1-one

> <CAS>
2137766-04-0

> <URL>
https://www.enaminestore.com/catalog/EN300-744887

> <ROCS_ShapeQuery>
_x1140_x0812_0A_x1140_0A_x1097_0A_x0365_0A_x1097_0A_x0310_0A

> <ROCS_TanimotoCombo>
0.608 

> <ROCS_ShapeTanimoto>
0.220 

> <ROCS_ColorTanimoto>
0.388 

> <ROCS_RefTversky>
0.201 

> <ROCS_RefColorTversky>
0.464 

> <ROCS_RefTverskyCombo>
0.665 

> <ROCS_FitTversky>
1.693 

> <ROCS_FitColorTversky>
0.704 

> <ROCS_FitTverskyCombo>
2.397 

> <ROCS_ColorScore>
-3.640

> <ROCS_Overlap>
2066.254

> <ROCS_Rank>
460                 

$$$$
untitled-dbase-342220_1
  -OEChem-02092423213D

 24 24  0     0  0  0  0  0  0999 V2000
    9.2726   11.7344   23.7587 C   0  0  0  0  0  0  0  0  0  0  0  0
    8.3803   12.2161   24.6850 C   0  0  0  0  0  0  0  0  0  0  0  0
    9.1307   10.3355   23.8277 C   0  0  0  0  0  0  0  0  0  0  0  0
   11.0189   14.4858   20.9572 C   0  0  0  0  0  0  0  0  0  0  0  0
   11.4796   13.2422   21.1248 C   0  0  0  0  0  0  0  0  0  0  0  0
   10.5928   12.1707   21.6641 C   0  0  0  0  0  0  0  0  0  0  0  0
    6.7644   11.1054   26.2571 C   0  0  0  0  0  0  0  0  0  0  0  0
    8.0465   13.5942   25.0945 C   0  0  0  0  0  0  0  0  0  0  0  0
    8.2200    9.9533   24.7270 N   0  0  0  0  0  0  0  0  0  0  0  0
    7.7817   11.1192   25.2316 N   0  0  0  0  0  0  0  0  0  0  0  0
   10.1316   12.4993   22.9320 N   0  0  0  0  0  0  0  0  0  0  0  0
   10.3497   11.1605   21.0145 O   0  0  0  0  0  0  0  0  0  0  0  0
    9.7753    9.3913   23.1273 O   0  0  0  0  0  0  0  0  0  0  0  0
    8.7537   14.5655   24.4314 F   0  0  0  0  0  0  0  0  0  0  0  0
    6.7318   13.9358   24.8998 F   0  0  0  0  0  0  0  0  0  0  0  0
    8.2796   13.8347   26.4239 F   0  0  0  0  0  0  0  0  0  0  0  0
   11.6335   15.2898   20.5681 H   0  0  0  0  0  0  0  0  0  0  0  0
    9.9918   14.7229   21.2145 H   0  0  0  0  0  0  0  0  0  0  0  0
   12.5060   13.0043   20.8675 H   0  0  0  0  0  0  0  0  0  0  0  0
    5.7888   11.1404   25.7649 H   0  0  0  0  0  0  0  0  0  0  0  0
    6.8597   10.1930   26.8523 H   0  0  0  0  0  0  0  0  0  0  0  0
    6.8964   11.9736   26.9088 H   0  0  0  0  0  0  0  0  0  0  0  0
   10.4464   13.3907   23.3101 H   0  0  0  0  0  0  0  0  0  0  0  0
    9.4781    8.4947   23.3796 H   0  0  0  0  0  0  0  0  0  0  0  0
  1  2  2  0  0  0  0
  1  3  1  0  0  0  0
  1 11  1  0  0  0  0
  2  8  1  0  0  0  0
  2 10  1  0  0  0  0
  3  9  2  0  0  0  0
  3 13  1  0  0  0  0
  4  5  2  0  0  0  0
  5  6  1  0  0  0  0
  6 11  1  0  0  0  0
  6 12  2  0  0  0  0
  7 10  1  0  0  0  0
  8 14  1  0  0  0  0
  8 15  1  0  0  0  0
  8 16  1  0  0  0  0
  9 10  1  0  0  0  0
  4 17  1  0  0  0  0
  4 18  1  0  0  0  0
  5 19  1  0  0  0  0
  7 20  1  0  0  0  0
  7 21  1  0  0  0  0
  7 22  1  0  0  0  0
 11 23  1  0  0  0  0
 13 24  1  0  0  0  0
M  END
> <id>
EN300-26584533

> <smiles>
CN1N=C(O)C(NC(=O)C=C)=C1C(F)(F)F

> <IUPAC Name>
N-[3-hydroxy-1-methyl-5-(trifluoromethyl)-1H-pyrazol-4-yl]prop-2-enamide

> <CAS>
2305441-19-2

> <URL>
https://www.enaminestore.com/catalog/EN300-26584533

> <ROCS_ShapeQuery>
_x1140_x0812_0A_x1140_0A_x1097_0A_x0365_0A_x1097_0A_x0310_0A

> <ROCS_TanimotoCombo>
0.608 

> <ROCS_ShapeTanimoto>
0.246 

> <ROCS_ColorTanimoto>
0.361 

> <ROCS_RefTversky>
0.221 

> <ROCS_RefColorTversky>
0.501 

> <ROCS_RefTverskyCombo>
0.722 

> <ROCS_FitTversky>
1.849 

> <ROCS_FitColorTversky>
0.564 

> <ROCS_FitTverskyCombo>
2.413 

> <ROCS_ColorScore>
-3.985

> <ROCS_Overlap>
2269.649

> <ROCS_Rank>
461                 

$$$$
untitled-dbase-483665_6
  -OEChem-02092423213D

 36 36  0     1  0  0  0  0  0999 V2000
   10.1648   11.1835   22.6614 C   0  0  0  0  0  0  0  0  0  0  0  0
    8.4826   10.1244   25.6133 C   0  0  0  0  0  0  0  0  0  0  0  0
    7.0437   11.9780   24.6733 C   0  0  0  0  0  0  0  0  0  0  0  0
    9.5989   11.0153   25.0692 C   0  0  0  0  0  0  0  0  0  0  0  0
    7.0947   10.5100   25.0870 C   0  0  2  0  0  0  0  0  0  0  0  0
    8.0576   12.2681   23.5528 C   0  0  1  0  0  0  0  0  0  0  0  0
   11.5487    9.3650   20.9386 C   0  0  0  0  0  0  0  0  0  0  0  0
   12.6626    8.5240   23.0270 C   0  0  0  0  0  0  0  0  0  0  0  0
   10.1730    8.3175   22.7675 C   0  0  0  0  0  0  0  0  0  0  0  0
    8.3567   13.7657   23.4771 C   0  0  0  0  0  0  0  0  0  0  0  0
   11.4036    9.1644   22.4465 C   0  0  0  0  0  0  0  0  0  0  0  0
    9.2983   11.4828   23.7191 N   0  0  0  0  0  0  0  0  0  0  0  0
    9.9881   11.5368   21.4970 O   0  0  0  0  0  0  0  0  0  0  0  0
    6.1133   10.2711   26.0889 O   0  0  0  0  0  0  0  0  0  0  0  0
   11.2481   10.4471   23.0640 O   0  0  0  0  0  0  0  0  0  0  0  0
    7.2223   14.4494   23.2677 F   0  0  0  0  0  0  0  0  0  0  0  0
    8.9102   14.1808   24.6259 F   0  0  0  0  0  0  0  0  0  0  0  0
    9.2066   14.0125   22.4695 F   0  0  0  0  0  0  0  0  0  0  0  0
    8.6781    9.0807   25.3362 H   0  0  0  0  0  0  0  0  0  0  0  0
    8.5054   10.1493   26.7100 H   0  0  0  0  0  0  0  0  0  0  0  0
    6.0324   12.2401   24.3387 H   0  0  0  0  0  0  0  0  0  0  0  0
    7.2329   12.6090   25.5523 H   0  0  0  0  0  0  0  0  0  0  0  0
    9.7115   11.9061   25.6991 H   0  0  0  0  0  0  0  0  0  0  0  0
   10.5534   10.4803   25.1023 H   0  0  0  0  0  0  0  0  0  0  0  0
    6.8425    9.8820   24.2237 H   0  0  0  0  0  0  0  0  0  0  0  0
    7.6073   11.9622   22.6004 H   0  0  0  0  0  0  0  0  0  0  0  0
   10.6470    9.8245   20.5181 H   0  0  0  0  0  0  0  0  0  0  0  0
   12.4075    9.9997   20.6970 H   0  0  0  0  0  0  0  0  0  0  0  0
   11.6735    8.4041   20.4265 H   0  0  0  0  0  0  0  0  0  0  0  0
   12.5629    8.3781   24.1086 H   0  0  0  0  0  0  0  0  0  0  0  0
   13.5333    9.1736   22.8820 H   0  0  0  0  0  0  0  0  0  0  0  0
   12.8727    7.5542   22.5643 H   0  0  0  0  0  0  0  0  0  0  0  0
   10.0687    8.1734   23.8490 H   0  0  0  0  0  0  0  0  0  0  0  0
    9.2553    8.7804   22.3904 H   0  0  0  0  0  0  0  0  0  0  0  0
   10.2636    7.3168   22.3296 H   0  0  0  0  0  0  0  0  0  0  0  0
    6.1501    9.3234   26.2947 H   0  0  0  0  0  0  0  0  0  0  0  0
  1 12  1  0  0  0  0
  1 13  2  0  0  0  0
  1 15  1  0  0  0  0
  2  4  1  0  0  0  0
  2  5  1  0  0  0  0
  3  5  1  0  0  0  0
  3  6  1  0  0  0  0
  4 12  1  0  0  0  0
  5 14  1  1  0  0  0
  6 10  1  1  0  0  0
  6 12  1  0  0  0  0
  7 11  1  0  0  0  0
  8 11  1  0  0  0  0
  9 11  1  0  0  0  0
 10 16  1  0  0  0  0
 10 17  1  0  0  0  0
 10 18  1  0  0  0  0
 11 15  1  0  0  0  0
  2 19  1  0  0  0  0
  2 20  1  0  0  0  0
  3 21  1  0  0  0  0
  3 22  1  0  0  0  0
  4 23  1  0  0  0  0
  4 24  1  0  0  0  0
  5 25  1  0  0  0  0
  6 26  1  0  0  0  0
  7 27  1  0  0  0  0
  7 28  1  0  0  0  0
  7 29  1  0  0  0  0
  8 30  1  0  0  0  0
  8 31  1  0  0  0  0
  8 32  1  0  0  0  0
  9 33  1  0  0  0  0
  9 34  1  0  0  0  0
  9 35  1  0  0  0  0
 14 36  1  0  0  0  0
M  END
> <id>
EN300-27738692

> <smiles>
CC(C)(C)OC(=O)N1CC[C@@H](O)C[C@H]1C(F)(F)F |&1:10,13,r|

> <MDLNUMBER>
MFCD31928074

> <IUPAC Name>
rac-tert-butyl (2R,4S)-4-hydroxy-2-(trifluoromethyl)piperidine-1-carboxylate

> <CAS>
1445804-81-8

> <Purity>
95

> <URL>
https://www.enaminestore.com/catalog/EN300-27738692

> <ROCS_ShapeQuery>
_x1140_x0812_0A_x1140_0A_x1097_0A_x0365_0A_x1097_0A_x0310_0A

> <ROCS_TanimotoCombo>
0.608 

> <ROCS_ShapeTanimoto>
0.225 

> <ROCS_ColorTanimoto>
0.382 

> <ROCS_RefTversky>
0.207 

> <ROCS_RefColorTversky>
0.458 

> <ROCS_RefTverskyCombo>
0.665 

> <ROCS_FitTversky>
1.644 

> <ROCS_FitColorTversky>
0.698 

> <ROCS_FitTverskyCombo>
2.342 

> <ROCS_ColorScore>
-3.596

> <ROCS_Overlap>
2123.117

> <ROCS_Rank>
462                 

$$$$
untitled-dbase-118591_1
  -OEChem-02092423213D

 24 26  0     0  0  0  0  0  0999 V2000
    8.4770   12.5248   24.1507 C   0  0  0  0  0  0  0  0  0  0  0  0
    6.5055   12.4793   25.8703 C   0  0  0  0  0  0  0  0  0  0  0  0
    9.0981   10.2827   23.5863 C   0  0  0  0  0  0  0  0  0  0  0  0
    7.5020   11.9707   24.9958 C   0  0  0  0  0  0  0  0  0  0  0  0
    9.2897   11.6493   23.4329 C   0  0  0  0  0  0  0  0  0  0  0  0
    5.8525   11.4018   26.4291 C   0  0  0  0  0  0  0  0  0  0  0  0
    7.4191   10.5826   25.0542 C   0  0  0  0  0  0  0  0  0  0  0  0
    4.8966   12.2330   28.7241 C   0  0  0  0  0  0  0  0  0  0  0  0
    4.8440   10.7375   28.7562 C   0  0  0  0  0  0  0  0  0  0  0  0
    4.7032   11.4631   27.4321 C   0  0  0  0  0  0  0  0  0  0  0  0
    8.1771    9.6940   24.3842 N   0  0  0  0  0  0  0  0  0  0  0  0
    6.4150   10.2568   25.9274 N   0  0  0  0  0  0  0  0  0  0  0  0
   10.2847   12.1427   22.5697 N   0  0  0  0  0  0  0  0  0  0  0  0
    8.5911   13.6010   24.0619 H   0  0  0  0  0  0  0  0  0  0  0  0
    6.2891   13.5204   26.0694 H   0  0  0  0  0  0  0  0  0  0  0  0
    9.7183    9.5770   23.0381 H   0  0  0  0  0  0  0  0  0  0  0  0
    4.0485   12.7773   29.1215 H   0  0  0  0  0  0  0  0  0  0  0  0
    5.8541   12.7068   28.9039 H   0  0  0  0  0  0  0  0  0  0  0  0
    5.7659   10.2047   28.9561 H   0  0  0  0  0  0  0  0  0  0  0  0
    3.9602   10.2715   29.1750 H   0  0  0  0  0  0  0  0  0  0  0  0
    3.7057   11.4892   26.9972 H   0  0  0  0  0  0  0  0  0  0  0  0
    6.1335    9.3154   26.1639 H   0  0  0  0  0  0  0  0  0  0  0  0
   10.3748   13.1316   22.4377 H   0  0  0  0  0  0  0  0  0  0  0  0
   10.8274   11.4991   22.0266 H   0  0  0  0  0  0  0  0  0  0  0  0
  1  4  1  0  0  0  0
  1  5  2  0  0  0  0
  2  4  1  0  0  0  0
  2  6  2  0  0  0  0
  3  5  1  0  0  0  0
  3 11  2  0  0  0  0
  4  7  2  0  0  0  0
  5 13  1  0  0  0  0
  6 10  1  0  0  0  0
  6 12  1  0  0  0  0
  7 11  1  0  0  0  0
  7 12  1  0  0  0  0
  8  9  1  0  0  0  0
  8 10  1  0  0  0  0
  9 10  1  0  0  0  0
  1 14  1  0  0  0  0
  2 15  1  0  0  0  0
  3 16  1  0  0  0  0
  8 17  1  0  0  0  0
  8 18  1  0  0  0  0
  9 19  1  0  0  0  0
  9 20  1  0  0  0  0
 10 21  1  0  0  0  0
 12 22  1  0  0  0  0
 13 23  1  0  0  0  0
 13 24  1  0  0  0  0
M  END
> <id>
EN300-1119633

> <smiles>
NC=1C=NC=2NC(=CC2C1)C3CC3

> <MDLNUMBER>
MFCD31600183

> <IUPAC Name>
2-cyclopropyl-1H-pyrrolo[2,3-b]pyridin-5-amine

> <CAS>
2138016-24-5

> <URL>
https://www.enaminestore.com/catalog/EN300-1119633

> <ROCS_ShapeQuery>
_x1140_x0812_0A_x1140_0A_x1097_0A_x0365_0A_x1097_0A_x0310_0A

> <ROCS_TanimotoCombo>
0.608 

> <ROCS_ShapeTanimoto>
0.221 

> <ROCS_ColorTanimoto>
0.387 

> <ROCS_RefTversky>
0.200 

> <ROCS_RefColorTversky>
0.495 

> <ROCS_RefTverskyCombo>
0.695 

> <ROCS_FitTversky>
1.857 

> <ROCS_FitColorTversky>
0.639 

> <ROCS_FitTverskyCombo>
2.496 

> <ROCS_ColorScore>
-3.912

> <ROCS_Overlap>
2052.617

> <ROCS_Rank>
463                 

$$$$
untitled-dbase-482602_1
  -OEChem-02092423213D

 32 33  0     0  0  0  0  0  0999 V2000
    8.2933   12.5196   24.2698 C   0  0  0  0  0  0  0  0  0  0  0  0
    7.5345   10.6641   25.5497 C   0  0  0  0  0  0  0  0  0  0  0  0
    9.0660   11.6440   23.5150 C   0  0  0  0  0  0  0  0  0  0  0  0
    7.5101   12.0283   25.3083 C   0  0  0  0  0  0  0  0  0  0  0  0
    9.0209   10.2971   23.8368 C   0  0  0  0  0  0  0  0  0  0  0  0
    9.8836   12.1689   22.4300 C   0  0  0  0  0  0  0  0  0  0  0  0
   10.9430    7.3639   22.3958 C   0  0  0  0  0  0  0  0  0  0  0  0
    8.8102    7.2802   22.3992 C   0  0  0  0  0  0  0  0  0  0  0  0
    9.8526    7.9715   23.2985 C   0  0  0  0  0  0  0  0  0  0  0  0
    9.9176    6.2619   22.0269 C   0  0  0  0  0  0  0  0  0  0  0  0
   11.4570   15.4756   22.1473 C   0  0  0  0  0  0  0  0  0  0  0  0
   11.1064   14.0764   21.6880 C   0  0  0  0  0  0  0  0  0  0  0  0
    8.2724    9.7827   24.8382 N   0  0  0  0  0  0  0  0  0  0  0  0
    9.7959    9.4097   23.0810 N   0  0  0  0  0  0  0  0  0  0  0  0
   10.1713   11.5391   21.4050 O   0  0  0  0  0  0  0  0  0  0  0  0
   10.2938   13.4482   22.6854 O   0  0  0  0  0  0  0  0  0  0  0  0
    6.7571   12.8473   26.0507 F   0  0  0  0  0  0  0  0  0  0  0  0
    9.9316    5.8532   20.7393 F   0  0  0  0  0  0  0  0  0  0  0  0
    9.9624    5.1486   22.7944 F   0  0  0  0  0  0  0  0  0  0  0  0
    8.2928   13.5856   24.0588 H   0  0  0  0  0  0  0  0  0  0  0  0
    6.9415   10.2311   26.3482 H   0  0  0  0  0  0  0  0  0  0  0  0
   11.2476    7.9778   21.5400 H   0  0  0  0  0  0  0  0  0  0  0  0
   11.8374    7.0111   22.9162 H   0  0  0  0  0  0  0  0  0  0  0  0
    7.9484    6.8581   22.9232 H   0  0  0  0  0  0  0  0  0  0  0  0
    8.4549    7.8689   21.5452 H   0  0  0  0  0  0  0  0  0  0  0  0
    9.8650    7.7012   24.3175 H   0  0  0  0  0  0  0  0  0  0  0  0
   10.5549   16.0765   22.2916 H   0  0  0  0  0  0  0  0  0  0  0  0
   12.0153   15.4444   23.0887 H   0  0  0  0  0  0  0  0  0  0  0  0
   12.0991   15.9732   21.4129 H   0  0  0  0  0  0  0  0  0  0  0  0
   12.0130   13.4807   21.5456 H   0  0  0  0  0  0  0  0  0  0  0  0
   10.5479   14.1095   20.7478 H   0  0  0  0  0  0  0  0  0  0  0  0
   10.3546    9.8263   22.3283 H   0  0  0  0  0  0  0  0  0  0  0  0
  1  3  1  0  0  0  0
  1  4  2  0  0  0  0
  2  4  1  0  0  0  0
  2 13  2  0  0  0  0
  3  5  2  0  0  0  0
  3  6  1  0  0  0  0
  4 17  1  0  0  0  0
  5 13  1  0  0  0  0
  5 14  1  0  0  0  0
  6 15  2  0  0  0  0
  6 16  1  0  0  0  0
  7  9  1  0  0  0  0
  7 10  1  0  0  0  0
  8  9  1  0  0  0  0
  8 10  1  0  0  0  0
  9 14  1  0  0  0  0
 10 18  1  0  0  0  0
 10 19  1  0  0  0  0
 11 12  1  0  0  0  0
 12 16  1  0  0  0  0
  1 20  1  0  0  0  0
  2 21  1  0  0  0  0
  7 22  1  0  0  0  0
  7 23  1  0  0  0  0
  8 24  1  0  0  0  0
  8 25  1  0  0  0  0
  9 26  1  0  0  0  0
 11 27  1  0  0  0  0
 11 28  1  0  0  0  0
 11 29  1  0  0  0  0
 12 30  1  0  0  0  0
 12 31  1  0  0  0  0
 14 32  1  0  0  0  0
M  END
> <id>
EN300-28229820

> <smiles>
CCOC(=O)C=1C=C(F)C=NC1NC2CC(F)(F)C2

> <IUPAC Name>
ethyl 2-[(3,3-difluorocyclobutyl)amino]-5-fluoropyridine-3-carboxylate

> <CAS>
2639415-28-2

> <URL>
https://www.enaminestore.com/catalog/EN300-28229820

> <ROCS_ShapeQuery>
_x1140_x0812_0A_x1140_0A_x1097_0A_x0365_0A_x1097_0A_x0310_0A

> <ROCS_TanimotoCombo>
0.608 

> <ROCS_ShapeTanimoto>
0.242 

> <ROCS_ColorTanimoto>
0.366 

> <ROCS_RefTversky>
0.220 

> <ROCS_RefColorTversky>
0.443 

> <ROCS_RefTverskyCombo>
0.664 

> <ROCS_FitTversky>
1.679 

> <ROCS_FitColorTversky>
0.676 

> <ROCS_FitTverskyCombo>
2.355 

> <ROCS_ColorScore>
-3.481

> <ROCS_Overlap>
2261.603

> <ROCS_Rank>
464                 

$$$$
untitled-dbase-531022_1
  -OEChem-02092423213D

 19 19  0     0  0  0  0  0  0999 V2000
    8.5705   12.4967   24.1281 C   0  0  0  0  0  0  0  0  0  0  0  0
    7.6149   10.5299   25.0635 C   0  0  0  0  0  0  0  0  0  0  0  0
    7.6133   11.9107   24.9489 C   0  0  0  0  0  0  0  0  0  0  0  0
    9.4871   11.6953   23.4565 C   0  0  0  0  0  0  0  0  0  0  0  0
    9.4049   10.3241   23.6382 C   0  0  0  0  0  0  0  0  0  0  0  0
    6.6192   12.7409   25.6800 C   0  0  0  0  0  0  0  0  0  0  0  0
   11.8618   12.1559   22.8449 C   0  0  0  0  0  0  0  0  0  0  0  0
    8.4891    9.7186   24.4271 N   0  0  0  0  0  0  0  0  0  0  0  0
   10.4536   12.2961   22.6282 N   0  0  0  0  0  0  0  0  0  0  0  0
   10.6248    9.1571   22.7495 Br  0  0  0  0  0  0  0  0  0  0  0  0
    8.5999   13.5779   24.0142 H   0  0  0  0  0  0  0  0  0  0  0  0
    6.8918   10.0162   25.6895 H   0  0  0  0  0  0  0  0  0  0  0  0
    5.7173   12.8890   25.0709 H   0  0  0  0  0  0  0  0  0  0  0  0
    6.3213   12.2706   26.6279 H   0  0  0  0  0  0  0  0  0  0  0  0
    7.0291   13.7287   25.9346 H   0  0  0  0  0  0  0  0  0  0  0  0
   12.0363   11.5250   23.7290 H   0  0  0  0  0  0  0  0  0  0  0  0
   12.3235   11.6871   21.9633 H   0  0  0  0  0  0  0  0  0  0  0  0
   12.3081   13.1479   23.0087 H   0  0  0  0  0  0  0  0  0  0  0  0
   10.1179   12.8443   21.8572 H   0  0  0  0  0  0  0  0  0  0  0  0
  1  3  2  0  0  0  0
  1  4  1  0  0  0  0
  2  3  1  0  0  0  0
  2  8  2  0  0  0  0
  3  6  1  0  0  0  0
  4  5  2  0  0  0  0
  4  9  1  0  0  0  0
  5  8  1  0  0  0  0
  5 10  1  0  0  0  0
  7  9  1  0  0  0  0
  1 11  1  0  0  0  0
  2 12  1  0  0  0  0
  6 13  1  0  0  0  0
  6 14  1  0  0  0  0
  6 15  1  0  0  0  0
  7 16  1  0  0  0  0
  7 17  1  0  0  0  0
  7 18  1  0  0  0  0
  9 19  1  0  0  0  0
M  END
> <id>
EN300-2964065

> <smiles>
CNC=1C=C(C)C=NC1Br

> <MDLNUMBER>
MFCD32061838

> <IUPAC Name>
2-bromo-N,5-dimethylpyridin-3-amine

> <CAS>
1855721-52-6

> <URL>
https://www.enaminestore.com/catalog/EN300-2964065

> <ROCS_ShapeQuery>
_x1140_x0812_0A_x1140_0A_x1097_0A_x0365_0A_x1097_0A_x0310_0A

> <ROCS_TanimotoCombo>
0.608 

> <ROCS_ShapeTanimoto>
0.209 

> <ROCS_ColorTanimoto>
0.398 

> <ROCS_RefTversky>
0.189 

> <ROCS_RefColorTversky>
0.438 

> <ROCS_RefTverskyCombo>
0.627 

> <ROCS_FitTversky>
2.072 

> <ROCS_FitColorTversky>
0.813 

> <ROCS_FitTverskyCombo>
2.886 

> <ROCS_ColorScore>
-3.417

> <ROCS_Overlap>
1935.693

> <ROCS_Rank>
465                 

$$$$
untitled-dbase-312463_4
  -OEChem-02092423213D

 19 19  0     0  0  0  0  0  0999 V2000
    8.4475   12.2472   24.1065 C   0  0  0  0  0  0  0  0  0  0  0  0
    8.8087   10.9872   23.5991 C   0  0  0  0  0  0  0  0  0  0  0  0
    7.8314   11.9555   25.2946 C   0  0  0  0  0  0  0  0  0  0  0  0
    9.5068   10.6902   22.3363 C   0  0  0  0  0  0  0  0  0  0  0  0
    7.2110   12.7725   26.3448 C   0  0  0  0  0  0  0  0  0  0  0  0
   11.1384    8.7560   22.5222 C   0  0  0  0  0  0  0  0  0  0  0  0
    9.7899    9.2281   22.0016 C   0  0  0  0  0  0  0  0  0  0  0  0
    8.4446    9.9902   24.4105 N   0  0  0  0  0  0  0  0  0  0  0  0
    9.8623   11.5773   21.5578 O   0  0  0  0  0  0  0  0  0  0  0  0
    7.8235   10.6117   25.4872 O   0  0  0  0  0  0  0  0  0  0  0  0
    8.6097   13.2241   23.6750 H   0  0  0  0  0  0  0  0  0  0  0  0
    6.1352   12.9341   26.1500 H   0  0  0  0  0  0  0  0  0  0  0  0
    7.2975   12.3092   27.3458 H   0  0  0  0  0  0  0  0  0  0  0  0
    7.6816   13.7697   26.4366 H   0  0  0  0  0  0  0  0  0  0  0  0
   11.9539    9.3527   22.1002 H   0  0  0  0  0  0  0  0  0  0  0  0
   11.1780    8.8461   23.6122 H   0  0  0  0  0  0  0  0  0  0  0  0
   11.3172    7.7082   22.2592 H   0  0  0  0  0  0  0  0  0  0  0  0
    9.0055    8.6067   22.4470 H   0  0  0  0  0  0  0  0  0  0  0  0
    9.7725    9.1065   20.9131 H   0  0  0  0  0  0  0  0  0  0  0  0
  1  2  1  0  0  0  0
  1  3  2  0  0  0  0
  2  4  1  0  0  0  0
  2  8  2  0  0  0  0
  3  5  1  0  0  0  0
  3 10  1  0  0  0  0
  4  7  1  0  0  0  0
  4  9  2  0  0  0  0
  6  7  1  0  0  0  0
  8 10  1  0  0  0  0
  1 11  1  0  0  0  0
  5 12  1  0  0  0  0
  5 13  1  0  0  0  0
  5 14  1  0  0  0  0
  6 15  1  0  0  0  0
  6 16  1  0  0  0  0
  6 17  1  0  0  0  0
  7 18  1  0  0  0  0
  7 19  1  0  0  0  0
M  END
> <id>
EN300-2485234

> <smiles>
CCC(=O)C=1C=C(C)ON1

> <MDLNUMBER>
MFCD11847447

> <IUPAC Name>
1-(5-methyl-1,2-oxazol-3-yl)propan-1-one

> <CAS>
473732-48-8

> <Purity>
95

> <URL>
https://www.enaminestore.com/catalog/EN300-2485234

> <ROCS_ShapeQuery>
_x1140_x0812_0A_x1140_0A_x1097_0A_x0365_0A_x1097_0A_x0310_0A

> <ROCS_TanimotoCombo>
0.607 

> <ROCS_ShapeTanimoto>
0.184 

> <ROCS_ColorTanimoto>
0.423 

> <ROCS_RefTversky>
0.170 

> <ROCS_RefColorTversky>
0.458 

> <ROCS_RefTverskyCombo>
0.627 

> <ROCS_FitTversky>
1.835 

> <ROCS_FitColorTversky>
0.850 

> <ROCS_FitTverskyCombo>
2.685 

> <ROCS_ColorScore>
-3.570

> <ROCS_Overlap>
1737.849

> <ROCS_Rank>
466                 

$$$$
untitled-dbase-53920_8
  -OEChem-02092423213D

 25 26  0     0  0  0  0  0  0999 V2000
    8.4340   12.3728   24.3154 C   0  0  0  0  0  0  0  0  0  0  0  0
    7.4538   11.9352   25.1888 C   0  0  0  0  0  0  0  0  0  0  0  0
    9.1259   11.4223   23.5921 C   0  0  0  0  0  0  0  0  0  0  0  0
    7.2303   10.5761   25.2807 C   0  0  0  0  0  0  0  0  0  0  0  0
   10.1672   11.8077   22.6577 C   0  0  0  0  0  0  0  0  0  0  0  0
    4.7801    8.3106   27.2271 C   0  0  0  0  0  0  0  0  0  0  0  0
    4.6746    8.1422   25.7396 C   0  0  0  0  0  0  0  0  0  0  0  0
    5.9173    8.7384   26.3411 C   0  0  0  0  0  0  0  0  0  0  0  0
   12.2700   12.9230   22.4608 C   0  0  0  0  0  0  0  0  0  0  0  0
    8.8861   10.0985   23.7021 N   0  0  0  0  0  0  0  0  0  0  0  0
    7.9225    9.6685   24.5602 N   0  0  0  0  0  0  0  0  0  0  0  0
    6.2524   10.1403   26.1517 N   0  0  0  0  0  0  0  0  0  0  0  0
   10.1500   11.5582   21.4432 O   0  0  0  0  0  0  0  0  0  0  0  0
   11.1802   12.4868   23.2804 O   0  0  0  0  0  0  0  0  0  0  0  0
    8.6437   13.4320   24.2106 H   0  0  0  0  0  0  0  0  0  0  0  0
    6.8864   12.6496   25.7764 H   0  0  0  0  0  0  0  0  0  0  0  0
    4.1710    9.0766   27.6912 H   0  0  0  0  0  0  0  0  0  0  0  0
    4.9164    7.4197   27.8277 H   0  0  0  0  0  0  0  0  0  0  0  0
    4.7399    7.1381   25.3390 H   0  0  0  0  0  0  0  0  0  0  0  0
    3.9954    8.7960   25.2064 H   0  0  0  0  0  0  0  0  0  0  0  0
    6.8039    8.1138   26.3494 H   0  0  0  0  0  0  0  0  0  0  0  0
   13.0036   13.4477   23.0777 H   0  0  0  0  0  0  0  0  0  0  0  0
   11.8951   13.5869   21.6777 H   0  0  0  0  0  0  0  0  0  0  0  0
   12.7407   12.0506   22.0015 H   0  0  0  0  0  0  0  0  0  0  0  0
    5.7362   10.8209   26.6892 H   0  0  0  0  0  0  0  0  0  0  0  0
  1  2  2  0  0  0  0
  1  3  1  0  0  0  0
  2  4  1  0  0  0  0
  3  5  1  0  0  0  0
  3 10  2  0  0  0  0
  4 11  2  0  0  0  0
  4 12  1  0  0  0  0
  5 13  2  0  0  0  0
  5 14  1  0  0  0  0
  6  7  1  0  0  0  0
  6  8  1  0  0  0  0
  7  8  1  0  0  0  0
  8 12  1  0  0  0  0
  9 14  1  0  0  0  0
 10 11  1  0  0  0  0
  1 15  1  0  0  0  0
  2 16  1  0  0  0  0
  6 17  1  0  0  0  0
  6 18  1  0  0  0  0
  7 19  1  0  0  0  0
  7 20  1  0  0  0  0
  8 21  1  0  0  0  0
  9 22  1  0  0  0  0
  9 23  1  0  0  0  0
  9 24  1  0  0  0  0
 12 25  1  0  0  0  0
M  END
> <id>
EN300-175990

> <smiles>
COC(=O)C=1C=CC(NC2CC2)=NN1

> <MDLNUMBER>
MFCD12152727

> <IUPAC Name>
methyl 6-(cyclopropylamino)pyridazine-3-carboxylate

> <CAS>
1183253-21-5

> <Purity>
95

> <URL>
https://www.enaminestore.com/catalog/EN300-175990

> <ROCS_ShapeQuery>
_x1140_x0812_0A_x1140_0A_x1097_0A_x0365_0A_x1097_0A_x0310_0A

> <ROCS_TanimotoCombo>
0.607 

> <ROCS_ShapeTanimoto>
0.216 

> <ROCS_ColorTanimoto>
0.391 

> <ROCS_RefTversky>
0.197 

> <ROCS_RefColorTversky>
0.476 

> <ROCS_RefTverskyCombo>
0.673 

> <ROCS_FitTversky>
1.792 

> <ROCS_FitColorTversky>
0.687 

> <ROCS_FitTverskyCombo>
2.479 

> <ROCS_ColorScore>
-3.744

> <ROCS_Overlap>
2022.577

> <ROCS_Rank>
467                 

$$$$
untitled-dbase-482640_0
  -OEChem-02092423213D

 27 28  0     0  0  0  0  0  0999 V2000
    7.5844   13.4303   26.4969 C   0  0  0  0  0  0  0  0  0  0  0  0
    7.1618   12.2853   27.1770 C   0  0  0  0  0  0  0  0  0  0  0  0
    8.1934   13.3399   25.2377 C   0  0  0  0  0  0  0  0  0  0  0  0
    7.3310   11.0112   26.6269 C   0  0  0  0  0  0  0  0  0  0  0  0
    8.3734   12.0685   24.6654 C   0  0  0  0  0  0  0  0  0  0  0  0
    8.9251   11.5670   23.4571 C   0  0  0  0  0  0  0  0  0  0  0  0
    7.9392   10.9530   25.3743 C   0  0  0  0  0  0  0  0  0  0  0  0
    8.7922   10.1987   23.5085 C   0  0  0  0  0  0  0  0  0  0  0  0
    9.5127   12.2986   22.3724 C   0  0  0  0  0  0  0  0  0  0  0  0
    9.9642   15.9408   22.0220 C   0  0  0  0  0  0  0  0  0  0  0  0
    9.1569    9.1128   22.5854 C   0  0  0  0  0  0  0  0  0  0  0  0
   10.0691   14.4968   21.5796 C   0  0  0  0  0  0  0  0  0  0  0  0
    9.9819   11.7907   21.3315 O   0  0  0  0  0  0  0  0  0  0  0  0
    8.1955    9.8163   24.6676 O   0  0  0  0  0  0  0  0  0  0  0  0
    9.5088   13.6564   22.5942 O   0  0  0  0  0  0  0  0  0  0  0  0
   11.0890    8.8345   22.6064 Br  0  0  0  0  0  0  0  0  0  0  0  0
    7.4387   14.4077   26.9500 H   0  0  0  0  0  0  0  0  0  0  0  0
    6.6927   12.3858   28.1527 H   0  0  0  0  0  0  0  0  0  0  0  0
    8.5164   14.2398   24.7228 H   0  0  0  0  0  0  0  0  0  0  0  0
    7.0055   10.1189   27.1480 H   0  0  0  0  0  0  0  0  0  0  0  0
    8.9199   16.2271   22.1750 H   0  0  0  0  0  0  0  0  0  0  0  0
   10.5146   16.0996   22.9551 H   0  0  0  0  0  0  0  0  0  0  0  0
   10.4071   16.6066   21.2739 H   0  0  0  0  0  0  0  0  0  0  0  0
    8.8851    9.3230   21.5365 H   0  0  0  0  0  0  0  0  0  0  0  0
    8.7010    8.1433   22.8516 H   0  0  0  0  0  0  0  0  0  0  0  0
   11.1159   14.2169   21.4284 H   0  0  0  0  0  0  0  0  0  0  0  0
    9.5179   14.3397   20.6477 H   0  0  0  0  0  0  0  0  0  0  0  0
  1  2  1  0  0  0  0
  1  3  2  0  0  0  0
  2  4  2  0  0  0  0
  3  5  1  0  0  0  0
  4  7  1  0  0  0  0
  5  6  1  0  0  0  0
  5  7  2  0  0  0  0
  6  8  2  0  0  0  0
  6  9  1  0  0  0  0
  7 14  1  0  0  0  0
  8 11  1  0  0  0  0
  8 14  1  0  0  0  0
  9 13  2  0  0  0  0
  9 15  1  0  0  0  0
 10 12  1  0  0  0  0
 11 16  1  0  0  0  0
 12 15  1  0  0  0  0
  1 17  1  0  0  0  0
  2 18  1  0  0  0  0
  3 19  1  0  0  0  0
  4 20  1  0  0  0  0
 10 21  1  0  0  0  0
 10 22  1  0  0  0  0
 10 23  1  0  0  0  0
 11 24  1  0  0  0  0
 11 25  1  0  0  0  0
 12 26  1  0  0  0  0
 12 27  1  0  0  0  0
M  END
> <id>
EN300-60436

> <smiles>
CCOC(=O)C1=C(CBr)OC=2C=CC=CC12

> <MDLNUMBER>
MFCD15209575

> <IUPAC Name>
ethyl 2-(bromomethyl)-1-benzofuran-3-carboxylate

> <CAS>
1221725-86-5

> <Purity>
95

> <URL>
https://www.enaminestore.com/catalog/EN300-60436

> <ROCS_ShapeQuery>
_x1140_x0812_0A_x1140_0A_x1097_0A_x0365_0A_x1097_0A_x0310_0A

> <ROCS_TanimotoCombo>
0.607 

> <ROCS_ShapeTanimoto>
0.238 

> <ROCS_ColorTanimoto>
0.369 

> <ROCS_RefTversky>
0.215 

> <ROCS_RefColorTversky>
0.447 

> <ROCS_RefTverskyCombo>
0.662 

> <ROCS_FitTversky>
1.819 

> <ROCS_FitColorTversky>
0.679 

> <ROCS_FitTverskyCombo>
2.498 

> <ROCS_ColorScore>
-3.508

> <ROCS_Overlap>
2207.902

> <ROCS_Rank>
468                 

$$$$
untitled-dbase-90226_3
  -OEChem-02092423213D

 29 30  0     0  0  0  0  0  0999 V2000
    6.2349   10.7387   27.2031 C   0  0  0  0  0  0  0  0  0  0  0  0
    6.6929   10.0005   26.1076 C   0  0  0  0  0  0  0  0  0  0  0  0
    6.7464   12.0075   27.4869 C   0  0  0  0  0  0  0  0  0  0  0  0
    9.1729   12.0805   24.5515 C   0  0  0  0  0  0  0  0  0  0  0  0
    8.2132   11.8596   25.5743 C   0  0  0  0  0  0  0  0  0  0  0  0
    7.6785   10.5997   25.3254 C   0  0  0  0  0  0  0  0  0  0  0  0
    7.7380   12.5841   26.6814 C   0  0  0  0  0  0  0  0  0  0  0  0
    9.1596   10.9568   23.7580 C   0  0  0  0  0  0  0  0  0  0  0  0
    9.9263   10.6088   22.5624 C   0  0  0  0  0  0  0  0  0  0  0  0
   10.8255    8.5785   23.8950 C   0  0  0  0  0  0  0  0  0  0  0  0
   10.4183    8.4288   21.4148 C   0  0  0  0  0  0  0  0  0  0  0  0
   12.2844    9.8245   22.3200 C   0  0  0  0  0  0  0  0  0  0  0  0
   10.8355    9.3522   22.5673 C   0  0  0  0  0  0  0  0  0  0  0  0
    9.8577   11.3092   21.5494 O   0  0  0  0  0  0  0  0  0  0  0  0
    8.2566   10.0525   24.2192 O   0  0  0  0  0  0  0  0  0  0  0  0
    8.4031   14.1240   26.9717 Cl  0  0  0  0  0  0  0  0  0  0  0  0
    5.4662   10.3166   27.8458 H   0  0  0  0  0  0  0  0  0  0  0  0
    6.3012    9.0161   25.8812 H   0  0  0  0  0  0  0  0  0  0  0  0
    6.3631   12.5489   28.3490 H   0  0  0  0  0  0  0  0  0  0  0  0
    9.7980   12.9512   24.4086 H   0  0  0  0  0  0  0  0  0  0  0  0
   11.4758    7.6990   23.8661 H   0  0  0  0  0  0  0  0  0  0  0  0
   11.1838    9.2058   24.7197 H   0  0  0  0  0  0  0  0  0  0  0  0
    9.8149    8.2400   24.1508 H   0  0  0  0  0  0  0  0  0  0  0  0
   11.0334    7.5248   21.3767 H   0  0  0  0  0  0  0  0  0  0  0  0
   10.5153    8.9343   20.4473 H   0  0  0  0  0  0  0  0  0  0  0  0
    9.3762    8.1061   21.5216 H   0  0  0  0  0  0  0  0  0  0  0  0
   12.9778    8.9753   22.3125 H   0  0  0  0  0  0  0  0  0  0  0  0
   12.3771   10.3446   21.3597 H   0  0  0  0  0  0  0  0  0  0  0  0
   12.6230   10.5162   23.1001 H   0  0  0  0  0  0  0  0  0  0  0  0
  1  2  2  0  0  0  0
  1  3  1  0  0  0  0
  2  6  1  0  0  0  0
  3  7  2  0  0  0  0
  4  5  1  0  0  0  0
  4  8  2  0  0  0  0
  5  6  2  0  0  0  0
  5  7  1  0  0  0  0
  6 15  1  0  0  0  0
  7 16  1  0  0  0  0
  8  9  1  0  0  0  0
  8 15  1  0  0  0  0
  9 13  1  0  0  0  0
  9 14  2  0  0  0  0
 10 13  1  0  0  0  0
 11 13  1  0  0  0  0
 12 13  1  0  0  0  0
  1 17  1  0  0  0  0
  2 18  1  0  0  0  0
  3 19  1  0  0  0  0
  4 20  1  0  0  0  0
 10 21  1  0  0  0  0
 10 22  1  0  0  0  0
 10 23  1  0  0  0  0
 11 24  1  0  0  0  0
 11 25  1  0  0  0  0
 11 26  1  0  0  0  0
 12 27  1  0  0  0  0
 12 28  1  0  0  0  0
 12 29  1  0  0  0  0
M  END
> <id>
EN300-744841

> <smiles>
CC(C)(C)C(=O)C1=CC=2C(Cl)=CC=CC2O1

> <MDLNUMBER>
MFCD24170462

> <IUPAC Name>
1-(4-chloro-1-benzofuran-2-yl)-2,2-dimethylpropan-1-one

> <CAS>
1521066-36-3

> <URL>
https://www.enaminestore.com/catalog/EN300-744841

> <ROCS_ShapeQuery>
_x1140_x0812_0A_x1140_0A_x1097_0A_x0365_0A_x1097_0A_x0310_0A

> <ROCS_TanimotoCombo>
0.607 

> <ROCS_ShapeTanimoto>
0.219 

> <ROCS_ColorTanimoto>
0.388 

> <ROCS_RefTversky>
0.201 

> <ROCS_RefColorTversky>
0.464 

> <ROCS_RefTverskyCombo>
0.665 

> <ROCS_FitTversky>
1.696 

> <ROCS_FitColorTversky>
0.704 

> <ROCS_FitTverskyCombo>
2.401 

> <ROCS_ColorScore>
-3.640

> <ROCS_Overlap>
2061.141

> <ROCS_Rank>
469                 

$$$$
untitled-dbase-426797_1
  -OEChem-02092423213D

 19 19  0     0  0  0  0  0  0999 V2000
    8.8773   12.5193   24.4746 C   0  0  0  0  0  0  0  0  0  0  0  0
    7.8889   10.5255   25.3138 C   0  0  0  0  0  0  0  0  0  0  0  0
    9.4139   11.7770   23.4285 C   0  0  0  0  0  0  0  0  0  0  0  0
    8.0992   11.8892   25.4394 C   0  0  0  0  0  0  0  0  0  0  0  0
    9.1449   10.4182   23.3931 C   0  0  0  0  0  0  0  0  0  0  0  0
   10.8925    8.7403   22.7473 C   0  0  0  0  0  0  0  0  0  0  0  0
    9.6936    9.5672   22.2940 C   0  0  0  0  0  0  0  0  0  0  0  0
    8.3936    9.7710   24.3119 N   0  0  0  0  0  0  0  0  0  0  0  0
   10.2038   12.4043   22.4485 N   0  0  0  0  0  0  0  0  0  0  0  0
    7.4210   12.7715   26.7443 Cl  0  0  0  0  0  0  0  0  0  0  0  0
    9.0656   13.5890   24.5355 H   0  0  0  0  0  0  0  0  0  0  0  0
    7.2920    9.9754   26.0349 H   0  0  0  0  0  0  0  0  0  0  0  0
   11.6892    9.3829   23.1373 H   0  0  0  0  0  0  0  0  0  0  0  0
   11.3010    8.1632   21.9118 H   0  0  0  0  0  0  0  0  0  0  0  0
   10.6097    8.0379   23.5387 H   0  0  0  0  0  0  0  0  0  0  0  0
    8.9136    8.8927   21.9087 H   0  0  0  0  0  0  0  0  0  0  0  0
    9.9886   10.1936   21.4381 H   0  0  0  0  0  0  0  0  0  0  0  0
   10.3367   13.3967   22.4850 H   0  0  0  0  0  0  0  0  0  0  0  0
   10.5452   11.8674   21.6745 H   0  0  0  0  0  0  0  0  0  0  0  0
  1  3  1  0  0  0  0
  1  4  2  0  0  0  0
  2  4  1  0  0  0  0
  2  8  2  0  0  0  0
  3  5  2  0  0  0  0
  3  9  1  0  0  0  0
  4 10  1  0  0  0  0
  5  7  1  0  0  0  0
  5  8  1  0  0  0  0
  6  7  1  0  0  0  0
  1 11  1  0  0  0  0
  2 12  1  0  0  0  0
  6 13  1  0  0  0  0
  6 14  1  0  0  0  0
  6 15  1  0  0  0  0
  7 16  1  0  0  0  0
  7 17  1  0  0  0  0
  9 18  1  0  0  0  0
  9 19  1  0  0  0  0
M  END
> <id>
EN300-1622343

> <smiles>
CCC=1N=CC(Cl)=CC1N

> <IUPAC Name>
5-chloro-2-ethylpyridin-3-amine

> <CAS>
1866428-01-4

> <URL>
https://www.enaminestore.com/catalog/EN300-1622343

> <ROCS_ShapeQuery>
_x1140_x0812_0A_x1140_0A_x1097_0A_x0365_0A_x1097_0A_x0310_0A

> <ROCS_TanimotoCombo>
0.607 

> <ROCS_ShapeTanimoto>
0.197 

> <ROCS_ColorTanimoto>
0.410 

> <ROCS_RefTversky>
0.179 

> <ROCS_RefColorTversky>
0.482 

> <ROCS_RefTverskyCombo>
0.661 

> <ROCS_FitTversky>
1.961 

> <ROCS_FitColorTversky>
0.734 

> <ROCS_FitTverskyCombo>
2.695 

> <ROCS_ColorScore>
-3.782

> <ROCS_Overlap>
1837.815

> <ROCS_Rank>
470                 

$$$$
untitled-dbase-312565_2
  -OEChem-02092423213D

 29 30  0     0  0  0  0  0  0999 V2000
    8.4934   12.2166   24.1287 C   0  0  0  0  0  0  0  0  0  0  0  0
    6.8379    9.9010   26.3186 C   0  0  0  0  0  0  0  0  0  0  0  0
    6.0143   12.0842   27.0178 C   0  0  0  0  0  0  0  0  0  0  0  0
    7.5970   11.9555   25.1984 C   0  0  0  0  0  0  0  0  0  0  0  0
    6.0407   10.6935   27.1499 C   0  0  0  0  0  0  0  0  0  0  0  0
    7.5955   10.5740   25.3618 C   0  0  0  0  0  0  0  0  0  0  0  0
    6.7879   12.7329   26.0455 C   0  0  0  0  0  0  0  0  0  0  0  0
    8.9719   10.9944   23.7166 C   0  0  0  0  0  0  0  0  0  0  0  0
    9.8911   10.6425   22.6888 C   0  0  0  0  0  0  0  0  0  0  0  0
    5.2016   10.0386   28.1976 C   0  0  0  0  0  0  0  0  0  0  0  0
   12.1022    9.5958   22.0646 C   0  0  0  0  0  0  0  0  0  0  0  0
   10.0896    8.1181   22.3045 C   0  0  0  0  0  0  0  0  0  0  0  0
   10.7935    9.3764   22.8179 C   0  0  0  0  0  0  0  0  0  0  0  0
   10.0506   11.3125   21.6312 O   0  0  0  0  0  0  0  0  0  0  0  0
    8.4334    9.9916   24.4584 O   0  0  0  0  0  0  0  0  0  0  0  0
    6.8015   14.4219   25.8323 Cl  0  0  0  0  0  0  0  0  0  0  0  0
    8.7599   13.1766   23.7087 H   0  0  0  0  0  0  0  0  0  0  0  0
    6.8679    8.8210   26.4074 H   0  0  0  0  0  0  0  0  0  0  0  0
    5.3832   12.6743   27.6799 H   0  0  0  0  0  0  0  0  0  0  0  0
    5.7642    9.9499   29.1342 H   0  0  0  0  0  0  0  0  0  0  0  0
    4.2885   10.6148   28.3915 H   0  0  0  0  0  0  0  0  0  0  0  0
    4.8858    9.0362   27.8830 H   0  0  0  0  0  0  0  0  0  0  0  0
   11.9207    9.7688   20.9978 H   0  0  0  0  0  0  0  0  0  0  0  0
   12.7578    8.7241   22.1610 H   0  0  0  0  0  0  0  0  0  0  0  0
   12.6431   10.4674   22.4466 H   0  0  0  0  0  0  0  0  0  0  0  0
    9.8545    8.2134   21.2392 H   0  0  0  0  0  0  0  0  0  0  0  0
    9.1527    7.9309   22.8408 H   0  0  0  0  0  0  0  0  0  0  0  0
   10.7276    7.2369   22.4335 H   0  0  0  0  0  0  0  0  0  0  0  0
   10.9936    9.2054   23.8805 H   0  0  0  0  0  0  0  0  0  0  0  0
  1  4  1  0  0  0  0
  1  8  2  0  0  0  0
  2  5  2  0  0  0  0
  2  6  1  0  0  0  0
  3  5  1  0  0  0  0
  3  7  2  0  0  0  0
  4  6  2  0  0  0  0
  4  7  1  0  0  0  0
  5 10  1  0  0  0  0
  6 15  1  0  0  0  0
  7 16  1  0  0  0  0
  8  9  1  0  0  0  0
  8 15  1  0  0  0  0
  9 13  1  0  0  0  0
  9 14  2  0  0  0  0
 11 13  1  0  0  0  0
 12 13  1  0  0  0  0
  1 17  1  0  0  0  0
  2 18  1  0  0  0  0
  3 19  1  0  0  0  0
 10 20  1  0  0  0  0
 10 21  1  0  0  0  0
 10 22  1  0  0  0  0
 11 23  1  0  0  0  0
 11 24  1  0  0  0  0
 11 25  1  0  0  0  0
 12 26  1  0  0  0  0
 12 27  1  0  0  0  0
 12 28  1  0  0  0  0
 13 29  1  0  0  0  0
M  END
> <id>
EN300-744910

> <smiles>
CC(C)C(=O)C1=CC=2C(Cl)=CC(C)=CC2O1

> <MDLNUMBER>
MFCD31455969

> <IUPAC Name>
1-(4-chloro-6-methyl-1-benzofuran-2-yl)-2-methylpropan-1-one

> <CAS>
2137627-84-8

> <URL>
https://www.enaminestore.com/catalog/EN300-744910

> <ROCS_ShapeQuery>
_x1140_x0812_0A_x1140_0A_x1097_0A_x0365_0A_x1097_0A_x0310_0A

> <ROCS_TanimotoCombo>
0.607 

> <ROCS_ShapeTanimoto>
0.239 

> <ROCS_ColorTanimoto>
0.368 

> <ROCS_RefTversky>
0.216 

> <ROCS_RefColorTversky>
0.446 

> <ROCS_RefTverskyCombo>
0.662 

> <ROCS_FitTversky>
1.827 

> <ROCS_FitColorTversky>
0.678 

> <ROCS_FitTverskyCombo>
2.505 

> <ROCS_ColorScore>
-3.503

> <ROCS_Overlap>
2211.779

> <ROCS_Rank>
471                 

$$$$
untitled-dbase-348765_3
  -OEChem-02092423213D

 33 33  0     0  0  0  0  0  0999 V2000
    9.2721   11.7323   23.7566 C   0  0  0  0  0  0  0  0  0  0  0  0
    8.3793   12.2160   24.6815 C   0  0  0  0  0  0  0  0  0  0  0  0
    9.1302   10.3336   23.8284 C   0  0  0  0  0  0  0  0  0  0  0  0
   10.5973   12.1783   21.6695 C   0  0  0  0  0  0  0  0  0  0  0  0
    9.6094   14.4543   20.2470 C   0  0  0  0  0  0  0  0  0  0  0  0
   12.0173   14.9402   19.7222 C   0  0  0  0  0  0  0  0  0  0  0  0
   10.9621   12.8150   18.8989 C   0  0  0  0  0  0  0  0  0  0  0  0
    6.7627   11.1086   26.2551 C   0  0  0  0  0  0  0  0  0  0  0  0
    8.0454   13.5949   25.0878 C   0  0  0  0  0  0  0  0  0  0  0  0
   10.9941   13.8476   20.0246 C   0  0  0  0  0  0  0  0  0  0  0  0
    8.2191    9.9533   24.7280 N   0  0  0  0  0  0  0  0  0  0  0  0
    7.7805   11.1203   25.2300 N   0  0  0  0  0  0  0  0  0  0  0  0
   10.1297   12.4939   22.9304 N   0  0  0  0  0  0  0  0  0  0  0  0
   10.3620   11.1713   21.0128 O   0  0  0  0  0  0  0  0  0  0  0  0
    9.7750    9.3880   23.1302 O   0  0  0  0  0  0  0  0  0  0  0  0
   11.4033   13.1961   21.2278 O   0  0  0  0  0  0  0  0  0  0  0  0
    8.7530   14.5649   24.4231 F   0  0  0  0  0  0  0  0  0  0  0  0
    6.7308   13.9362   24.8919 F   0  0  0  0  0  0  0  0  0  0  0  0
    8.2779   13.8383   26.4169 F   0  0  0  0  0  0  0  0  0  0  0  0
    8.8721   13.6732   20.4644 H   0  0  0  0  0  0  0  0  0  0  0  0
    9.6112   15.1709   21.0748 H   0  0  0  0  0  0  0  0  0  0  0  0
    9.2583   14.9684   19.3450 H   0  0  0  0  0  0  0  0  0  0  0  0
   13.0122   14.5094   19.5620 H   0  0  0  0  0  0  0  0  0  0  0  0
   12.1125   15.6307   20.5680 H   0  0  0  0  0  0  0  0  0  0  0  0
   11.7418   15.5168   18.8332 H   0  0  0  0  0  0  0  0  0  0  0  0
   11.9552   12.3796   18.7392 H   0  0  0  0  0  0  0  0  0  0  0  0
   10.2599   12.0035   19.1158 H   0  0  0  0  0  0  0  0  0  0  0  0
   10.6728   13.2815   17.9502 H   0  0  0  0  0  0  0  0  0  0  0  0
    5.7874   11.1426   25.7624 H   0  0  0  0  0  0  0  0  0  0  0  0
    6.8578   10.1975   26.8523 H   0  0  0  0  0  0  0  0  0  0  0  0
    6.8945   11.9782   26.9050 H   0  0  0  0  0  0  0  0  0  0  0  0
   10.4409   13.3842   23.3114 H   0  0  0  0  0  0  0  0  0  0  0  0
    9.4777    8.4919   23.3843 H   0  0  0  0  0  0  0  0  0  0  0  0
  1  2  2  0  0  0  0
  1  3  1  0  0  0  0
  1 13  1  0  0  0  0
  2  9  1  0  0  0  0
  2 12  1  0  0  0  0
  3 11  2  0  0  0  0
  3 15  1  0  0  0  0
  4 13  1  0  0  0  0
  4 14  2  0  0  0  0
  4 16  1  0  0  0  0
  5 10  1  0  0  0  0
  6 10  1  0  0  0  0
  7 10  1  0  0  0  0
  8 12  1  0  0  0  0
  9 17  1  0  0  0  0
  9 18  1  0  0  0  0
  9 19  1  0  0  0  0
 10 16  1  0  0  0  0
 11 12  1  0  0  0  0
  5 20  1  0  0  0  0
  5 21  1  0  0  0  0
  5 22  1  0  0  0  0
  6 23  1  0  0  0  0
  6 24  1  0  0  0  0
  6 25  1  0  0  0  0
  7 26  1  0  0  0  0
  7 27  1  0  0  0  0
  7 28  1  0  0  0  0
  8 29  1  0  0  0  0
  8 30  1  0  0  0  0
  8 31  1  0  0  0  0
 13 32  1  0  0  0  0
 15 33  1  0  0  0  0
M  END
> <id>
EN300-26664898

> <smiles>
CN1N=C(O)C(NC(=O)OC(C)(C)C)=C1C(F)(F)F

> <IUPAC Name>
tert-butyl N-[3-hydroxy-1-methyl-5-(trifluoromethyl)-1H-pyrazol-4-yl]carbamate

> <CAS>
2413900-03-3

> <URL>
https://www.enaminestore.com/catalog/EN300-26664898

> <ROCS_ShapeQuery>
_x1140_x0812_0A_x1140_0A_x1097_0A_x0365_0A_x1097_0A_x0310_0A

> <ROCS_TanimotoCombo>
0.607 

> <ROCS_ShapeTanimoto>
0.246 

> <ROCS_ColorTanimoto>
0.361 

> <ROCS_RefTversky>
0.223 

> <ROCS_RefColorTversky>
0.501 

> <ROCS_RefTverskyCombo>
0.724 

> <ROCS_FitTversky>
1.691 

> <ROCS_FitColorTversky>
0.564 

> <ROCS_FitTverskyCombo>
2.255 

> <ROCS_ColorScore>
-3.983

> <ROCS_Overlap>
2293.735

> <ROCS_Rank>
472                 

$$$$
untitled-dbase-26932_0
  -OEChem-02092423213D

 15 15  0     0  0  0  0  0  0999 V2000
    8.5558   12.6012   24.0697 C   0  0  0  0  0  0  0  0  0  0  0  0
    9.3413   11.6534   23.4233 C   0  0  0  0  0  0  0  0  0  0  0  0
    7.6165   12.1931   25.0103 C   0  0  0  0  0  0  0  0  0  0  0  0
    9.1502   10.3206   23.7503 C   0  0  0  0  0  0  0  0  0  0  0  0
    7.5026   10.8361   25.2661 C   0  0  0  0  0  0  0  0  0  0  0  0
    8.2479    9.8860   24.6583 N   0  0  0  0  0  0  0  0  0  0  0  0
   10.2927   12.0639   22.4709 N   0  0  0  0  0  0  0  0  0  0  0  0
    9.9465    9.3476   23.0956 N   0  0  0  0  0  0  0  0  0  0  0  0
    6.6542   13.3814   25.8026 Cl  0  0  0  0  0  0  0  0  0  0  0  0
    6.3850   10.1845   26.4027 Cl  0  0  0  0  0  0  0  0  0  0  0  0
    8.6796   13.6568   23.8378 H   0  0  0  0  0  0  0  0  0  0  0  0
   10.3622   13.0342   22.2331 H   0  0  0  0  0  0  0  0  0  0  0  0
   10.8212   11.3722   21.9757 H   0  0  0  0  0  0  0  0  0  0  0  0
   10.5836    9.6440   22.3890 H   0  0  0  0  0  0  0  0  0  0  0  0
    9.7837    8.3838   23.2896 H   0  0  0  0  0  0  0  0  0  0  0  0
  1  2  1  0  0  0  0
  1  3  2  0  0  0  0
  2  4  2  0  0  0  0
  2  7  1  0  0  0  0
  3  5  1  0  0  0  0
  3  9  1  0  0  0  0
  4  6  1  0  0  0  0
  4  8  1  0  0  0  0
  5  6  2  0  0  0  0
  5 10  1  0  0  0  0
  1 11  1  0  0  0  0
  7 12  1  0  0  0  0
  7 13  1  0  0  0  0
  8 14  1  0  0  0  0
  8 15  1  0  0  0  0
M  END
> <id>
EN300-122195

> <smiles>
NC=1C=C(Cl)C(Cl)=NC1N

> <MDLNUMBER>
MFCD13181782

> <IUPAC Name>
5,6-dichloropyridine-2,3-diamine

> <CAS>
97941-89-4

> <Purity>
95

> <URL>
https://www.enaminestore.com/catalog/EN300-122195

> <MP>
165-166

> <ROCS_ShapeQuery>
_x1140_x0812_0A_x1140_0A_x1097_0A_x0365_0A_x1097_0A_x0310_0A

> <ROCS_TanimotoCombo>
0.607 

> <ROCS_ShapeTanimoto>
0.213 

> <ROCS_ColorTanimoto>
0.394 

> <ROCS_RefTversky>
0.191 

> <ROCS_RefColorTversky>
0.502 

> <ROCS_RefTverskyCombo>
0.693 

> <ROCS_FitTversky>
2.091 

> <ROCS_FitColorTversky>
0.649 

> <ROCS_FitTverskyCombo>
2.740 

> <ROCS_ColorScore>
-3.963

> <ROCS_Overlap>
1959.343

> <ROCS_Rank>
473                 

$$$$
untitled-dbase-530763_0
  -OEChem-02092423213D

 19 19  0     0  0  0  0  0  0999 V2000
    8.5763   12.5014   24.1254 C   0  0  0  0  0  0  0  0  0  0  0  0
    7.6171   11.9188   24.9462 C   0  0  0  0  0  0  0  0  0  0  0  0
    9.4906   11.6967   23.4546 C   0  0  0  0  0  0  0  0  0  0  0  0
    7.6143   10.5381   25.0617 C   0  0  0  0  0  0  0  0  0  0  0  0
    9.4041   10.3259   23.6370 C   0  0  0  0  0  0  0  0  0  0  0  0
    6.5992    9.8794   25.9348 C   0  0  0  0  0  0  0  0  0  0  0  0
   10.9875   13.6034   22.8635 C   0  0  0  0  0  0  0  0  0  0  0  0
    8.4862    9.7237   24.4260 N   0  0  0  0  0  0  0  0  0  0  0  0
   10.4585   12.2942   22.6260 N   0  0  0  0  0  0  0  0  0  0  0  0
   10.6219    9.1542   22.7519 Br  0  0  0  0  0  0  0  0  0  0  0  0
    8.6014   13.5822   24.0160 H   0  0  0  0  0  0  0  0  0  0  0  0
    6.8976   12.5354   25.4747 H   0  0  0  0  0  0  0  0  0  0  0  0
    5.6955    9.6456   25.3592 H   0  0  0  0  0  0  0  0  0  0  0  0
    6.9890    8.9481   26.3651 H   0  0  0  0  0  0  0  0  0  0  0  0
    6.3190   10.5259   26.7763 H   0  0  0  0  0  0  0  0  0  0  0  0
   10.5227   14.0294   23.7649 H   0  0  0  0  0  0  0  0  0  0  0  0
   12.0760   13.5383   23.0082 H   0  0  0  0  0  0  0  0  0  0  0  0
   10.7705   14.2487   21.9994 H   0  0  0  0  0  0  0  0  0  0  0  0
   10.7777   11.7611   21.8375 H   0  0  0  0  0  0  0  0  0  0  0  0
  1  2  2  0  0  0  0
  1  3  1  0  0  0  0
  2  4  1  0  0  0  0
  3  5  2  0  0  0  0
  3  9  1  0  0  0  0
  4  6  1  0  0  0  0
  4  8  2  0  0  0  0
  5  8  1  0  0  0  0
  5 10  1  0  0  0  0
  7  9  1  0  0  0  0
  1 11  1  0  0  0  0
  2 12  1  0  0  0  0
  6 13  1  0  0  0  0
  6 14  1  0  0  0  0
  6 15  1  0  0  0  0
  7 16  1  0  0  0  0
  7 17  1  0  0  0  0
  7 18  1  0  0  0  0
  9 19  1  0  0  0  0
M  END
> <id>
EN300-7654678

> <smiles>
CNC=1C=CC(C)=NC1Br

> <MDLNUMBER>
MFCD18259568

> <IUPAC Name>
2-bromo-N,6-dimethylpyridin-3-amine

> <CAS>
1256809-44-5

> <URL>
https://www.enaminestore.com/catalog/EN300-7654678

> <ROCS_ShapeQuery>
_x1140_x0812_0A_x1140_0A_x1097_0A_x0365_0A_x1097_0A_x0310_0A

> <ROCS_TanimotoCombo>
0.607 

> <ROCS_ShapeTanimoto>
0.209 

> <ROCS_ColorTanimoto>
0.398 

> <ROCS_RefTversky>
0.189 

> <ROCS_RefColorTversky>
0.438 

> <ROCS_RefTverskyCombo>
0.627 

> <ROCS_FitTversky>
2.066 

> <ROCS_FitColorTversky>
0.814 

> <ROCS_FitTverskyCombo>
2.880 

> <ROCS_ColorScore>
-3.417

> <ROCS_Overlap>
1931.247

> <ROCS_Rank>
474                 

$$$$
untitled-dbase-93358_3
  -OEChem-02092423213D

 29 30  0     0  0  0  0  0  0999 V2000
    6.6929    9.9987   26.1064 C   0  0  0  0  0  0  0  0  0  0  0  0
    6.2343   10.7361   27.2022 C   0  0  0  0  0  0  0  0  0  0  0  0
    7.7366   12.5826   26.6816 C   0  0  0  0  0  0  0  0  0  0  0  0
    9.1720   12.0807   24.5516 C   0  0  0  0  0  0  0  0  0  0  0  0
    8.2123   11.8589   25.5742 C   0  0  0  0  0  0  0  0  0  0  0  0
    7.6783   10.5988   25.3246 C   0  0  0  0  0  0  0  0  0  0  0  0
    6.7452   12.0051   27.4867 C   0  0  0  0  0  0  0  0  0  0  0  0
    9.1594   10.9573   23.7577 C   0  0  0  0  0  0  0  0  0  0  0  0
    9.9264   10.6090   22.5622 C   0  0  0  0  0  0  0  0  0  0  0  0
   10.8246    8.5787   23.8954 C   0  0  0  0  0  0  0  0  0  0  0  0
   10.4181    8.4288   21.4150 C   0  0  0  0  0  0  0  0  0  0  0  0
   12.2843    9.8241   22.3206 C   0  0  0  0  0  0  0  0  0  0  0  0
   10.8353    9.3522   22.5676 C   0  0  0  0  0  0  0  0  0  0  0  0
    9.8582   11.3094   21.5492 O   0  0  0  0  0  0  0  0  0  0  0  0
    8.2569   10.0524   24.2183 O   0  0  0  0  0  0  0  0  0  0  0  0
    6.2803   12.6824   28.5461 F   0  0  0  0  0  0  0  0  0  0  0  0
    6.3015    9.0143   25.8794 H   0  0  0  0  0  0  0  0  0  0  0  0
    5.4655   10.3139   27.8444 H   0  0  0  0  0  0  0  0  0  0  0  0
    8.1237   13.5697   26.9155 H   0  0  0  0  0  0  0  0  0  0  0  0
    9.7941   12.9543   24.4143 H   0  0  0  0  0  0  0  0  0  0  0  0
   11.4747    7.6990   23.8667 H   0  0  0  0  0  0  0  0  0  0  0  0
   11.1830    9.2060   24.7200 H   0  0  0  0  0  0  0  0  0  0  0  0
    9.8139    8.2405   24.1509 H   0  0  0  0  0  0  0  0  0  0  0  0
   11.0329    7.5246   21.3772 H   0  0  0  0  0  0  0  0  0  0  0  0
   10.5155    8.9341   20.4475 H   0  0  0  0  0  0  0  0  0  0  0  0
    9.3759    8.1064   21.5216 H   0  0  0  0  0  0  0  0  0  0  0  0
   12.9775    8.9747   22.3134 H   0  0  0  0  0  0  0  0  0  0  0  0
   12.3774   10.3441   21.3603 H   0  0  0  0  0  0  0  0  0  0  0  0
   12.6229   10.5159   23.1007 H   0  0  0  0  0  0  0  0  0  0  0  0
  1  2  2  0  0  0  0
  1  6  1  0  0  0  0
  2  7  1  0  0  0  0
  3  5  1  0  0  0  0
  3  7  2  0  0  0  0
  4  5  1  0  0  0  0
  4  8  2  0  0  0  0
  5  6  2  0  0  0  0
  6 15  1  0  0  0  0
  7 16  1  0  0  0  0
  8  9  1  0  0  0  0
  8 15  1  0  0  0  0
  9 13  1  0  0  0  0
  9 14  2  0  0  0  0
 10 13  1  0  0  0  0
 11 13  1  0  0  0  0
 12 13  1  0  0  0  0
  1 17  1  0  0  0  0
  2 18  1  0  0  0  0
  3 19  1  0  0  0  0
  4 20  1  0  0  0  0
 10 21  1  0  0  0  0
 10 22  1  0  0  0  0
 10 23  1  0  0  0  0
 11 24  1  0  0  0  0
 11 25  1  0  0  0  0
 11 26  1  0  0  0  0
 12 27  1  0  0  0  0
 12 28  1  0  0  0  0
 12 29  1  0  0  0  0
M  END
> <id>
EN300-744833

> <smiles>
CC(C)(C)C(=O)C1=CC=2C=C(F)C=CC2O1

> <MDLNUMBER>
MFCD21233491

> <IUPAC Name>
1-(5-fluoro-1-benzofuran-2-yl)-2,2-dimethylpropan-1-one

> <CAS>
1494722-37-0

> <URL>
https://www.enaminestore.com/catalog/EN300-744833

> <ROCS_ShapeQuery>
_x1140_x0812_0A_x1140_0A_x1097_0A_x0365_0A_x1097_0A_x0310_0A

> <ROCS_TanimotoCombo>
0.607 

> <ROCS_ShapeTanimoto>
0.219 

> <ROCS_ColorTanimoto>
0.388 

> <ROCS_RefTversky>
0.201 

> <ROCS_RefColorTversky>
0.464 

> <ROCS_RefTverskyCombo>
0.665 

> <ROCS_FitTversky>
1.683 

> <ROCS_FitColorTversky>
0.704 

> <ROCS_FitTverskyCombo>
2.387 

> <ROCS_ColorScore>
-3.640

> <ROCS_Overlap>
2061.989

> <ROCS_Rank>
475                 

$$$$
untitled-dbase-90271_3
  -OEChem-02092423213D

 32 33  0     0  0  0  0  0  0999 V2000
    7.7414   12.5868   26.6811 C   0  0  0  0  0  0  0  0  0  0  0  0
    6.7496   12.0111   27.4870 C   0  0  0  0  0  0  0  0  0  0  0  0
    9.1751   12.0819   24.5507 C   0  0  0  0  0  0  0  0  0  0  0  0
    6.6941   10.0040   26.1079 C   0  0  0  0  0  0  0  0  0  0  0  0
    8.2156   11.8619   25.5739 C   0  0  0  0  0  0  0  0  0  0  0  0
    6.2370   10.7426   27.2035 C   0  0  0  0  0  0  0  0  0  0  0  0
    7.6799   10.6023   25.3253 C   0  0  0  0  0  0  0  0  0  0  0  0
    9.1607   10.9580   23.7574 C   0  0  0  0  0  0  0  0  0  0  0  0
    9.9269   10.6092   22.5616 C   0  0  0  0  0  0  0  0  0  0  0  0
    5.1808   10.1631   28.0861 C   0  0  0  0  0  0  0  0  0  0  0  0
   10.8244    8.5783   23.8944 C   0  0  0  0  0  0  0  0  0  0  0  0
   10.4167    8.4287   21.4142 C   0  0  0  0  0  0  0  0  0  0  0  0
   12.2842    9.8229   22.3189 C   0  0  0  0  0  0  0  0  0  0  0  0
   10.8349    9.3518   22.5665 C   0  0  0  0  0  0  0  0  0  0  0  0
    9.8586   11.3096   21.5486 O   0  0  0  0  0  0  0  0  0  0  0  0
    8.2571   10.0545   24.2190 O   0  0  0  0  0  0  0  0  0  0  0  0
    8.1303   13.5735   26.9138 H   0  0  0  0  0  0  0  0  0  0  0  0
    6.3802   12.5693   28.3444 H   0  0  0  0  0  0  0  0  0  0  0  0
    9.7982   12.9547   24.4127 H   0  0  0  0  0  0  0  0  0  0  0  0
    6.3063    9.0189   25.8750 H   0  0  0  0  0  0  0  0  0  0  0  0
    4.1855   10.4412   27.7206 H   0  0  0  0  0  0  0  0  0  0  0  0
    5.2481    9.0686   28.1187 H   0  0  0  0  0  0  0  0  0  0  0  0
    5.2868   10.5203   29.1180 H   0  0  0  0  0  0  0  0  0  0  0  0
   11.4739    7.6982   23.8654 H   0  0  0  0  0  0  0  0  0  0  0  0
   11.1835    9.2054   24.7188 H   0  0  0  0  0  0  0  0  0  0  0  0
    9.8137    8.2408   24.1503 H   0  0  0  0  0  0  0  0  0  0  0  0
   11.0309    7.5241   21.3761 H   0  0  0  0  0  0  0  0  0  0  0  0
   10.5139    8.9339   20.4466 H   0  0  0  0  0  0  0  0  0  0  0  0
    9.3743    8.1069   21.5212 H   0  0  0  0  0  0  0  0  0  0  0  0
   12.9768    8.9730   22.3114 H   0  0  0  0  0  0  0  0  0  0  0  0
   12.3771   10.3428   21.3585 H   0  0  0  0  0  0  0  0  0  0  0  0
   12.6235   10.5144   23.0988 H   0  0  0  0  0  0  0  0  0  0  0  0
  1  2  2  0  0  0  0
  1  5  1  0  0  0  0
  2  6  1  0  0  0  0
  3  5  1  0  0  0  0
  3  8  2  0  0  0  0
  4  6  2  0  0  0  0
  4  7  1  0  0  0  0
  5  7  2  0  0  0  0
  6 10  1  0  0  0  0
  7 16  1  0  0  0  0
  8  9  1  0  0  0  0
  8 16  1  0  0  0  0
  9 14  1  0  0  0  0
  9 15  2  0  0  0  0
 11 14  1  0  0  0  0
 12 14  1  0  0  0  0
 13 14  1  0  0  0  0
  1 17  1  0  0  0  0
  2 18  1  0  0  0  0
  3 19  1  0  0  0  0
  4 20  1  0  0  0  0
 10 21  1  0  0  0  0
 10 22  1  0  0  0  0
 10 23  1  0  0  0  0
 11 24  1  0  0  0  0
 11 25  1  0  0  0  0
 11 26  1  0  0  0  0
 12 27  1  0  0  0  0
 12 28  1  0  0  0  0
 12 29  1  0  0  0  0
 13 30  1  0  0  0  0
 13 31  1  0  0  0  0
 13 32  1  0  0  0  0
M  END
> <id>
EN300-744865

> <smiles>
CC=1C=CC=2C=C(OC2C1)C(=O)C(C)(C)C

> <MDLNUMBER>
MFCD31455937

> <IUPAC Name>
2,2-dimethyl-1-(6-methyl-1-benzofuran-2-yl)propan-1-one

> <CAS>
2137822-97-8

> <URL>
https://www.enaminestore.com/catalog/EN300-744865

> <ROCS_ShapeQuery>
_x1140_x0812_0A_x1140_0A_x1097_0A_x0365_0A_x1097_0A_x0310_0A

> <ROCS_TanimotoCombo>
0.607 

> <ROCS_ShapeTanimoto>
0.219 

> <ROCS_ColorTanimoto>
0.388 

> <ROCS_RefTversky>
0.201 

> <ROCS_RefColorTversky>
0.464 

> <ROCS_RefTverskyCombo>
0.665 

> <ROCS_FitTversky>
1.688 

> <ROCS_FitColorTversky>
0.704 

> <ROCS_FitTverskyCombo>
2.393 

> <ROCS_ColorScore>
-3.640

> <ROCS_Overlap>
2060.525

> <ROCS_Rank>
476                 

$$$$
untitled-dbase-93726_2
  -OEChem-02092423213D

 29 30  0     0  0  0  0  0  0999 V2000
    6.0497   10.6873   27.1588 C   0  0  0  0  0  0  0  0  0  0  0  0
    6.0206   12.0779   27.0262 C   0  0  0  0  0  0  0  0  0  0  0  0
    6.8460    9.8959   26.3256 C   0  0  0  0  0  0  0  0  0  0  0  0
    8.4912   12.2132   24.1300 C   0  0  0  0  0  0  0  0  0  0  0  0
    7.5983   11.9511   25.2024 C   0  0  0  0  0  0  0  0  0  0  0  0
    6.7904   12.7275   26.0514 C   0  0  0  0  0  0  0  0  0  0  0  0
    7.5997   10.5697   25.3663 C   0  0  0  0  0  0  0  0  0  0  0  0
    8.9706   10.9917   23.7171 C   0  0  0  0  0  0  0  0  0  0  0  0
    9.8900   10.6410   22.6889 C   0  0  0  0  0  0  0  0  0  0  0  0
    6.7191   14.2175   25.9558 C   0  0  0  0  0  0  0  0  0  0  0  0
   12.1018    9.5964   22.0638 C   0  0  0  0  0  0  0  0  0  0  0  0
   10.0903    8.1170   22.3031 C   0  0  0  0  0  0  0  0  0  0  0  0
   10.7933    9.3755   22.8172 C   0  0  0  0  0  0  0  0  0  0  0  0
   10.0488   11.3117   21.6317 O   0  0  0  0  0  0  0  0  0  0  0  0
    8.4360    9.9883   24.4609 O   0  0  0  0  0  0  0  0  0  0  0  0
    5.4427   10.2108   27.9244 H   0  0  0  0  0  0  0  0  0  0  0  0
    5.3879   12.6576   27.6949 H   0  0  0  0  0  0  0  0  0  0  0  0
    6.8744    8.8171   26.4222 H   0  0  0  0  0  0  0  0  0  0  0  0
    8.7511   13.1759   23.7118 H   0  0  0  0  0  0  0  0  0  0  0  0
    7.4790   14.6749   26.5992 H   0  0  0  0  0  0  0  0  0  0  0  0
    6.8823   14.5556   24.9256 H   0  0  0  0  0  0  0  0  0  0  0  0
    5.7326   14.5862   26.2615 H   0  0  0  0  0  0  0  0  0  0  0  0
   11.9200    9.7698   20.9972 H   0  0  0  0  0  0  0  0  0  0  0  0
   12.7581    8.7251   22.1597 H   0  0  0  0  0  0  0  0  0  0  0  0
   12.6421   10.4682   22.4462 H   0  0  0  0  0  0  0  0  0  0  0  0
    9.8550    8.2128   21.2379 H   0  0  0  0  0  0  0  0  0  0  0  0
    9.1536    7.9288   22.8395 H   0  0  0  0  0  0  0  0  0  0  0  0
   10.7290    7.2362   22.4316 H   0  0  0  0  0  0  0  0  0  0  0  0
   10.9937    9.2041   23.8796 H   0  0  0  0  0  0  0  0  0  0  0  0
  1  2  1  0  0  0  0
  1  3  2  0  0  0  0
  2  6  2  0  0  0  0
  3  7  1  0  0  0  0
  4  5  1  0  0  0  0
  4  8  2  0  0  0  0
  5  6  1  0  0  0  0
  5  7  2  0  0  0  0
  6 10  1  0  0  0  0
  7 15  1  0  0  0  0
  8  9  1  0  0  0  0
  8 15  1  0  0  0  0
  9 13  1  0  0  0  0
  9 14  2  0  0  0  0
 11 13  1  0  0  0  0
 12 13  1  0  0  0  0
  1 16  1  0  0  0  0
  2 17  1  0  0  0  0
  3 18  1  0  0  0  0
  4 19  1  0  0  0  0
 10 20  1  0  0  0  0
 10 21  1  0  0  0  0
 10 22  1  0  0  0  0
 11 23  1  0  0  0  0
 11 24  1  0  0  0  0
 11 25  1  0  0  0  0
 12 26  1  0  0  0  0
 12 27  1  0  0  0  0
 12 28  1  0  0  0  0
 13 29  1  0  0  0  0
M  END
> <id>
EN300-744889

> <smiles>
CC(C)C(=O)C1=CC=2C(C)=CC=CC2O1

> <MDLNUMBER>
MFCD31455958

> <IUPAC Name>
2-methyl-1-(4-methyl-1-benzofuran-2-yl)propan-1-one

> <CAS>
2138130-67-1

> <URL>
https://www.enaminestore.com/catalog/EN300-744889

> <ROCS_ShapeQuery>
_x1140_x0812_0A_x1140_0A_x1097_0A_x0365_0A_x1097_0A_x0310_0A

> <ROCS_TanimotoCombo>
0.607 

> <ROCS_ShapeTanimoto>
0.239 

> <ROCS_ColorTanimoto>
0.368 

> <ROCS_RefTversky>
0.215 

> <ROCS_RefColorTversky>
0.446 

> <ROCS_RefTverskyCombo>
0.661 

> <ROCS_FitTversky>
1.874 

> <ROCS_FitColorTversky>
0.678 

> <ROCS_FitTverskyCombo>
2.551 

> <ROCS_ColorScore>
-3.502

> <ROCS_Overlap>
2204.043

> <ROCS_Rank>
477                 

$$$$
untitled-dbase-565373_1
  -OEChem-02092423213D

 30 30  0     0  0  0  0  0  0999 V2000
   11.0087    8.7904   22.5309 C   0  0  0  0  0  0  0  0  0  0  0  0
   10.2408    9.5425   23.0661 C   0  0  0  0  0  0  0  0  0  0  0  0
    8.4525   12.5955   24.1880 C   0  0  0  0  0  0  0  0  0  0  0  0
    7.5214   10.6118   25.1124 C   0  0  0  0  0  0  0  0  0  0  0  0
    9.3273   10.4378   23.7030 C   0  0  0  0  0  0  0  0  0  0  0  0
    9.3883   11.8103   23.5237 C   0  0  0  0  0  0  0  0  0  0  0  0
    7.4979   11.9926   24.9994 C   0  0  0  0  0  0  0  0  0  0  0  0
   10.5276   13.7671   22.4357 C   0  0  0  0  0  0  0  0  0  0  0  0
   12.7429   14.5712   23.5847 C   0  0  0  0  0  0  0  0  0  0  0  0
   13.9539   14.1824   21.4187 C   0  0  0  0  0  0  0  0  0  0  0  0
   12.4358   16.1681   21.6637 C   0  0  0  0  0  0  0  0  0  0  0  0
   12.6762   14.7134   22.0648 C   0  0  0  0  0  0  0  0  0  0  0  0
    8.4147    9.8160   24.4829 N   0  0  0  0  0  0  0  0  0  0  0  0
   10.3591   12.4213   22.6979 N   0  0  0  0  0  0  0  0  0  0  0  0
    9.8665   14.7036   22.8675 O   0  0  0  0  0  0  0  0  0  0  0  0
   11.5892   13.9231   21.5817 O   0  0  0  0  0  0  0  0  0  0  0  0
    6.3290   12.9288   25.8352 Cl  0  0  0  0  0  0  0  0  0  0  0  0
   11.6900    8.1237   22.0559 H   0  0  0  0  0  0  0  0  0  0  0  0
    8.4679   13.6769   24.0707 H   0  0  0  0  0  0  0  0  0  0  0  0
    6.8038   10.0819   25.7318 H   0  0  0  0  0  0  0  0  0  0  0  0
   11.8275   14.9513   24.0522 H   0  0  0  0  0  0  0  0  0  0  0  0
   12.8801   13.5277   23.8866 H   0  0  0  0  0  0  0  0  0  0  0  0
   13.5689   15.1621   23.9968 H   0  0  0  0  0  0  0  0  0  0  0  0
   13.9104   14.2824   20.3282 H   0  0  0  0  0  0  0  0  0  0  0  0
   14.0809   13.1136   21.6258 H   0  0  0  0  0  0  0  0  0  0  0  0
   14.8404   14.7133   21.7805 H   0  0  0  0  0  0  0  0  0  0  0  0
   12.3879   16.2704   20.5736 H   0  0  0  0  0  0  0  0  0  0  0  0
   11.5037   16.5548   22.0884 H   0  0  0  0  0  0  0  0  0  0  0  0
   13.2619   16.8061   21.9981 H   0  0  0  0  0  0  0  0  0  0  0  0
   11.0146   11.7925   22.2402 H   0  0  0  0  0  0  0  0  0  0  0  0
  1  2  3  0  0  0  0
  2  5  1  0  0  0  0
  3  6  1  0  0  0  0
  3  7  2  0  0  0  0
  4  7  1  0  0  0  0
  4 13  2  0  0  0  0
  5  6  2  0  0  0  0
  5 13  1  0  0  0  0
  6 14  1  0  0  0  0
  7 17  1  0  0  0  0
  8 14  1  0  0  0  0
  8 15  2  0  0  0  0
  8 16  1  0  0  0  0
  9 12  1  0  0  0  0
 10 12  1  0  0  0  0
 11 12  1  0  0  0  0
 12 16  1  0  0  0  0
  1 18  1  0  0  0  0
  3 19  1  0  0  0  0
  4 20  1  0  0  0  0
  9 21  1  0  0  0  0
  9 22  1  0  0  0  0
  9 23  1  0  0  0  0
 10 24  1  0  0  0  0
 10 25  1  0  0  0  0
 10 26  1  0  0  0  0
 11 27  1  0  0  0  0
 11 28  1  0  0  0  0
 11 29  1  0  0  0  0
 14 30  1  0  0  0  0
M  END
> <id>
EN300-37396812

> <smiles>
CC(C)(C)OC(=O)NC=1C=C(Cl)C=NC1C#C

> <IUPAC Name>
tert-butyl N-(5-chloro-2-ethynylpyridin-3-yl)carbamate

> <CAS>
2770500-42-8

> <URL>
https://www.enaminestore.com/catalog/EN300-37396812

> <ROCS_ShapeQuery>
_x1140_x0812_0A_x1140_0A_x1097_0A_x0365_0A_x1097_0A_x0310_0A

> <ROCS_TanimotoCombo>
0.607 

> <ROCS_ShapeTanimoto>
0.248 

> <ROCS_ColorTanimoto>
0.359 

> <ROCS_RefTversky>
0.223 

> <ROCS_RefColorTversky>
0.468 

> <ROCS_RefTverskyCombo>
0.691 

> <ROCS_FitTversky>
1.839 

> <ROCS_FitColorTversky>
0.606 

> <ROCS_FitTverskyCombo>
2.445 

> <ROCS_ColorScore>
-3.699

> <ROCS_Overlap>
2282.607

> <ROCS_Rank>
478                 

$$$$
untitled-dbase-388403_5
  -OEChem-02092423213D

 25 25  0     0  0  0  0  0  0999 V2000
    9.2882   10.2836   24.1014 C   0  0  0  0  0  0  0  0  0  0  0  0
    9.2545   11.6623   24.1084 C   0  0  0  0  0  0  0  0  0  0  0  0
    7.3800   10.5614   25.1460 C   0  0  0  0  0  0  0  0  0  0  0  0
   10.4831   12.4925   22.0763 C   0  0  0  0  0  0  0  0  0  0  0  0
   10.8252   14.3162   19.5383 C   0  0  0  0  0  0  0  0  0  0  0  0
    5.7259    8.9367   26.0681 C   0  0  0  0  0  0  0  0  0  0  0  0
   10.2469   12.6544   23.5592 C   0  0  0  0  0  0  0  0  0  0  0  0
   11.7506   13.3796   20.2854 C   0  0  0  0  0  0  0  0  0  0  0  0
    8.2144    9.6506   24.6963 N   0  0  0  0  0  0  0  0  0  0  0  0
    6.2149   10.2820   25.7887 N   0  0  0  0  0  0  0  0  0  0  0  0
    9.9265   11.6763   21.3543 O   0  0  0  0  0  0  0  0  0  0  0  0
   11.4172   13.4067   21.6770 O   0  0  0  0  0  0  0  0  0  0  0  0
    7.8238   12.1988   24.8873 S   0  0  0  0  0  0  0  0  0  0  0  0
   10.0809    9.6831   23.6751 H   0  0  0  0  0  0  0  0  0  0  0  0
    9.7823   14.0083   19.6534 H   0  0  0  0  0  0  0  0  0  0  0  0
   10.9339   15.3415   19.9070 H   0  0  0  0  0  0  0  0  0  0  0  0
   11.0728   14.3337   18.4718 H   0  0  0  0  0  0  0  0  0  0  0  0
    6.4430    8.1977   25.6813 H   0  0  0  0  0  0  0  0  0  0  0  0
    5.6144    8.8055   27.1545 H   0  0  0  0  0  0  0  0  0  0  0  0
    4.7511    8.7922   25.5793 H   0  0  0  0  0  0  0  0  0  0  0  0
    9.8865   13.6728   23.7473 H   0  0  0  0  0  0  0  0  0  0  0  0
   11.2042   12.5390   24.0811 H   0  0  0  0  0  0  0  0  0  0  0  0
   12.7920   13.6931   20.1663 H   0  0  0  0  0  0  0  0  0  0  0  0
   11.6402   12.3555   19.9164 H   0  0  0  0  0  0  0  0  0  0  0  0
    5.6175   11.0528   26.1096 H   0  0  0  0  0  0  0  0  0  0  0  0
  1  2  2  0  0  0  0
  1  9  1  0  0  0  0
  2  7  1  0  0  0  0
  2 13  1  0  0  0  0
  3  9  2  0  0  0  0
  3 10  1  0  0  0  0
  3 13  1  0  0  0  0
  4  7  1  0  0  0  0
  4 11  2  0  0  0  0
  4 12  1  0  0  0  0
  5  8  1  0  0  0  0
  6 10  1  0  0  0  0
  8 12  1  0  0  0  0
  1 14  1  0  0  0  0
  5 15  1  0  0  0  0
  5 16  1  0  0  0  0
  5 17  1  0  0  0  0
  6 18  1  0  0  0  0
  6 19  1  0  0  0  0
  6 20  1  0  0  0  0
  7 21  1  0  0  0  0
  7 22  1  0  0  0  0
  8 23  1  0  0  0  0
  8 24  1  0  0  0  0
 10 25  1  0  0  0  0
M  END
> <id>
EN300-249459

> <smiles>
CCOC(=O)CC1=CN=C(NC)S1

> <MDLNUMBER>
MFCD09222576

> <IUPAC Name>
ethyl 2-[2-(methylamino)-1,3-thiazol-5-yl]acetate

> <CAS>
948224-87-1

> <Purity>
95

> <URL>
https://www.enaminestore.com/catalog/EN300-249459

> <ROCS_ShapeQuery>
_x1140_x0812_0A_x1140_0A_x1097_0A_x0365_0A_x1097_0A_x0310_0A

> <ROCS_TanimotoCombo>
0.607 

> <ROCS_ShapeTanimoto>
0.192 

> <ROCS_ColorTanimoto>
0.414 

> <ROCS_RefTversky>
0.178 

> <ROCS_RefColorTversky>
0.451 

> <ROCS_RefTverskyCombo>
0.629 

> <ROCS_FitTversky>
1.739 

> <ROCS_FitColorTversky>
0.837 

> <ROCS_FitTverskyCombo>
2.576 

> <ROCS_ColorScore>
-3.516

> <ROCS_Overlap>
1821.893

> <ROCS_Rank>
479                 

$$$$
untitled-dbase-478069_1
  -OEChem-02092423213D

 22 22  0     0  0  0  0  0  0999 V2000
    8.4495   12.5163   24.2095 C   0  0  0  0  0  0  0  0  0  0  0  0
    7.4684   10.7400   25.4500 C   0  0  0  0  0  0  0  0  0  0  0  0
    9.2246   11.5781   23.5370 C   0  0  0  0  0  0  0  0  0  0  0  0
    7.5522   12.0975   25.1856 C   0  0  0  0  0  0  0  0  0  0  0  0
    9.0661   10.2438   23.8753 C   0  0  0  0  0  0  0  0  0  0  0  0
   10.1619   12.0264   22.5164 C   0  0  0  0  0  0  0  0  0  0  0  0
    6.7086   13.0761   25.9225 C   0  0  0  0  0  0  0  0  0  0  0  0
   12.0726   13.3973   22.1240 C   0  0  0  0  0  0  0  0  0  0  0  0
    8.2049    9.7990   24.8177 N   0  0  0  0  0  0  0  0  0  0  0  0
    9.8533    9.2811   23.1947 N   0  0  0  0  0  0  0  0  0  0  0  0
   10.1223   11.6772   21.3304 O   0  0  0  0  0  0  0  0  0  0  0  0
   11.0928   12.8844   23.0332 O   0  0  0  0  0  0  0  0  0  0  0  0
    8.5418   13.5744   23.9755 H   0  0  0  0  0  0  0  0  0  0  0  0
    6.7854   10.3544   26.2005 H   0  0  0  0  0  0  0  0  0  0  0  0
    5.7563   13.2358   25.3992 H   0  0  0  0  0  0  0  0  0  0  0  0
    6.4877   12.7296   26.9420 H   0  0  0  0  0  0  0  0  0  0  0  0
    7.2137   14.0473   26.0233 H   0  0  0  0  0  0  0  0  0  0  0  0
   12.7520   14.0658   22.6583 H   0  0  0  0  0  0  0  0  0  0  0  0
   11.5734   13.9377   21.3157 H   0  0  0  0  0  0  0  0  0  0  0  0
   12.6403   12.5629   21.7055 H   0  0  0  0  0  0  0  0  0  0  0  0
   10.4593    9.5851   22.4645 H   0  0  0  0  0  0  0  0  0  0  0  0
    9.7128    8.3156   23.3973 H   0  0  0  0  0  0  0  0  0  0  0  0
  1  3  1  0  0  0  0
  1  4  2  0  0  0  0
  2  4  1  0  0  0  0
  2  9  2  0  0  0  0
  3  5  2  0  0  0  0
  3  6  1  0  0  0  0
  4  7  1  0  0  0  0
  5  9  1  0  0  0  0
  5 10  1  0  0  0  0
  6 11  2  0  0  0  0
  6 12  1  0  0  0  0
  8 12  1  0  0  0  0
  1 13  1  0  0  0  0
  2 14  1  0  0  0  0
  7 15  1  0  0  0  0
  7 16  1  0  0  0  0
  7 17  1  0  0  0  0
  8 18  1  0  0  0  0
  8 19  1  0  0  0  0
  8 20  1  0  0  0  0
 10 21  1  0  0  0  0
 10 22  1  0  0  0  0
M  END
> <id>
EN300-3016919

> <smiles>
COC(=O)C=1C=C(C)C=NC1N

> <MDLNUMBER>
MFCD07375375

> <IUPAC Name>
methyl 2-amino-5-methylpyridine-3-carboxylate

> <CAS>
886371-10-4

> <Purity>
95

> <URL>
https://www.enaminestore.com/catalog/EN300-3016919

> <ROCS_ShapeQuery>
_x1140_x0812_0A_x1140_0A_x1097_0A_x0365_0A_x1097_0A_x0310_0A

> <ROCS_TanimotoCombo>
0.607 

> <ROCS_ShapeTanimoto>
0.234 

> <ROCS_ColorTanimoto>
0.373 

> <ROCS_RefTversky>
0.209 

> <ROCS_RefColorTversky>
0.450 

> <ROCS_RefTverskyCombo>
0.659 

> <ROCS_FitTversky>
2.057 

> <ROCS_FitColorTversky>
0.685 

> <ROCS_FitTverskyCombo>
2.742 

> <ROCS_ColorScore>
-3.533

> <ROCS_Overlap>
2139.186

> <ROCS_Rank>
480                 

$$$$
untitled-dbase-318425_8
  -OEChem-02092423213D

 23 23  0     0  0  0  0  0  0999 V2000
    8.8595   11.9860   24.8298 C   0  0  0  0  0  0  0  0  0  0  0  0
    9.1113   11.5329   23.5578 C   0  0  0  0  0  0  0  0  0  0  0  0
    8.2142   10.9086   25.4659 C   0  0  0  0  0  0  0  0  0  0  0  0
    9.7501   12.2147   22.4773 C   0  0  0  0  0  0  0  0  0  0  0  0
    7.7204   10.8511   26.8520 C   0  0  0  0  0  0  0  0  0  0  0  0
   11.1139    8.9254   22.6159 C   0  0  0  0  0  0  0  0  0  0  0  0
    9.7367    8.2926   22.5038 C   0  0  0  0  0  0  0  0  0  0  0  0
    8.6465    9.3534   22.3692 C   0  0  0  0  0  0  0  0  0  0  0  0
    8.0651    9.8508   24.6641 N   0  0  0  0  0  0  0  0  0  0  0  0
    8.6203   10.2614   23.5111 N   0  0  0  0  0  0  0  0  0  0  0  0
    9.9359   11.7163   21.3478 O   0  0  0  0  0  0  0  0  0  0  0  0
    9.1070   12.9556   25.2382 H   0  0  0  0  0  0  0  0  0  0  0  0
   10.1122   13.2656   22.6440 H   0  0  0  0  0  0  0  0  0  0  0  0
    6.6750   11.1983   26.9197 H   0  0  0  0  0  0  0  0  0  0  0  0
    7.7580    9.8277   27.2662 H   0  0  0  0  0  0  0  0  0  0  0  0
    8.3229   11.4755   27.5358 H   0  0  0  0  0  0  0  0  0  0  0  0
   11.1651    9.6035   23.4738 H   0  0  0  0  0  0  0  0  0  0  0  0
   11.3413    9.5014   21.7134 H   0  0  0  0  0  0  0  0  0  0  0  0
   11.8882    8.1608   22.7351 H   0  0  0  0  0  0  0  0  0  0  0  0
    9.7174    7.6207   21.6373 H   0  0  0  0  0  0  0  0  0  0  0  0
    9.5510    7.6716   23.3884 H   0  0  0  0  0  0  0  0  0  0  0  0
    7.6555    8.8909   22.2887 H   0  0  0  0  0  0  0  0  0  0  0  0
    8.7949    9.9579   21.4665 H   0  0  0  0  0  0  0  0  0  0  0  0
  1  2  2  0  0  0  0
  1  3  1  0  0  0  0
  2  4  1  0  0  0  0
  2 10  1  0  0  0  0
  3  5  1  0  0  0  0
  3  9  2  0  0  0  0
  4 11  2  0  0  0  0
  6  7  1  0  0  0  0
  7  8  1  0  0  0  0
  8 10  1  0  0  0  0
  9 10  1  0  0  0  0
  1 12  1  0  0  0  0
  4 13  1  0  0  0  0
  5 14  1  0  0  0  0
  5 15  1  0  0  0  0
  5 16  1  0  0  0  0
  6 17  1  0  0  0  0
  6 18  1  0  0  0  0
  6 19  1  0  0  0  0
  7 20  1  0  0  0  0
  7 21  1  0  0  0  0
  8 22  1  0  0  0  0
  8 23  1  0  0  0  0
M  END
> <id>
EN300-233145

> <smiles>
CCCN1N=C(C)C=C1C=O

> <MDLNUMBER>
MFCD20491911

> <IUPAC Name>
3-methyl-1-propyl-1H-pyrazole-5-carbaldehyde

> <CAS>
1351386-04-3

> <Purity>
95

> <URL>
https://www.enaminestore.com/catalog/EN300-233145

> <ROCS_ShapeQuery>
_x1140_x0812_0A_x1140_0A_x1097_0A_x0365_0A_x1097_0A_x0310_0A

> <ROCS_TanimotoCombo>
0.607 

> <ROCS_ShapeTanimoto>
0.185 

> <ROCS_ColorTanimoto>
0.422 

> <ROCS_RefTversky>
0.171 

> <ROCS_RefColorTversky>
0.456 

> <ROCS_RefTverskyCombo>
0.627 

> <ROCS_FitTversky>
1.778 

> <ROCS_FitColorTversky>
0.847 

> <ROCS_FitTverskyCombo>
2.626 

> <ROCS_ColorScore>
-3.559

> <ROCS_Overlap>
1753.271

> <ROCS_Rank>
481                 

$$$$
untitled-dbase-242212_2
  -OEChem-02092423213D

 29 30  0     1  0  0  0  0  0999 V2000
    8.2686   10.3501   24.5570 C   0  0  0  0  0  0  0  0  0  0  0  0
    9.5399   10.7498   22.3955 C   0  0  0  0  0  0  0  0  0  0  0  0
    7.7067   11.2811   25.6305 C   0  0  0  0  0  0  0  0  0  0  0  0
    9.4163   13.1891   25.0483 C   0  0  0  0  0  0  0  0  0  0  0  0
    8.0079   12.6785   25.1796 C   0  0  1  0  0  0  0  0  0  0  0  0
    8.7273   12.5613   23.8701 C   0  0  2  0  0  0  0  0  0  0  0  0
   11.8546    9.7183   23.0604 C   0  0  0  0  0  0  0  0  0  0  0  0
   10.8342    7.4299   22.8829 C   0  0  0  0  0  0  0  0  0  0  0  0
   11.3690    8.7259   20.7990 C   0  0  0  0  0  0  0  0  0  0  0  0
   10.9167    8.8198   22.2555 C   0  0  0  0  0  0  0  0  0  0  0  0
    8.8624   11.1603   23.5518 N   0  0  0  0  0  0  0  0  0  0  0  0
    8.1933    9.1306   24.6040 O   0  0  0  0  0  0  0  0  0  0  0  0
   10.0262   11.5231   21.5729 O   0  0  0  0  0  0  0  0  0  0  0  0
    9.6023    9.3870   22.2891 O   0  0  0  0  0  0  0  0  0  0  0  0
    6.6271   11.1198   25.7035 H   0  0  0  0  0  0  0  0  0  0  0  0
    8.1833   11.0623   26.5902 H   0  0  0  0  0  0  0  0  0  0  0  0
    9.5628   14.2623   25.0306 H   0  0  0  0  0  0  0  0  0  0  0  0
   10.2126   12.6394   25.5350 H   0  0  0  0  0  0  0  0  0  0  0  0
    7.1929   13.3788   25.2795 H   0  0  0  0  0  0  0  0  0  0  0  0
    8.3912   13.1919   23.0565 H   0  0  0  0  0  0  0  0  0  0  0  0
   11.9165   10.7169   22.6133 H   0  0  0  0  0  0  0  0  0  0  0  0
   11.5217    9.8220   24.0983 H   0  0  0  0  0  0  0  0  0  0  0  0
   12.8744    9.3167   23.0625 H   0  0  0  0  0  0  0  0  0  0  0  0
   10.1623    6.7819   22.3086 H   0  0  0  0  0  0  0  0  0  0  0  0
   10.4202    7.4831   23.8963 H   0  0  0  0  0  0  0  0  0  0  0  0
   11.8173    6.9510   22.9346 H   0  0  0  0  0  0  0  0  0  0  0  0
   10.6964    8.0815   20.2214 H   0  0  0  0  0  0  0  0  0  0  0  0
   11.3985    9.7107   20.3216 H   0  0  0  0  0  0  0  0  0  0  0  0
   12.3654    8.2748   20.7287 H   0  0  0  0  0  0  0  0  0  0  0  0
  1  3  1  0  0  0  0
  1 11  1  0  0  0  0
  1 12  2  0  0  0  0
  2 11  1  0  0  0  0
  2 13  2  0  0  0  0
  2 14  1  0  0  0  0
  3  5  1  0  0  0  0
  4  5  1  6  0  0  0
  4  6  1  6  0  0  0
  5  6  1  0  0  0  0
  6 11  1  0  0  0  0
  7 10  1  0  0  0  0
  8 10  1  0  0  0  0
  9 10  1  0  0  0  0
 10 14  1  0  0  0  0
  3 15  1  0  0  0  0
  3 16  1  0  0  0  0
  4 17  1  0  0  0  0
  4 18  1  0  0  0  0
  5 19  1  0  0  0  0
  6 20  1  0  0  0  0
  7 21  1  0  0  0  0
  7 22  1  0  0  0  0
  7 23  1  0  0  0  0
  8 24  1  0  0  0  0
  8 25  1  0  0  0  0
  8 26  1  0  0  0  0
  9 27  1  0  0  0  0
  9 28  1  0  0  0  0
  9 29  1  0  0  0  0
M  END
> <id>
EN300-7499134

> <smiles>
CC(C)(C)OC(=O)N1[C@@H]2C[C@@H]2CC1=O |&1:8,10,r|

> <MDLNUMBER>
MFCD32268461

> <IUPAC Name>
rac-tert-butyl (1R,5R)-3-oxo-2-azabicyclo[3.1.0]hexane-2-carboxylate

> <CAS>
1310363-30-4

> <Purity>
95

> <URL>
https://www.enaminestore.com/catalog/EN300-7499134

> <ROCS_ShapeQuery>
_x1140_x0812_0A_x1140_0A_x1097_0A_x0365_0A_x1097_0A_x0310_0A

> <ROCS_TanimotoCombo>
0.607 

> <ROCS_ShapeTanimoto>
0.208 

> <ROCS_ColorTanimoto>
0.399 

> <ROCS_RefTversky>
0.191 

> <ROCS_RefColorTversky>
0.531 

> <ROCS_RefTverskyCombo>
0.722 

> <ROCS_FitTversky>
1.735 

> <ROCS_FitColorTversky>
0.615 

> <ROCS_FitTverskyCombo>
2.351 

> <ROCS_ColorScore>
-4.216

> <ROCS_Overlap>
1959.915

> <ROCS_Rank>
482                 

$$$$
untitled-dbase-485220_9
  -OEChem-02092423213D

 26 27  0     0  0  0  0  0  0999 V2000
    8.7891   11.3340   23.3751 C   0  0  0  0  0  0  0  0  0  0  0  0
    8.9794   10.0131   23.7231 C   0  0  0  0  0  0  0  0  0  0  0  0
    7.2703   10.4542   25.0248 C   0  0  0  0  0  0  0  0  0  0  0  0
    9.4950   12.1581   22.4513 C   0  0  0  0  0  0  0  0  0  0  0  0
    4.6420   11.3542   27.6615 C   0  0  0  0  0  0  0  0  0  0  0  0
    5.7128   12.3677   27.3813 C   0  0  0  0  0  0  0  0  0  0  0  0
    5.3454   11.3546   26.3324 C   0  0  0  0  0  0  0  0  0  0  0  0
   10.1665   14.4198   21.9615 C   0  0  0  0  0  0  0  0  0  0  0  0
   10.0173    9.1108   23.1828 C   0  0  0  0  0  0  0  0  0  0  0  0
    8.1096    9.5070   24.6693 N   0  0  0  0  0  0  0  0  0  0  0  0
    6.2618   10.2916   25.9529 N   0  0  0  0  0  0  0  0  0  0  0  0
   10.0717   11.7590   21.4106 O   0  0  0  0  0  0  0  0  0  0  0  0
    9.4893   13.4891   22.8130 O   0  0  0  0  0  0  0  0  0  0  0  0
   10.8393    9.6943   22.2527 F   0  0  0  0  0  0  0  0  0  0  0  0
   10.8726    8.6093   24.1304 F   0  0  0  0  0  0  0  0  0  0  0  0
    9.4994    8.0085   22.5549 F   0  0  0  0  0  0  0  0  0  0  0  0
    7.4692   11.9780   24.2609 S   0  0  0  0  0  0  0  0  0  0  0  0
    4.8696   10.5634   28.3657 H   0  0  0  0  0  0  0  0  0  0  0  0
    3.6155   11.6986   27.6888 H   0  0  0  0  0  0  0  0  0  0  0  0
    5.4071   13.3940   27.2201 H   0  0  0  0  0  0  0  0  0  0  0  0
    6.6585   12.2556   27.8971 H   0  0  0  0  0  0  0  0  0  0  0  0
    4.7795   11.7165   25.4809 H   0  0  0  0  0  0  0  0  0  0  0  0
   10.0753   15.4268   22.3759 H   0  0  0  0  0  0  0  0  0  0  0  0
    9.7283   14.3850   20.9609 H   0  0  0  0  0  0  0  0  0  0  0  0
   11.2226   14.1460   21.9044 H   0  0  0  0  0  0  0  0  0  0  0  0
    6.1458    9.3935   26.3982 H   0  0  0  0  0  0  0  0  0  0  0  0
  1  2  2  0  0  0  0
  1  4  1  0  0  0  0
  1 17  1  0  0  0  0
  2  9  1  0  0  0  0
  2 10  1  0  0  0  0
  3 10  2  0  0  0  0
  3 11  1  0  0  0  0
  3 17  1  0  0  0  0
  4 12  2  0  0  0  0
  4 13  1  0  0  0  0
  5  6  1  0  0  0  0
  5  7  1  0  0  0  0
  6  7  1  0  0  0  0
  7 11  1  0  0  0  0
  8 13  1  0  0  0  0
  9 14  1  0  0  0  0
  9 15  1  0  0  0  0
  9 16  1  0  0  0  0
  5 18  1  0  0  0  0
  5 19  1  0  0  0  0
  6 20  1  0  0  0  0
  6 21  1  0  0  0  0
  7 22  1  0  0  0  0
  8 23  1  0  0  0  0
  8 24  1  0  0  0  0
  8 25  1  0  0  0  0
 11 26  1  0  0  0  0
M  END
> <id>
EN300-27782354

> <smiles>
COC(=O)C=1SC(NC2CC2)=NC1C(F)(F)F

> <IUPAC Name>
methyl 2-(cyclopropylamino)-4-(trifluoromethyl)-1,3-thiazole-5-carboxylate

> <CAS>
2639445-01-3

> <URL>
https://www.enaminestore.com/catalog/EN300-27782354

> <ROCS_ShapeQuery>
_x1140_x0812_0A_x1140_0A_x1097_0A_x0365_0A_x1097_0A_x0310_0A

> <ROCS_TanimotoCombo>
0.607 

> <ROCS_ShapeTanimoto>
0.249 

> <ROCS_ColorTanimoto>
0.358 

> <ROCS_RefTversky>
0.223 

> <ROCS_RefColorTversky>
0.406 

> <ROCS_RefTverskyCombo>
0.629 

> <ROCS_FitTversky>
1.833 

> <ROCS_FitColorTversky>
0.753 

> <ROCS_FitTverskyCombo>
2.587 

> <ROCS_ColorScore>
-3.164

> <ROCS_Overlap>
2291.416

> <ROCS_Rank>
483                 

$$$$
untitled-dbase-408006_8
  -OEChem-02092423213D

 28 28  0     0  0  0  0  0  0999 V2000
   11.6634   15.0424   23.3417 C   0  0  0  0  0  0  0  0  0  0  0  0
    8.2882   12.2663   25.3330 C   0  0  0  0  0  0  0  0  0  0  0  0
    9.0242   12.4049   24.1816 C   0  0  0  0  0  0  0  0  0  0  0  0
    9.0783   11.1066   23.6401 C   0  0  0  0  0  0  0  0  0  0  0  0
    9.7288   10.6837   22.4317 C   0  0  0  0  0  0  0  0  0  0  0  0
   12.3193    9.1084   21.4818 C   0  0  0  0  0  0  0  0  0  0  0  0
    7.1855   10.3128   26.4500 C   0  0  0  0  0  0  0  0  0  0  0  0
   11.1436   13.7626   23.8458 C   0  0  0  0  0  0  0  0  0  0  0  0
    9.6174   13.6419   23.6461 C   0  0  0  0  0  0  0  0  0  0  0  0
   10.8340    8.8435   21.3569 C   0  0  0  0  0  0  0  0  0  0  0  0
   12.0742   16.0527   22.9459 N   0  0  0  0  0  0  0  0  0  0  0  0
    8.4286   10.2092   24.3862 N   0  0  0  0  0  0  0  0  0  0  0  0
    7.9594   10.9448   25.4084 N   0  0  0  0  0  0  0  0  0  0  0  0
    9.8936   11.3938   21.4180 O   0  0  0  0  0  0  0  0  0  0  0  0
   10.1663    9.3820   22.5031 O   0  0  0  0  0  0  0  0  0  0  0  0
    7.9783   12.9777   26.0864 H   0  0  0  0  0  0  0  0  0  0  0  0
   12.5214   10.1820   21.5309 H   0  0  0  0  0  0  0  0  0  0  0  0
   12.7222    8.6313   22.3811 H   0  0  0  0  0  0  0  0  0  0  0  0
   12.8596    8.6860   20.6281 H   0  0  0  0  0  0  0  0  0  0  0  0
    6.1326   10.3516   26.1585 H   0  0  0  0  0  0  0  0  0  0  0  0
    7.5117    9.2757   26.5676 H   0  0  0  0  0  0  0  0  0  0  0  0
    7.3427   10.8466   27.3914 H   0  0  0  0  0  0  0  0  0  0  0  0
   11.6506   12.9454   23.3189 H   0  0  0  0  0  0  0  0  0  0  0  0
   11.3914   13.6564   24.9084 H   0  0  0  0  0  0  0  0  0  0  0  0
    9.4231   13.7162   22.5574 H   0  0  0  0  0  0  0  0  0  0  0  0
    9.1349   14.5441   24.0739 H   0  0  0  0  0  0  0  0  0  0  0  0
   10.6388    7.7681   21.3082 H   0  0  0  0  0  0  0  0  0  0  0  0
   10.4329    9.3216   20.4583 H   0  0  0  0  0  0  0  0  0  0  0  0
  1  8  1  0  0  0  0
  1 11  3  0  0  0  0
  2  3  2  0  0  0  0
  2 13  1  0  0  0  0
  3  4  1  0  0  0  0
  3  9  1  0  0  0  0
  4  5  1  0  0  0  0
  4 12  2  0  0  0  0
  5 14  2  0  0  0  0
  5 15  1  0  0  0  0
  6 10  1  0  0  0  0
  7 13  1  0  0  0  0
  8  9  1  0  0  0  0
 10 15  1  0  0  0  0
 12 13  1  0  0  0  0
  2 16  1  0  0  0  0
  6 17  1  0  0  0  0
  6 18  1  0  0  0  0
  6 19  1  0  0  0  0
  7 20  1  0  0  0  0
  7 21  1  0  0  0  0
  7 22  1  0  0  0  0
  8 23  1  0  0  0  0
  8 24  1  0  0  0  0
  9 25  1  0  0  0  0
  9 26  1  0  0  0  0
 10 27  1  0  0  0  0
 10 28  1  0  0  0  0
M  END
> <id>
EN300-1785482

> <smiles>
CCOC(=O)C1=NN(C)C=C1CCC#N

> <IUPAC Name>
ethyl 4-(2-cyanoethyl)-1-methyl-1H-pyrazole-3-carboxylate

> <CAS>
2229340-69-4

> <URL>
https://www.enaminestore.com/catalog/EN300-1785482

> <ROCS_ShapeQuery>
_x1140_x0812_0A_x1140_0A_x1097_0A_x0365_0A_x1097_0A_x0310_0A

> <ROCS_TanimotoCombo>
0.607 

> <ROCS_ShapeTanimoto>
0.216 

> <ROCS_ColorTanimoto>
0.391 

> <ROCS_RefTversky>
0.198 

> <ROCS_RefColorTversky>
0.432 

> <ROCS_RefTverskyCombo>
0.630 

> <ROCS_FitTversky>
1.753 

> <ROCS_FitColorTversky>
0.803 

> <ROCS_FitTverskyCombo>
2.556 

> <ROCS_ColorScore>
-3.372

> <ROCS_Overlap>
2025.877

> <ROCS_Rank>
484                 

$$$$
untitled-dbase-90223_3
  -OEChem-02092423213D

 32 33  0     0  0  0  0  0  0999 V2000
    6.2348   10.7384   27.2024 C   0  0  0  0  0  0  0  0  0  0  0  0
    6.6929   10.0004   26.1069 C   0  0  0  0  0  0  0  0  0  0  0  0
    7.7376   12.5841   26.6809 C   0  0  0  0  0  0  0  0  0  0  0  0
    9.1725   12.0808   24.5509 C   0  0  0  0  0  0  0  0  0  0  0  0
    8.2129   11.8598   25.5737 C   0  0  0  0  0  0  0  0  0  0  0  0
    6.7462   12.0072   27.4864 C   0  0  0  0  0  0  0  0  0  0  0  0
    7.6784   10.5998   25.3247 C   0  0  0  0  0  0  0  0  0  0  0  0
    9.1593   10.9572   23.7573 C   0  0  0  0  0  0  0  0  0  0  0  0
    9.9265   10.6092   22.5619 C   0  0  0  0  0  0  0  0  0  0  0  0
    6.2303   12.7626   28.6666 C   0  0  0  0  0  0  0  0  0  0  0  0
   10.8247    8.5786   23.8947 C   0  0  0  0  0  0  0  0  0  0  0  0
   10.4185    8.4293   21.4142 C   0  0  0  0  0  0  0  0  0  0  0  0
   12.2845    9.8246   22.3203 C   0  0  0  0  0  0  0  0  0  0  0  0
   10.8354    9.3525   22.5670 C   0  0  0  0  0  0  0  0  0  0  0  0
    9.8583   11.3098   21.5490 O   0  0  0  0  0  0  0  0  0  0  0  0
    8.2565   10.0527   24.2184 O   0  0  0  0  0  0  0  0  0  0  0  0
    5.4657   10.3078   27.8401 H   0  0  0  0  0  0  0  0  0  0  0  0
    6.3014    9.0158   25.8803 H   0  0  0  0  0  0  0  0  0  0  0  0
    8.1313   13.5714   26.9056 H   0  0  0  0  0  0  0  0  0  0  0  0
    9.7953   12.9539   24.4131 H   0  0  0  0  0  0  0  0  0  0  0  0
    6.8261   12.5299   29.5569 H   0  0  0  0  0  0  0  0  0  0  0  0
    6.2699   13.8452   28.4929 H   0  0  0  0  0  0  0  0  0  0  0  0
    5.1824   12.5106   28.8717 H   0  0  0  0  0  0  0  0  0  0  0  0
   11.4749    7.6990   23.8659 H   0  0  0  0  0  0  0  0  0  0  0  0
   11.1829    9.2058   24.7195 H   0  0  0  0  0  0  0  0  0  0  0  0
    9.8140    8.2403   24.1500 H   0  0  0  0  0  0  0  0  0  0  0  0
   11.0334    7.5252   21.3763 H   0  0  0  0  0  0  0  0  0  0  0  0
   10.5159    8.9349   20.4468 H   0  0  0  0  0  0  0  0  0  0  0  0
    9.3763    8.1068   21.5206 H   0  0  0  0  0  0  0  0  0  0  0  0
   12.9778    8.9752   22.3130 H   0  0  0  0  0  0  0  0  0  0  0  0
   12.3776   10.3448   21.3602 H   0  0  0  0  0  0  0  0  0  0  0  0
   12.6229   10.5162   23.1006 H   0  0  0  0  0  0  0  0  0  0  0  0
  1  2  2  0  0  0  0
  1  6  1  0  0  0  0
  2  7  1  0  0  0  0
  3  5  1  0  0  0  0
  3  6  2  0  0  0  0
  4  5  1  0  0  0  0
  4  8  2  0  0  0  0
  5  7  2  0  0  0  0
  6 10  1  0  0  0  0
  7 16  1  0  0  0  0
  8  9  1  0  0  0  0
  8 16  1  0  0  0  0
  9 14  1  0  0  0  0
  9 15  2  0  0  0  0
 11 14  1  0  0  0  0
 12 14  1  0  0  0  0
 13 14  1  0  0  0  0
  1 17  1  0  0  0  0
  2 18  1  0  0  0  0
  3 19  1  0  0  0  0
  4 20  1  0  0  0  0
 10 21  1  0  0  0  0
 10 22  1  0  0  0  0
 10 23  1  0  0  0  0
 11 24  1  0  0  0  0
 11 25  1  0  0  0  0
 11 26  1  0  0  0  0
 12 27  1  0  0  0  0
 12 28  1  0  0  0  0
 12 29  1  0  0  0  0
 13 30  1  0  0  0  0
 13 31  1  0  0  0  0
 13 32  1  0  0  0  0
M  END
> <id>
EN300-744827

> <smiles>
CC=1C=CC=2OC(=CC2C1)C(=O)C(C)(C)C

> <MDLNUMBER>
MFCD18331229

> <IUPAC Name>
2,2-dimethyl-1-(5-methyl-1-benzofuran-2-yl)propan-1-one

> <CAS>
1342557-39-4

> <URL>
https://www.enaminestore.com/catalog/EN300-744827

> <ROCS_ShapeQuery>
_x1140_x0812_0A_x1140_0A_x1097_0A_x0365_0A_x1097_0A_x0310_0A

> <ROCS_TanimotoCombo>
0.607 

> <ROCS_ShapeTanimoto>
0.219 

> <ROCS_ColorTanimoto>
0.388 

> <ROCS_RefTversky>
0.201 

> <ROCS_RefColorTversky>
0.464 

> <ROCS_RefTverskyCombo>
0.664 

> <ROCS_FitTversky>
1.687 

> <ROCS_FitColorTversky>
0.704 

> <ROCS_FitTverskyCombo>
2.391 

> <ROCS_ColorScore>
-3.640

> <ROCS_Overlap>
2058.365

> <ROCS_Rank>
485                 

$$$$
untitled-dbase-486344_2
  -OEChem-02092423213D

 26 27  0     0  0  0  0  0  0999 V2000
    6.0197   12.0793   27.0250 C   0  0  0  0  0  0  0  0  0  0  0  0
    6.0481   10.6886   27.1570 C   0  0  0  0  0  0  0  0  0  0  0  0
    8.4922   12.2150   24.1304 C   0  0  0  0  0  0  0  0  0  0  0  0
    7.5985   11.9527   25.2021 C   0  0  0  0  0  0  0  0  0  0  0  0
    7.5991   10.5712   25.3654 C   0  0  0  0  0  0  0  0  0  0  0  0
    6.7903   12.7290   26.0510 C   0  0  0  0  0  0  0  0  0  0  0  0
    6.8446    9.8973   26.3239 C   0  0  0  0  0  0  0  0  0  0  0  0
    8.9713   10.9934   23.7172 C   0  0  0  0  0  0  0  0  0  0  0  0
    9.8902   10.6417   22.6890 C   0  0  0  0  0  0  0  0  0  0  0  0
   12.1013    9.5954   22.0639 C   0  0  0  0  0  0  0  0  0  0  0  0
   10.0889    8.1174   22.3042 C   0  0  0  0  0  0  0  0  0  0  0  0
   10.7928    9.3757   22.8177 C   0  0  0  0  0  0  0  0  0  0  0  0
   10.0493   11.3119   21.6315 O   0  0  0  0  0  0  0  0  0  0  0  0
    8.4358    9.9899   24.4602 O   0  0  0  0  0  0  0  0  0  0  0  0
    6.8000   14.4179   25.8373 Cl  0  0  0  0  0  0  0  0  0  0  0  0
    6.8820    8.1924   26.4840 Cl  0  0  0  0  0  0  0  0  0  0  0  0
    5.3863   12.6591   27.6927 H   0  0  0  0  0  0  0  0  0  0  0  0
    5.4348   10.2253   27.9271 H   0  0  0  0  0  0  0  0  0  0  0  0
    8.7555   13.1757   23.7095 H   0  0  0  0  0  0  0  0  0  0  0  0
   11.9194    9.7685   20.9972 H   0  0  0  0  0  0  0  0  0  0  0  0
   12.7570    8.7237   22.1600 H   0  0  0  0  0  0  0  0  0  0  0  0
   12.6422   10.4670   22.4459 H   0  0  0  0  0  0  0  0  0  0  0  0
    9.8534    8.2129   21.2390 H   0  0  0  0  0  0  0  0  0  0  0  0
    9.1521    7.9301   22.8409 H   0  0  0  0  0  0  0  0  0  0  0  0
   10.7270    7.2363   22.4330 H   0  0  0  0  0  0  0  0  0  0  0  0
   10.9933    9.2046   23.8801 H   0  0  0  0  0  0  0  0  0  0  0  0
  1  2  1  0  0  0  0
  1  6  2  0  0  0  0
  2  7  2  0  0  0  0
  3  4  1  0  0  0  0
  3  8  2  0  0  0  0
  4  5  2  0  0  0  0
  4  6  1  0  0  0  0
  5  7  1  0  0  0  0
  5 14  1  0  0  0  0
  6 15  1  0  0  0  0
  7 16  1  0  0  0  0
  8  9  1  0  0  0  0
  8 14  1  0  0  0  0
  9 12  1  0  0  0  0
  9 13  2  0  0  0  0
 10 12  1  0  0  0  0
 11 12  1  0  0  0  0
  1 17  1  0  0  0  0
  2 18  1  0  0  0  0
  3 19  1  0  0  0  0
 10 20  1  0  0  0  0
 10 21  1  0  0  0  0
 10 22  1  0  0  0  0
 11 23  1  0  0  0  0
 11 24  1  0  0  0  0
 11 25  1  0  0  0  0
 12 26  1  0  0  0  0
M  END
> <id>
EN300-744912

> <smiles>
CC(C)C(=O)C1=CC=2C(Cl)=CC=C(Cl)C2O1

> <MDLNUMBER>
MFCD21233563

> <IUPAC Name>
1-(4,7-dichloro-1-benzofuran-2-yl)-2-methylpropan-1-one

> <CAS>
1489002-75-6

> <URL>
https://www.enaminestore.com/catalog/EN300-744912

> <ROCS_ShapeQuery>
_x1140_x0812_0A_x1140_0A_x1097_0A_x0365_0A_x1097_0A_x0310_0A

> <ROCS_TanimotoCombo>
0.607 

> <ROCS_ShapeTanimoto>
0.239 

> <ROCS_ColorTanimoto>
0.368 

> <ROCS_RefTversky>
0.215 

> <ROCS_RefColorTversky>
0.446 

> <ROCS_RefTverskyCombo>
0.661 

> <ROCS_FitTversky>
1.832 

> <ROCS_FitColorTversky>
0.678 

> <ROCS_FitTverskyCombo>
2.510 

> <ROCS_ColorScore>
-3.502

> <ROCS_Overlap>
2208.344

> <ROCS_Rank>
486                 

$$$$
untitled-dbase-508241_5
  -OEChem-02092423213D

 32 33  0     0  0  0  0  0  0999 V2000
    7.0081    9.5769   26.6749 C   0  0  0  0  0  0  0  0  0  0  0  0
    7.7044   11.5148   25.4826 C   0  0  0  0  0  0  0  0  0  0  0  0
    7.0648   10.9640   26.5773 C   0  0  0  0  0  0  0  0  0  0  0  0
    8.2627   10.6765   24.5277 C   0  0  0  0  0  0  0  0  0  0  0  0
    7.5969    8.8163   25.6677 C   0  0  0  0  0  0  0  0  0  0  0  0
    9.5034   10.9378   22.4056 C   0  0  0  0  0  0  0  0  0  0  0  0
    7.8983   12.9579   25.1519 C   0  0  0  0  0  0  0  0  0  0  0  0
    8.6693   12.8794   23.8281 C   0  0  0  0  0  0  0  0  0  0  0  0
   11.5346    9.3803   23.6821 C   0  0  0  0  0  0  0  0  0  0  0  0
   10.5563    7.4260   22.4440 C   0  0  0  0  0  0  0  0  0  0  0  0
   11.5422    9.3499   21.1654 C   0  0  0  0  0  0  0  0  0  0  0  0
   10.7856    8.9358   22.4267 C   0  0  0  0  0  0  0  0  0  0  0  0
    8.2287    9.3326   24.5864 N   0  0  0  0  0  0  0  0  0  0  0  0
    8.8546   11.4524   23.5147 N   0  0  0  0  0  0  0  0  0  0  0  0
   10.0226   11.6065   21.5152 O   0  0  0  0  0  0  0  0  0  0  0  0
    9.5003    9.5672   22.4153 O   0  0  0  0  0  0  0  0  0  0  0  0
    6.3521   11.9423   27.7966 Cl  0  0  0  0  0  0  0  0  0  0  0  0
    7.5639    7.1006   25.7252 Cl  0  0  0  0  0  0  0  0  0  0  0  0
    6.5160    9.0969   27.5160 H   0  0  0  0  0  0  0  0  0  0  0  0
    6.9385   13.4658   25.0171 H   0  0  0  0  0  0  0  0  0  0  0  0
    8.4908   13.4631   25.9206 H   0  0  0  0  0  0  0  0  0  0  0  0
    8.1198   13.3539   23.0071 H   0  0  0  0  0  0  0  0  0  0  0  0
    9.6522   13.3590   23.8979 H   0  0  0  0  0  0  0  0  0  0  0  0
   11.7011   10.4635   23.6735 H   0  0  0  0  0  0  0  0  0  0  0  0
   10.9854    9.1202   24.5929 H   0  0  0  0  0  0  0  0  0  0  0  0
   12.5260    8.9156   23.7311 H   0  0  0  0  0  0  0  0  0  0  0  0
   10.0192    7.1026   21.5451 H   0  0  0  0  0  0  0  0  0  0  0  0
    9.9328    7.1357   23.2973 H   0  0  0  0  0  0  0  0  0  0  0  0
   11.5004    6.8746   22.5009 H   0  0  0  0  0  0  0  0  0  0  0  0
   11.0052    9.0311   20.2648 H   0  0  0  0  0  0  0  0  0  0  0  0
   11.6836   10.4345   21.1178 H   0  0  0  0  0  0  0  0  0  0  0  0
   12.5260    8.8684   21.1255 H   0  0  0  0  0  0  0  0  0  0  0  0
  1  3  1  0  0  0  0
  1  5  2  0  0  0  0
  2  3  2  0  0  0  0
  2  4  1  0  0  0  0
  2  7  1  0  0  0  0
  3 17  1  0  0  0  0
  4 13  2  0  0  0  0
  4 14  1  0  0  0  0
  5 13  1  0  0  0  0
  5 18  1  0  0  0  0
  6 14  1  0  0  0  0
  6 15  2  0  0  0  0
  6 16  1  0  0  0  0
  7  8  1  0  0  0  0
  8 14  1  0  0  0  0
  9 12  1  0  0  0  0
 10 12  1  0  0  0  0
 11 12  1  0  0  0  0
 12 16  1  0  0  0  0
  1 19  1  0  0  0  0
  7 20  1  0  0  0  0
  7 21  1  0  0  0  0
  8 22  1  0  0  0  0
  8 23  1  0  0  0  0
  9 24  1  0  0  0  0
  9 25  1  0  0  0  0
  9 26  1  0  0  0  0
 10 27  1  0  0  0  0
 10 28  1  0  0  0  0
 10 29  1  0  0  0  0
 11 30  1  0  0  0  0
 11 31  1  0  0  0  0
 11 32  1  0  0  0  0
M  END
> <id>
EN300-28287740

> <smiles>
CC(C)(C)OC(=O)N1CCC=2C1=NC(Cl)=CC2Cl

> <IUPAC Name>
tert-butyl 4,6-dichloro-1H,2H,3H-pyrrolo[2,3-b]pyridine-1-carboxylate

> <CAS>
2680796-74-9

> <URL>
https://www.enaminestore.com/catalog/EN300-28287740

> <ROCS_ShapeQuery>
_x1140_x0812_0A_x1140_0A_x1097_0A_x0365_0A_x1097_0A_x0310_0A

> <ROCS_TanimotoCombo>
0.607 

> <ROCS_ShapeTanimoto>
0.237 

> <ROCS_ColorTanimoto>
0.369 

> <ROCS_RefTversky>
0.216 

> <ROCS_RefColorTversky>
0.447 

> <ROCS_RefTverskyCombo>
0.663 

> <ROCS_FitTversky>
1.710 

> <ROCS_FitColorTversky>
0.679 

> <ROCS_FitTverskyCombo>
2.389 

> <ROCS_ColorScore>
-3.511

> <ROCS_Overlap>
2217.735

> <ROCS_Rank>
487                 

$$$$
untitled-dbase-391783_1
  -OEChem-02092423213D

 22 22  0     0  0  0  0  0  0999 V2000
    8.4483   12.5194   24.2050 C   0  0  0  0  0  0  0  0  0  0  0  0
    7.5484   12.1023   25.1794 C   0  0  0  0  0  0  0  0  0  0  0  0
    9.2246   11.5799   23.5357 C   0  0  0  0  0  0  0  0  0  0  0  0
    7.4632   10.7451   25.4452 C   0  0  0  0  0  0  0  0  0  0  0  0
    9.0645   10.2462   23.8752 C   0  0  0  0  0  0  0  0  0  0  0  0
   10.1631   12.0269   22.5158 C   0  0  0  0  0  0  0  0  0  0  0  0
    6.5080   10.2617   26.4849 C   0  0  0  0  0  0  0  0  0  0  0  0
   12.0737   13.3982   22.1238 C   0  0  0  0  0  0  0  0  0  0  0  0
    8.2007    9.8029   24.8160 N   0  0  0  0  0  0  0  0  0  0  0  0
    9.8528    9.2825   23.1971 N   0  0  0  0  0  0  0  0  0  0  0  0
   10.1255   11.6758   21.3302 O   0  0  0  0  0  0  0  0  0  0  0  0
   11.0928   12.8864   23.0324 O   0  0  0  0  0  0  0  0  0  0  0  0
    8.5357   13.5783   23.9763 H   0  0  0  0  0  0  0  0  0  0  0  0
    6.9364   12.8251   25.7080 H   0  0  0  0  0  0  0  0  0  0  0  0
    5.5324   10.0439   26.0342 H   0  0  0  0  0  0  0  0  0  0  0  0
    6.8782    9.3507   26.9720 H   0  0  0  0  0  0  0  0  0  0  0  0
    6.3679   11.0106   27.2749 H   0  0  0  0  0  0  0  0  0  0  0  0
   12.7520   14.0679   22.6580 H   0  0  0  0  0  0  0  0  0  0  0  0
   11.5755   13.9370   21.3139 H   0  0  0  0  0  0  0  0  0  0  0  0
   12.6425   12.5634   21.7075 H   0  0  0  0  0  0  0  0  0  0  0  0
   10.4604    9.5856   22.4679 H   0  0  0  0  0  0  0  0  0  0  0  0
    9.7115    8.3173   23.4004 H   0  0  0  0  0  0  0  0  0  0  0  0
  1  2  2  0  0  0  0
  1  3  1  0  0  0  0
  2  4  1  0  0  0  0
  3  5  2  0  0  0  0
  3  6  1  0  0  0  0
  4  7  1  0  0  0  0
  4  9  2  0  0  0  0
  5  9  1  0  0  0  0
  5 10  1  0  0  0  0
  6 11  2  0  0  0  0
  6 12  1  0  0  0  0
  8 12  1  0  0  0  0
  1 13  1  0  0  0  0
  2 14  1  0  0  0  0
  7 15  1  0  0  0  0
  7 16  1  0  0  0  0
  7 17  1  0  0  0  0
  8 18  1  0  0  0  0
  8 19  1  0  0  0  0
  8 20  1  0  0  0  0
 10 21  1  0  0  0  0
 10 22  1  0  0  0  0
M  END
> <id>
EN300-179888

> <smiles>
COC(=O)C=1C=CC(C)=NC1N

> <MDLNUMBER>
MFCD16611580

> <IUPAC Name>
methyl 2-amino-6-methylpyridine-3-carboxylate

> <CAS>
31686-93-8

> <Purity>
95

> <URL>
https://www.enaminestore.com/catalog/EN300-179888

> <MP>
100-101

> <ROCS_ShapeQuery>
_x1140_x0812_0A_x1140_0A_x1097_0A_x0365_0A_x1097_0A_x0310_0A

> <ROCS_TanimotoCombo>
0.607 

> <ROCS_ShapeTanimoto>
0.234 

> <ROCS_ColorTanimoto>
0.373 

> <ROCS_RefTversky>
0.209 

> <ROCS_RefColorTversky>
0.450 

> <ROCS_RefTverskyCombo>
0.659 

> <ROCS_FitTversky>
2.054 

> <ROCS_FitColorTversky>
0.685 

> <ROCS_FitTverskyCombo>
2.739 

> <ROCS_ColorScore>
-3.534

> <ROCS_Overlap>
2137.322

> <ROCS_Rank>
488                 

$$$$
untitled-dbase-445734_3
  -OEChem-02092423213D

 26 27  0     0  0  0  0  0  0999 V2000
    7.7485   12.5608   24.3621 C   0  0  0  0  0  0  0  0  0  0  0  0
    9.2639   12.4639   22.2239 C   0  0  0  0  0  0  0  0  0  0  0  0
    7.8336   10.4094   25.4212 C   0  0  0  0  0  0  0  0  0  0  0  0
    8.6160   12.0320   23.3982 C   0  0  0  0  0  0  0  0  0  0  0  0
    7.3534   11.7146   25.3983 C   0  0  0  0  0  0  0  0  0  0  0  0
    9.0187   10.7133   23.5405 C   0  0  0  0  0  0  0  0  0  0  0  0
   10.1435    8.1139   23.1932 C   0  0  0  0  0  0  0  0  0  0  0  0
   12.0329    9.3904   22.0944 C   0  0  0  0  0  0  0  0  0  0  0  0
   10.5168    9.2124   22.1957 C   0  0  0  0  0  0  0  0  0  0  0  0
    8.6724    9.8530   24.5139 N   0  0  0  0  0  0  0  0  0  0  0  0
   10.0138   11.5086   21.6645 N   0  0  0  0  0  0  0  0  0  0  0  0
    9.8450   10.4569   22.4864 N   0  0  0  0  0  0  0  0  0  0  0  0
    5.5329   13.4121   26.1088 O   0  0  0  0  0  0  0  0  0  0  0  0
    5.6212   11.1333   27.2320 O   0  0  0  0  0  0  0  0  0  0  0  0
    7.1697   12.8952   27.8083 F   0  0  0  0  0  0  0  0  0  0  0  0
    6.2762   12.2864   26.6433 S   0  0  0  0  0  0  0  0  0  0  0  0
    7.3994   13.5865   24.3032 H   0  0  0  0  0  0  0  0  0  0  0  0
    9.2231   13.4351   21.7514 H   0  0  0  0  0  0  0  0  0  0  0  0
    7.5394    9.7314   26.2190 H   0  0  0  0  0  0  0  0  0  0  0  0
   10.4644    8.3599   24.2110 H   0  0  0  0  0  0  0  0  0  0  0  0
   10.6158    7.1656   22.9153 H   0  0  0  0  0  0  0  0  0  0  0  0
    9.0593    7.9573   23.2137 H   0  0  0  0  0  0  0  0  0  0  0  0
   12.4527    9.7153   23.0527 H   0  0  0  0  0  0  0  0  0  0  0  0
   12.2817   10.1476   21.3432 H   0  0  0  0  0  0  0  0  0  0  0  0
   12.5354    8.4602   21.8085 H   0  0  0  0  0  0  0  0  0  0  0  0
   10.1618    8.8883   21.2089 H   0  0  0  0  0  0  0  0  0  0  0  0
  1  4  1  0  0  0  0
  1  5  2  0  0  0  0
  2  4  1  0  0  0  0
  2 11  2  0  0  0  0
  3  5  1  0  0  0  0
  3 10  2  0  0  0  0
  4  6  2  0  0  0  0
  5 16  1  0  0  0  0
  6 10  1  0  0  0  0
  6 12  1  0  0  0  0
  7  9  1  0  0  0  0
  8  9  1  0  0  0  0
  9 12  1  0  0  0  0
 11 12  1  0  0  0  0
 13 16  2  0  0  0  0
 14 16  2  0  0  0  0
 15 16  1  0  0  0  0
  1 17  1  0  0  0  0
  2 18  1  0  0  0  0
  3 19  1  0  0  0  0
  7 20  1  0  0  0  0
  7 21  1  0  0  0  0
  7 22  1  0  0  0  0
  8 23  1  0  0  0  0
  8 24  1  0  0  0  0
  8 25  1  0  0  0  0
  9 26  1  0  0  0  0
M  END
> <id>
EN300-728553

> <smiles>
CC(C)N1N=CC=2C=C(C=NC12)S(=O)(=O)F

> <IUPAC Name>
1-(propan-2-yl)-1H-pyrazolo[3,4-b]pyridine-5-sulfonyl fluoride

> <CAS>
2137695-40-8

> <URL>
https://www.enaminestore.com/catalog/EN300-728553

> <ROCS_ShapeQuery>
_x1140_x0812_0A_x1140_0A_x1097_0A_x0365_0A_x1097_0A_x0310_0A

> <ROCS_TanimotoCombo>
0.606 

> <ROCS_ShapeTanimoto>
0.248 

> <ROCS_ColorTanimoto>
0.358 

> <ROCS_RefTversky>
0.222 

> <ROCS_RefColorTversky>
0.437 

> <ROCS_RefTverskyCombo>
0.660 

> <ROCS_FitTversky>
1.878 

> <ROCS_FitColorTversky>
0.664 

> <ROCS_FitTverskyCombo>
2.542 

> <ROCS_ColorScore>
-3.435

> <ROCS_Overlap>
2280.841

> <ROCS_Rank>
489                 

$$$$
untitled-dbase-119370_2
  -OEChem-02092423213D

 27 27  0     0  0  0  0  0  0999 V2000
    8.8224   12.4767   24.5004 C   0  0  0  0  0  0  0  0  0  0  0  0
    9.7133   11.6871   23.7820 C   0  0  0  0  0  0  0  0  0  0  0  0
    7.7455   11.8844   25.1507 C   0  0  0  0  0  0  0  0  0  0  0  0
    9.4851   10.3210   23.7452 C   0  0  0  0  0  0  0  0  0  0  0  0
    7.6052   10.5095   25.0524 C   0  0  0  0  0  0  0  0  0  0  0  0
   11.5631   10.2757   22.3220 C   0  0  0  0  0  0  0  0  0  0  0  0
    9.6781    8.6769   21.8461 C   0  0  0  0  0  0  0  0  0  0  0  0
   11.1433    8.3412   23.8264 C   0  0  0  0  0  0  0  0  0  0  0  0
   10.4498    9.4170   22.9601 C   0  0  0  0  0  0  0  0  0  0  0  0
    8.4502    9.7096   24.3640 N   0  0  0  0  0  0  0  0  0  0  0  0
    5.4633   10.6798   26.1950 N   0  0  0  0  0  0  0  0  0  0  0  0
    6.5028    9.9209   25.7210 N   0  0  0  0  0  0  0  0  0  0  0  0
    8.9676   13.5516   24.5541 H   0  0  0  0  0  0  0  0  0  0  0  0
   10.5575   12.1370   23.2705 H   0  0  0  0  0  0  0  0  0  0  0  0
    7.0460   12.4933   25.7141 H   0  0  0  0  0  0  0  0  0  0  0  0
   12.2660    9.6541   21.7552 H   0  0  0  0  0  0  0  0  0  0  0  0
   11.1639   11.0223   21.6268 H   0  0  0  0  0  0  0  0  0  0  0  0
   12.1352   10.8124   23.0882 H   0  0  0  0  0  0  0  0  0  0  0  0
   10.3276    8.0189   21.2586 H   0  0  0  0  0  0  0  0  0  0  0  0
    8.8825    8.0501   22.2657 H   0  0  0  0  0  0  0  0  0  0  0  0
    9.2126    9.3857   21.1510 H   0  0  0  0  0  0  0  0  0  0  0  0
   11.8194    7.7235   23.2230 H   0  0  0  0  0  0  0  0  0  0  0  0
   11.7453    8.7918   24.6242 H   0  0  0  0  0  0  0  0  0  0  0  0
   10.4153    7.6643   24.2885 H   0  0  0  0  0  0  0  0  0  0  0  0
    5.2278   10.3451   27.1281 H   0  0  0  0  0  0  0  0  0  0  0  0
    4.6427   10.5021   25.6172 H   0  0  0  0  0  0  0  0  0  0  0  0
    6.3940    8.9222   25.6542 H   0  0  0  0  0  0  0  0  0  0  0  0
  1  2  2  0  0  0  0
  1  3  1  0  0  0  0
  2  4  1  0  0  0  0
  3  5  2  0  0  0  0
  4  9  1  0  0  0  0
  4 10  2  0  0  0  0
  5 10  1  0  0  0  0
  5 12  1  0  0  0  0
  6  9  1  0  0  0  0
  7  9  1  0  0  0  0
  8  9  1  0  0  0  0
 11 12  1  0  0  0  0
  1 13  1  0  0  0  0
  2 14  1  0  0  0  0
  3 15  1  0  0  0  0
  6 16  1  0  0  0  0
  6 17  1  0  0  0  0
  6 18  1  0  0  0  0
  7 19  1  0  0  0  0
  7 20  1  0  0  0  0
  7 21  1  0  0  0  0
  8 22  1  0  0  0  0
  8 23  1  0  0  0  0
  8 24  1  0  0  0  0
 11 25  1  0  0  0  0
 11 26  1  0  0  0  0
 12 27  1  0  0  0  0
M  END
> <id>
EN300-843388

> <smiles>
CC(C)(C)C=1C=CC=C(NN)N1

> <IUPAC Name>
2-tert-butyl-6-hydrazinylpyridine

> <CAS>
2138381-20-9

> <URL>
https://www.enaminestore.com/catalog/EN300-843388

> <ROCS_ShapeQuery>
_x1140_x0812_0A_x1140_0A_x1097_0A_x0365_0A_x1097_0A_x0310_0A

> <ROCS_TanimotoCombo>
0.606 

> <ROCS_ShapeTanimoto>
0.209 

> <ROCS_ColorTanimoto>
0.397 

> <ROCS_RefTversky>
0.190 

> <ROCS_RefColorTversky>
0.481 

> <ROCS_RefTverskyCombo>
0.671 

> <ROCS_FitTversky>
1.902 

> <ROCS_FitColorTversky>
0.695 

> <ROCS_FitTverskyCombo>
2.597 

> <ROCS_ColorScore>
-3.783

> <ROCS_Overlap>
1948.907

> <ROCS_Rank>
490                 

$$$$
untitled-dbase-280317_3
  -OEChem-02092423213D

 25 25  0     0  0  0  0  0  0999 V2000
    8.2568   12.3631   23.8321 C   0  0  0  0  0  0  0  0  0  0  0  0
    8.5731   11.0647   23.4914 C   0  0  0  0  0  0  0  0  0  0  0  0
    7.2252   10.6460   25.1700 C   0  0  0  0  0  0  0  0  0  0  0  0
    9.4841   10.7027   22.3762 C   0  0  0  0  0  0  0  0  0  0  0  0
   11.4416    9.2266   23.8226 C   0  0  0  0  0  0  0  0  0  0  0  0
   10.8464    7.3162   22.3042 C   0  0  0  0  0  0  0  0  0  0  0  0
   11.8148    9.4242   21.3414 C   0  0  0  0  0  0  0  0  0  0  0  0
   10.9281    8.8353   22.4377 C   0  0  0  0  0  0  0  0  0  0  0  0
    7.9828   10.0787   24.2577 N   0  0  0  0  0  0  0  0  0  0  0  0
    6.4984    9.9632   26.0941 N   0  0  0  0  0  0  0  0  0  0  0  0
   10.0323   11.5293   21.6639 O   0  0  0  0  0  0  0  0  0  0  0  0
    9.6063    9.3527   22.2802 O   0  0  0  0  0  0  0  0  0  0  0  0
    7.1757   12.3614   25.1635 S   0  0  0  0  0  0  0  0  0  0  0  0
    8.5917   13.2860   23.3794 H   0  0  0  0  0  0  0  0  0  0  0  0
   11.5016   10.3162   23.9224 H   0  0  0  0  0  0  0  0  0  0  0  0
   10.7947    8.8398   24.6168 H   0  0  0  0  0  0  0  0  0  0  0  0
   12.4559    8.8448   23.9858 H   0  0  0  0  0  0  0  0  0  0  0  0
   10.4784    7.0310   21.3120 H   0  0  0  0  0  0  0  0  0  0  0  0
   10.1375    6.8983   23.0281 H   0  0  0  0  0  0  0  0  0  0  0  0
   11.8214    6.8438   22.4613 H   0  0  0  0  0  0  0  0  0  0  0  0
   11.4467    9.1437   20.3479 H   0  0  0  0  0  0  0  0  0  0  0  0
   11.8556   10.5167   21.3991 H   0  0  0  0  0  0  0  0  0  0  0  0
   12.8361    9.0332   21.4145 H   0  0  0  0  0  0  0  0  0  0  0  0
    6.4638    8.9381   26.1020 H   0  0  0  0  0  0  0  0  0  0  0  0
    5.8832   10.4451   26.7584 H   0  0  0  0  0  0  0  0  0  0  0  0
  1  2  2  0  0  0  0
  1 13  1  0  0  0  0
  2  4  1  0  0  0  0
  2  9  1  0  0  0  0
  3  9  2  0  0  0  0
  3 10  1  0  0  0  0
  3 13  1  0  0  0  0
  4 11  2  0  0  0  0
  4 12  1  0  0  0  0
  5  8  1  0  0  0  0
  6  8  1  0  0  0  0
  7  8  1  0  0  0  0
  8 12  1  0  0  0  0
  1 14  1  0  0  0  0
  5 15  1  0  0  0  0
  5 16  1  0  0  0  0
  5 17  1  0  0  0  0
  6 18  1  0  0  0  0
  6 19  1  0  0  0  0
  6 20  1  0  0  0  0
  7 21  1  0  0  0  0
  7 22  1  0  0  0  0
  7 23  1  0  0  0  0
 10 24  1  0  0  0  0
 10 25  1  0  0  0  0
M  END
> <id>
EN300-886814

> <smiles>
CC(C)(C)OC(=O)C1=CSC(N)=N1

> <MDLNUMBER>
MFCD24639799

> <IUPAC Name>
tert-butyl 2-amino-1,3-thiazole-4-carboxylate

> <CAS>
1519728-58-5

> <URL>
https://www.enaminestore.com/catalog/EN300-886814

> <ROCS_ShapeQuery>
_x1140_x0812_0A_x1140_0A_x1097_0A_x0365_0A_x1097_0A_x0310_0A

> <ROCS_TanimotoCombo>
0.606 

> <ROCS_ShapeTanimoto>
0.196 

> <ROCS_ColorTanimoto>
0.411 

> <ROCS_RefTversky>
0.181 

> <ROCS_RefColorTversky>
0.516 

> <ROCS_RefTverskyCombo>
0.697 

> <ROCS_FitTversky>
1.739 

> <ROCS_FitColorTversky>
0.668 

> <ROCS_FitTverskyCombo>
2.407 

> <ROCS_ColorScore>
-4.077

> <ROCS_Overlap>
1852.572

> <ROCS_Rank>
491                 

$$$$
untitled-dbase-170471_2
  -OEChem-02092423213D

 26 27  0     0  0  0  0  0  0999 V2000
    6.7915   12.7380   26.0428 C   0  0  0  0  0  0  0  0  0  0  0  0
    8.4937   12.2174   24.1243 C   0  0  0  0  0  0  0  0  0  0  0  0
    6.0476   10.7013   27.1544 C   0  0  0  0  0  0  0  0  0  0  0  0
    7.5994   11.9587   25.1964 C   0  0  0  0  0  0  0  0  0  0  0  0
    7.5991   10.5777   25.3637 C   0  0  0  0  0  0  0  0  0  0  0  0
    6.0201   12.0916   27.0184 C   0  0  0  0  0  0  0  0  0  0  0  0
    6.8438    9.9070   26.3239 C   0  0  0  0  0  0  0  0  0  0  0  0
    8.9722   10.9943   23.7148 C   0  0  0  0  0  0  0  0  0  0  0  0
    9.8907   10.6408   22.6869 C   0  0  0  0  0  0  0  0  0  0  0  0
   12.1020    9.5942   22.0630 C   0  0  0  0  0  0  0  0  0  0  0  0
   10.0904    8.1158   22.3075 C   0  0  0  0  0  0  0  0  0  0  0  0
   10.7940    9.3755   22.8179 C   0  0  0  0  0  0  0  0  0  0  0  0
   10.0490   11.3088   21.6279 O   0  0  0  0  0  0  0  0  0  0  0  0
    8.4357    9.9933   24.4604 O   0  0  0  0  0  0  0  0  0  0  0  0
    5.2435   12.8193   27.8332 F   0  0  0  0  0  0  0  0  0  0  0  0
    6.8715    8.5762   26.4522 F   0  0  0  0  0  0  0  0  0  0  0  0
    6.7604   13.8193   25.9498 H   0  0  0  0  0  0  0  0  0  0  0  0
    8.7527   13.1799   23.7050 H   0  0  0  0  0  0  0  0  0  0  0  0
    5.4386   10.2274   27.9199 H   0  0  0  0  0  0  0  0  0  0  0  0
   11.9195    9.7650   20.9960 H   0  0  0  0  0  0  0  0  0  0  0  0
   12.7582    8.7231   22.1607 H   0  0  0  0  0  0  0  0  0  0  0  0
   12.6426   10.4669   22.4428 H   0  0  0  0  0  0  0  0  0  0  0  0
    9.8544    8.2089   21.2422 H   0  0  0  0  0  0  0  0  0  0  0  0
    9.1540    7.9292   22.8450 H   0  0  0  0  0  0  0  0  0  0  0  0
   10.7290    7.2353   22.4378 H   0  0  0  0  0  0  0  0  0  0  0  0
   10.9950    9.2068   23.8806 H   0  0  0  0  0  0  0  0  0  0  0  0
  1  4  1  0  0  0  0
  1  6  2  0  0  0  0
  2  4  1  0  0  0  0
  2  8  2  0  0  0  0
  3  6  1  0  0  0  0
  3  7  2  0  0  0  0
  4  5  2  0  0  0  0
  5  7  1  0  0  0  0
  5 14  1  0  0  0  0
  6 15  1  0  0  0  0
  7 16  1  0  0  0  0
  8  9  1  0  0  0  0
  8 14  1  0  0  0  0
  9 12  1  0  0  0  0
  9 13  2  0  0  0  0
 10 12  1  0  0  0  0
 11 12  1  0  0  0  0
  1 17  1  0  0  0  0
  2 18  1  0  0  0  0
  3 19  1  0  0  0  0
 10 20  1  0  0  0  0
 10 21  1  0  0  0  0
 10 22  1  0  0  0  0
 11 23  1  0  0  0  0
 11 24  1  0  0  0  0
 11 25  1  0  0  0  0
 12 26  1  0  0  0  0
M  END
> <id>
EN300-744932

> <smiles>
CC(C)C(=O)C1=CC=2C=C(F)C=C(F)C2O1

> <MDLNUMBER>
MFCD21233523

> <IUPAC Name>
1-(5,7-difluoro-1-benzofuran-2-yl)-2-methylpropan-1-one

> <CAS>
1498833-75-2

> <URL>
https://www.enaminestore.com/catalog/EN300-744932

> <ROCS_ShapeQuery>
_x1140_x0812_0A_x1140_0A_x1097_0A_x0365_0A_x1097_0A_x0310_0A

> <ROCS_TanimotoCombo>
0.606 

> <ROCS_ShapeTanimoto>
0.238 

> <ROCS_ColorTanimoto>
0.368 

> <ROCS_RefTversky>
0.215 

> <ROCS_RefColorTversky>
0.446 

> <ROCS_RefTverskyCombo>
0.662 

> <ROCS_FitTversky>
1.802 

> <ROCS_FitColorTversky>
0.678 

> <ROCS_FitTverskyCombo>
2.479 

> <ROCS_ColorScore>
-3.503

> <ROCS_Overlap>
2209.598

> <ROCS_Rank>
492                 

$$$$
untitled-dbase-486050_6
  -OEChem-02092423213D

 38 40  0     0  0  0  0  0  0999 V2000
    8.3763   13.2081   25.2854 C   0  0  0  0  0  0  0  0  0  0  0  0
    9.1851   12.6687   24.2868 C   0  0  0  0  0  0  0  0  0  0  0  0
    7.3873   12.4258   25.8871 C   0  0  0  0  0  0  0  0  0  0  0  0
    9.0137   11.3438   23.8935 C   0  0  0  0  0  0  0  0  0  0  0  0
    7.1887   11.0970   25.4937 C   0  0  0  0  0  0  0  0  0  0  0  0
    8.0310   10.5637   24.5053 C   0  0  0  0  0  0  0  0  0  0  0  0
    9.8620   10.8056   22.8383 C   0  0  0  0  0  0  0  0  0  0  0  0
    8.0029    7.4868   25.8556 C   0  0  0  0  0  0  0  0  0  0  0  0
    7.2208    6.9393   24.6959 C   0  0  0  0  0  0  0  0  0  0  0  0
    5.9186    9.0221   25.5294 C   0  0  0  0  0  0  0  0  0  0  0  0
    7.1807    8.4152   24.9972 C   0  0  0  0  0  0  0  0  0  0  0  0
   12.4802   10.1666   21.8504 C   0  0  0  0  0  0  0  0  0  0  0  0
   12.1867    7.9759   23.0437 C   0  0  0  0  0  0  0  0  0  0  0  0
   10.6362    8.5957   21.1675 C   0  0  0  0  0  0  0  0  0  0  0  0
   11.4731    9.1233   22.3320 C   0  0  0  0  0  0  0  0  0  0  0  0
    6.2092   10.3209   26.0963 N   0  0  0  0  0  0  0  0  0  0  0  0
    9.9135   11.2550   21.6873 O   0  0  0  0  0  0  0  0  0  0  0  0
    7.9176    9.2584   24.0800 O   0  0  0  0  0  0  0  0  0  0  0  0
   10.5963    9.7404   23.2807 O   0  0  0  0  0  0  0  0  0  0  0  0
    8.5155   14.2391   25.5981 H   0  0  0  0  0  0  0  0  0  0  0  0
    9.9422   13.2935   23.8203 H   0  0  0  0  0  0  0  0  0  0  0  0
    6.7763   12.8623   26.6740 H   0  0  0  0  0  0  0  0  0  0  0  0
    7.6495    7.2568   26.8530 H   0  0  0  0  0  0  0  0  0  0  0  0
    9.0811    7.5245   25.7625 H   0  0  0  0  0  0  0  0  0  0  0  0
    7.7754    6.6088   23.8253 H   0  0  0  0  0  0  0  0  0  0  0  0
    6.3445    6.3414   24.9167 H   0  0  0  0  0  0  0  0  0  0  0  0
    5.1586    9.1303   24.7477 H   0  0  0  0  0  0  0  0  0  0  0  0
    5.4983    8.3713   26.3051 H   0  0  0  0  0  0  0  0  0  0  0  0
   11.9720   10.9919   21.3390 H   0  0  0  0  0  0  0  0  0  0  0  0
   13.0629   10.5783   22.6809 H   0  0  0  0  0  0  0  0  0  0  0  0
   13.1748    9.7326   21.1221 H   0  0  0  0  0  0  0  0  0  0  0  0
   11.4678    7.2250   23.3910 H   0  0  0  0  0  0  0  0  0  0  0  0
   12.7117    8.3363   23.9357 H   0  0  0  0  0  0  0  0  0  0  0  0
   12.9131    7.4838   22.3889 H   0  0  0  0  0  0  0  0  0  0  0  0
    9.9137    7.8473   21.5127 H   0  0  0  0  0  0  0  0  0  0  0  0
   10.0877    9.4007   20.6677 H   0  0  0  0  0  0  0  0  0  0  0  0
   11.2705    8.0947   20.4273 H   0  0  0  0  0  0  0  0  0  0  0  0
    5.8917   10.5471   27.0305 H   0  0  0  0  0  0  0  0  0  0  0  0
  1  2  2  0  0  0  0
  1  3  1  0  0  0  0
  2  4  1  0  0  0  0
  3  5  2  0  0  0  0
  4  6  2  0  0  0  0
  4  7  1  0  0  0  0
  5  6  1  0  0  0  0
  5 16  1  0  0  0  0
  6 18  1  0  0  0  0
  7 17  2  0  0  0  0
  7 19  1  0  0  0  0
  8  9  1  0  0  0  0
  8 11  1  0  0  0  0
  9 11  1  0  0  0  0
 10 11  1  0  0  0  0
 10 16  1  0  0  0  0
 11 18  1  0  0  0  0
 12 15  1  0  0  0  0
 13 15  1  0  0  0  0
 14 15  1  0  0  0  0
 15 19  1  0  0  0  0
  1 20  1  0  0  0  0
  2 21  1  0  0  0  0
  3 22  1  0  0  0  0
  8 23  1  0  0  0  0
  8 24  1  0  0  0  0
  9 25  1  0  0  0  0
  9 26  1  0  0  0  0
 10 27  1  0  0  0  0
 10 28  1  0  0  0  0
 12 29  1  0  0  0  0
 12 30  1  0  0  0  0
 12 31  1  0  0  0  0
 13 32  1  0  0  0  0
 13 33  1  0  0  0  0
 13 34  1  0  0  0  0
 14 35  1  0  0  0  0
 14 36  1  0  0  0  0
 14 37  1  0  0  0  0
 16 38  1  0  0  0  0
M  END
> <id>
EN300-27783009

> <smiles>
CC(C)(C)OC(=O)C=1C=CC=C2NCC3(CC3)OC12

> <IUPAC Name>
tert-butyl 3,4-dihydrospiro[1,4-benzoxazine-2,1'-cyclopropane]-8-carboxylate

> <CAS>
2639459-37-1

> <URL>
https://www.enaminestore.com/catalog/EN300-27783009

> <ROCS_ShapeQuery>
_x1140_x0812_0A_x1140_0A_x1097_0A_x0365_0A_x1097_0A_x0310_0A

> <ROCS_TanimotoCombo>
0.606 

> <ROCS_ShapeTanimoto>
0.236 

> <ROCS_ColorTanimoto>
0.370 

> <ROCS_RefTversky>
0.216 

> <ROCS_RefColorTversky>
0.479 

> <ROCS_RefTverskyCombo>
0.695 

> <ROCS_FitTversky>
1.631 

> <ROCS_FitColorTversky>
0.620 

> <ROCS_FitTverskyCombo>
2.251 

> <ROCS_ColorScore>
-3.784

> <ROCS_Overlap>
2221.309

> <ROCS_Rank>
493                 

$$$$
untitled-dbase-93780_3
  -OEChem-02092423213D

 29 30  0     0  0  0  0  0  0999 V2000
    6.6938   10.0014   26.1057 C   0  0  0  0  0  0  0  0  0  0  0  0
    6.2358   10.7390   27.2015 C   0  0  0  0  0  0  0  0  0  0  0  0
    7.7390   12.5846   26.6807 C   0  0  0  0  0  0  0  0  0  0  0  0
    9.1738   12.0820   24.5505 C   0  0  0  0  0  0  0  0  0  0  0  0
    8.2141   11.8607   25.5732 C   0  0  0  0  0  0  0  0  0  0  0  0
    7.6794   10.6009   25.3237 C   0  0  0  0  0  0  0  0  0  0  0  0
    6.7474   12.0077   27.4860 C   0  0  0  0  0  0  0  0  0  0  0  0
    9.1604   10.9587   23.7565 C   0  0  0  0  0  0  0  0  0  0  0  0
    9.9269   10.6099   22.5609 C   0  0  0  0  0  0  0  0  0  0  0  0
   10.8242    8.5790   23.8938 C   0  0  0  0  0  0  0  0  0  0  0  0
   10.4171    8.4293   21.4136 C   0  0  0  0  0  0  0  0  0  0  0  0
   12.2843    9.8236   22.3187 C   0  0  0  0  0  0  0  0  0  0  0  0
   10.8350    9.3525   22.5660 C   0  0  0  0  0  0  0  0  0  0  0  0
    9.8589   11.3102   21.5478 O   0  0  0  0  0  0  0  0  0  0  0  0
    8.2574   10.0542   24.2172 O   0  0  0  0  0  0  0  0  0  0  0  0
    6.1528   12.8786   28.8491 Cl  0  0  0  0  0  0  0  0  0  0  0  0
    6.3020    9.0172   25.8786 H   0  0  0  0  0  0  0  0  0  0  0  0
    5.4662   10.3034   27.8355 H   0  0  0  0  0  0  0  0  0  0  0  0
    8.1369   13.5708   26.9024 H   0  0  0  0  0  0  0  0  0  0  0  0
    9.7963   12.9554   24.4133 H   0  0  0  0  0  0  0  0  0  0  0  0
   11.4738    7.6989   23.8650 H   0  0  0  0  0  0  0  0  0  0  0  0
   11.1831    9.2061   24.7184 H   0  0  0  0  0  0  0  0  0  0  0  0
    9.8134    8.2414   24.1496 H   0  0  0  0  0  0  0  0  0  0  0  0
   11.0313    7.5248   21.3757 H   0  0  0  0  0  0  0  0  0  0  0  0
   10.5145    8.9346   20.4460 H   0  0  0  0  0  0  0  0  0  0  0  0
    9.3747    8.1076   21.5204 H   0  0  0  0  0  0  0  0  0  0  0  0
   12.9770    8.9737   22.3114 H   0  0  0  0  0  0  0  0  0  0  0  0
   12.3775   10.3435   21.3584 H   0  0  0  0  0  0  0  0  0  0  0  0
   12.6235   10.5151   23.0987 H   0  0  0  0  0  0  0  0  0  0  0  0
  1  2  2  0  0  0  0
  1  6  1  0  0  0  0
  2  7  1  0  0  0  0
  3  5  1  0  0  0  0
  3  7  2  0  0  0  0
  4  5  1  0  0  0  0
  4  8  2  0  0  0  0
  5  6  2  0  0  0  0
  6 15  1  0  0  0  0
  7 16  1  0  0  0  0
  8  9  1  0  0  0  0
  8 15  1  0  0  0  0
  9 13  1  0  0  0  0
  9 14  2  0  0  0  0
 10 13  1  0  0  0  0
 11 13  1  0  0  0  0
 12 13  1  0  0  0  0
  1 17  1  0  0  0  0
  2 18  1  0  0  0  0
  3 19  1  0  0  0  0
  4 20  1  0  0  0  0
 10 21  1  0  0  0  0
 10 22  1  0  0  0  0
 10 23  1  0  0  0  0
 11 24  1  0  0  0  0
 11 25  1  0  0  0  0
 11 26  1  0  0  0  0
 12 27  1  0  0  0  0
 12 28  1  0  0  0  0
 12 29  1  0  0  0  0
M  END
> <id>
EN300-744933

> <smiles>
CC(C)(C)C(=O)C1=CC=2C=C(Cl)C=CC2O1

> <MDLNUMBER>
MFCD11183558

> <IUPAC Name>
1-(5-chloro-1-benzofuran-2-yl)-2,2-dimethylpropan-1-one

> <CAS>
1040075-54-4

> <URL>
https://www.enaminestore.com/catalog/EN300-744933

> <ROCS_ShapeQuery>
_x1140_x0812_0A_x1140_0A_x1097_0A_x0365_0A_x1097_0A_x0310_0A

> <ROCS_TanimotoCombo>
0.606 

> <ROCS_ShapeTanimoto>
0.218 

> <ROCS_ColorTanimoto>
0.388 

> <ROCS_RefTversky>
0.200 

> <ROCS_RefColorTversky>
0.464 

> <ROCS_RefTverskyCombo>
0.664 

> <ROCS_FitTversky>
1.691 

> <ROCS_FitColorTversky>
0.704 

> <ROCS_FitTverskyCombo>
2.396 

> <ROCS_ColorScore>
-3.640

> <ROCS_Overlap>
2053.710

> <ROCS_Rank>
494                 

$$$$
untitled-dbase-502537_6
  -OEChem-02092423213D

 32 32  0     0  0  0  0  0  0999 V2000
    7.7427   12.0862   25.2479 C   0  0  0  0  0  0  0  0  0  0  0  0
    7.7384   10.6956   25.4354 C   0  0  0  0  0  0  0  0  0  0  0  0
    8.4128   12.2715   24.0634 C   0  0  0  0  0  0  0  0  0  0  0  0
    7.1908   13.1175   26.0752 C   0  0  0  0  0  0  0  0  0  0  0  0
    9.4611   10.6583   22.4597 C   0  0  0  0  0  0  0  0  0  0  0  0
    7.1498    9.9362   26.5528 C   0  0  0  0  0  0  0  0  0  0  0  0
    8.7261   13.5348   23.3611 C   0  0  0  0  0  0  0  0  0  0  0  0
   11.6455    9.3047   23.6535 C   0  0  0  0  0  0  0  0  0  0  0  0
   10.8879    7.3078   22.3316 C   0  0  0  0  0  0  0  0  0  0  0  0
   11.6306    9.3891   21.1381 C   0  0  0  0  0  0  0  0  0  0  0  0
   10.9402    8.8332   22.3827 C   0  0  0  0  0  0  0  0  0  0  0  0
    8.3557   10.0394   24.4514 N   0  0  0  0  0  0  0  0  0  0  0  0
    8.7679   11.0202   23.6114 N   0  0  0  0  0  0  0  0  0  0  0  0
    6.5909   12.9034   27.1463 O   0  0  0  0  0  0  0  0  0  0  0  0
    9.8534   11.5040   21.6719 O   0  0  0  0  0  0  0  0  0  0  0  0
    9.5917    9.3101   22.4069 O   0  0  0  0  0  0  0  0  0  0  0  0
    7.3019   14.1836   25.7438 H   0  0  0  0  0  0  0  0  0  0  0  0
    6.1017    9.6638   26.3426 H   0  0  0  0  0  0  0  0  0  0  0  0
    7.7021    9.0021   26.7577 H   0  0  0  0  0  0  0  0  0  0  0  0
    7.1624   10.5085   27.4972 H   0  0  0  0  0  0  0  0  0  0  0  0
    9.6985   13.9364   23.6868 H   0  0  0  0  0  0  0  0  0  0  0  0
    8.7663   13.3983   22.2681 H   0  0  0  0  0  0  0  0  0  0  0  0
    7.9624   14.3080   23.5462 H   0  0  0  0  0  0  0  0  0  0  0  0
   11.6851   10.3992   23.6940 H   0  0  0  0  0  0  0  0  0  0  0  0
   11.1396    8.9416   24.5541 H   0  0  0  0  0  0  0  0  0  0  0  0
   12.6846    8.9568   23.6761 H   0  0  0  0  0  0  0  0  0  0  0  0
   10.3826    6.9650   21.4214 H   0  0  0  0  0  0  0  0  0  0  0  0
   10.3111    6.9086   23.1738 H   0  0  0  0  0  0  0  0  0  0  0  0
   11.8901    6.8680   22.3584 H   0  0  0  0  0  0  0  0  0  0  0  0
   11.1249    9.0510   20.2264 H   0  0  0  0  0  0  0  0  0  0  0  0
   11.6447   10.4839   21.1398 H   0  0  0  0  0  0  0  0  0  0  0  0
   12.6632    9.0277   21.0711 H   0  0  0  0  0  0  0  0  0  0  0  0
  1  2  1  0  0  0  0
  1  3  2  0  0  0  0
  1  4  1  0  0  0  0
  2  6  1  0  0  0  0
  2 12  2  0  0  0  0
  3  7  1  0  0  0  0
  3 13  1  0  0  0  0
  4 14  2  0  0  0  0
  5 13  1  0  0  0  0
  5 15  2  0  0  0  0
  5 16  1  0  0  0  0
  8 11  1  0  0  0  0
  9 11  1  0  0  0  0
 10 11  1  0  0  0  0
 11 16  1  0  0  0  0
 12 13  1  0  0  0  0
  4 17  1  0  0  0  0
  6 18  1  0  0  0  0
  6 19  1  0  0  0  0
  6 20  1  0  0  0  0
  7 21  1  0  0  0  0
  7 22  1  0  0  0  0
  7 23  1  0  0  0  0
  8 24  1  0  0  0  0
  8 25  1  0  0  0  0
  8 26  1  0  0  0  0
  9 27  1  0  0  0  0
  9 28  1  0  0  0  0
  9 29  1  0  0  0  0
 10 30  1  0  0  0  0
 10 31  1  0  0  0  0
 10 32  1  0  0  0  0
M  END
> <id>
EN300-7379699

> <smiles>
CC1=NN(C(=O)OC(C)(C)C)C(C)=C1C=O

> <MDLNUMBER>
MFCD06659076

> <IUPAC Name>
tert-butyl 4-formyl-3,5-dimethyl-1H-pyrazole-1-carboxylate

> <CAS>
844891-13-0

> <URL>
https://www.enaminestore.com/catalog/EN300-7379699

> <ROCS_ShapeQuery>
_x1140_x0812_0A_x1140_0A_x1097_0A_x0365_0A_x1097_0A_x0310_0A

> <ROCS_TanimotoCombo>
0.606 

> <ROCS_ShapeTanimoto>
0.237 

> <ROCS_ColorTanimoto>
0.370 

> <ROCS_RefTversky>
0.214 

> <ROCS_RefColorTversky>
0.447 

> <ROCS_RefTverskyCombo>
0.661 

> <ROCS_FitTversky>
1.805 

> <ROCS_FitColorTversky>
0.681 

> <ROCS_FitTverskyCombo>
2.487 

> <ROCS_ColorScore>
-3.508

> <ROCS_Overlap>
2194.736

> <ROCS_Rank>
495                 

$$$$
untitled-dbase-514879_1
  -OEChem-02092423213D

 16 16  0     0  0  0  0  0  0999 V2000
    8.5710   12.4968   24.1281 C   0  0  0  0  0  0  0  0  0  0  0  0
    7.6146   10.5301   25.0630 C   0  0  0  0  0  0  0  0  0  0  0  0
    9.4877   11.6953   23.4569 C   0  0  0  0  0  0  0  0  0  0  0  0
    7.6133   11.9110   24.9484 C   0  0  0  0  0  0  0  0  0  0  0  0
    9.4052   10.3241   23.6384 C   0  0  0  0  0  0  0  0  0  0  0  0
   11.8625   12.1555   22.8452 C   0  0  0  0  0  0  0  0  0  0  0  0
    8.4890    9.7187   24.4269 N   0  0  0  0  0  0  0  0  0  0  0  0
   10.4542   12.2956   22.6283 N   0  0  0  0  0  0  0  0  0  0  0  0
    6.4661   12.8668   25.7918 Cl  0  0  0  0  0  0  0  0  0  0  0  0
   10.6242    9.1569   22.7490 Br  0  0  0  0  0  0  0  0  0  0  0  0
    8.6049   13.5778   24.0109 H   0  0  0  0  0  0  0  0  0  0  0  0
    6.8932   10.0126   25.6879 H   0  0  0  0  0  0  0  0  0  0  0  0
   12.0369   11.5252   23.7297 H   0  0  0  0  0  0  0  0  0  0  0  0
   12.3242   11.6863   21.9639 H   0  0  0  0  0  0  0  0  0  0  0  0
   12.3087   13.1476   23.0085 H   0  0  0  0  0  0  0  0  0  0  0  0
   10.1186   12.8434   21.8570 H   0  0  0  0  0  0  0  0  0  0  0  0
  1  3  1  0  0  0  0
  1  4  2  0  0  0  0
  2  4  1  0  0  0  0
  2  7  2  0  0  0  0
  3  5  2  0  0  0  0
  3  8  1  0  0  0  0
  4  9  1  0  0  0  0
  5  7  1  0  0  0  0
  5 10  1  0  0  0  0
  6  8  1  0  0  0  0
  1 11  1  0  0  0  0
  2 12  1  0  0  0  0
  6 13  1  0  0  0  0
  6 14  1  0  0  0  0
  6 15  1  0  0  0  0
  8 16  1  0  0  0  0
M  END
> <id>
EN300-2980581

> <smiles>
CNC=1C=C(Cl)C=NC1Br

> <MDLNUMBER>
MFCD18257844

> <IUPAC Name>
2-bromo-5-chloro-N-methylpyridin-3-amine

> <CAS>
98141-97-0

> <URL>
https://www.enaminestore.com/catalog/EN300-2980581

> <ROCS_ShapeQuery>
_x1140_x0812_0A_x1140_0A_x1097_0A_x0365_0A_x1097_0A_x0310_0A

> <ROCS_TanimotoCombo>
0.606 

> <ROCS_ShapeTanimoto>
0.208 

> <ROCS_ColorTanimoto>
0.398 

> <ROCS_RefTversky>
0.188 

> <ROCS_RefColorTversky>
0.438 

> <ROCS_RefTverskyCombo>
0.626 

> <ROCS_FitTversky>
2.073 

> <ROCS_FitColorTversky>
0.813 

> <ROCS_FitTverskyCombo>
2.886 

> <ROCS_ColorScore>
-3.416

> <ROCS_Overlap>
1923.640

> <ROCS_Rank>
496                 

$$$$
untitled-dbase-389051_5
  -OEChem-02092423213D

 22 22  0     0  0  0  0  0  0999 V2000
    8.4447   12.5173   24.2076 C   0  0  0  0  0  0  0  0  0  0  0  0
    7.5454   12.0984   25.1819 C   0  0  0  0  0  0  0  0  0  0  0  0
    9.2222   11.5793   23.5377 C   0  0  0  0  0  0  0  0  0  0  0  0
    9.0641   10.2451   23.8763 C   0  0  0  0  0  0  0  0  0  0  0  0
    7.4622   10.7410   25.4468 C   0  0  0  0  0  0  0  0  0  0  0  0
   10.1611   12.0282   22.5189 C   0  0  0  0  0  0  0  0  0  0  0  0
   13.2656   12.4716   22.1175 C   0  0  0  0  0  0  0  0  0  0  0  0
   12.0709   13.4013   22.1298 C   0  0  0  0  0  0  0  0  0  0  0  0
    8.2010    9.8001   24.8170 N   0  0  0  0  0  0  0  0  0  0  0  0
    9.8534    9.2829   23.1977 N   0  0  0  0  0  0  0  0  0  0  0  0
   10.1246   11.6782   21.3330 O   0  0  0  0  0  0  0  0  0  0  0  0
   11.0898   12.8877   23.0372 O   0  0  0  0  0  0  0  0  0  0  0  0
    6.3807   10.1334   26.6321 Cl  0  0  0  0  0  0  0  0  0  0  0  0
    8.5305   13.5764   23.9794 H   0  0  0  0  0  0  0  0  0  0  0  0
    6.9343   12.8225   25.7102 H   0  0  0  0  0  0  0  0  0  0  0  0
   13.7142   12.3994   23.1122 H   0  0  0  0  0  0  0  0  0  0  0  0
   12.9715   11.4695   21.7886 H   0  0  0  0  0  0  0  0  0  0  0  0
   14.0244   12.8278   21.4128 H   0  0  0  0  0  0  0  0  0  0  0  0
   11.6271   13.4691   21.1321 H   0  0  0  0  0  0  0  0  0  0  0  0
   12.3664   14.4018   22.4594 H   0  0  0  0  0  0  0  0  0  0  0  0
   10.4606    9.5870   22.4685 H   0  0  0  0  0  0  0  0  0  0  0  0
    9.7135    8.3173   23.4004 H   0  0  0  0  0  0  0  0  0  0  0  0
  1  2  2  0  0  0  0
  1  3  1  0  0  0  0
  2  5  1  0  0  0  0
  3  4  2  0  0  0  0
  3  6  1  0  0  0  0
  4  9  1  0  0  0  0
  4 10  1  0  0  0  0
  5  9  2  0  0  0  0
  5 13  1  0  0  0  0
  6 11  2  0  0  0  0
  6 12  1  0  0  0  0
  7  8  1  0  0  0  0
  8 12  1  0  0  0  0
  1 14  1  0  0  0  0
  2 15  1  0  0  0  0
  7 16  1  0  0  0  0
  7 17  1  0  0  0  0
  7 18  1  0  0  0  0
  8 19  1  0  0  0  0
  8 20  1  0  0  0  0
 10 21  1  0  0  0  0
 10 22  1  0  0  0  0
M  END
> <id>
EN300-2933700

> <smiles>
CCOC(=O)C=1C=CC(Cl)=NC1N

> <MDLNUMBER>
MFCD11501915

> <IUPAC Name>
ethyl 2-amino-6-chloropyridine-3-carboxylate

> <CAS>
936344-72-8

> <URL>
https://www.enaminestore.com/catalog/EN300-2933700

> <ROCS_ShapeQuery>
_x1140_x0812_0A_x1140_0A_x1097_0A_x0365_0A_x1097_0A_x0310_0A

> <ROCS_TanimotoCombo>
0.606 

> <ROCS_ShapeTanimoto>
0.233 

> <ROCS_ColorTanimoto>
0.373 

> <ROCS_RefTversky>
0.209 

> <ROCS_RefColorTversky>
0.450 

> <ROCS_RefTverskyCombo>
0.659 

> <ROCS_FitTversky>
1.998 

> <ROCS_FitColorTversky>
0.685 

> <ROCS_FitTverskyCombo>
2.683 

> <ROCS_ColorScore>
-3.533

> <ROCS_Overlap>
2140.540

> <ROCS_Rank>
497                 

$$$$
untitled-dbase-273249_6
  -OEChem-02092423213D

 24 24  0     0  0  0  0  0  0999 V2000
    7.4803   11.9711   25.1140 C   0  0  0  0  0  0  0  0  0  0  0  0
    8.9354   10.1575   23.6861 C   0  0  0  0  0  0  0  0  0  0  0  0
    9.2051   11.5043   23.5042 C   0  0  0  0  0  0  0  0  0  0  0  0
    8.4592   12.4220   24.2355 C   0  0  0  0  0  0  0  0  0  0  0  0
    7.2876   10.6034   25.2237 C   0  0  0  0  0  0  0  0  0  0  0  0
   10.2415   11.9178   22.5710 C   0  0  0  0  0  0  0  0  0  0  0  0
   13.3945   12.0447   22.3558 C   0  0  0  0  0  0  0  0  0  0  0  0
   12.3066   13.0969   22.3810 C   0  0  0  0  0  0  0  0  0  0  0  0
    8.6893   13.8908   24.0962 C   0  0  0  0  0  0  0  0  0  0  0  0
    7.9925    9.6817   24.5300 N   0  0  0  0  0  0  0  0  0  0  0  0
   10.2368   11.6595   21.3602 O   0  0  0  0  0  0  0  0  0  0  0  0
    6.3286   10.1343   26.0828 O   0  0  0  0  0  0  0  0  0  0  0  0
   11.2265   12.6314   23.1973 O   0  0  0  0  0  0  0  0  0  0  0  0
    7.8722   14.6483   24.8852 F   0  0  0  0  0  0  0  0  0  0  0  0
    9.9579   14.2768   24.4205 F   0  0  0  0  0  0  0  0  0  0  0  0
    8.4843   14.3340   22.8224 F   0  0  0  0  0  0  0  0  0  0  0  0
    6.8846   12.6668   25.6963 H   0  0  0  0  0  0  0  0  0  0  0  0
    9.4839    9.3930   23.1439 H   0  0  0  0  0  0  0  0  0  0  0  0
   13.7756   11.8531   23.3627 H   0  0  0  0  0  0  0  0  0  0  0  0
   13.0149   11.1069   21.9370 H   0  0  0  0  0  0  0  0  0  0  0  0
   14.2257   12.3643   21.7184 H   0  0  0  0  0  0  0  0  0  0  0  0
   11.9299   13.2838   21.3710 H   0  0  0  0  0  0  0  0  0  0  0  0
   12.6873   14.0330   22.8004 H   0  0  0  0  0  0  0  0  0  0  0  0
    5.8912   10.8771   26.5218 H   0  0  0  0  0  0  0  0  0  0  0  0
  1  4  1  0  0  0  0
  1  5  2  0  0  0  0
  2  3  1  0  0  0  0
  2 10  2  0  0  0  0
  3  4  2  0  0  0  0
  3  6  1  0  0  0  0
  4  9  1  0  0  0  0
  5 10  1  0  0  0  0
  5 12  1  0  0  0  0
  6 11  2  0  0  0  0
  6 13  1  0  0  0  0
  7  8  1  0  0  0  0
  8 13  1  0  0  0  0
  9 14  1  0  0  0  0
  9 15  1  0  0  0  0
  9 16  1  0  0  0  0
  1 17  1  0  0  0  0
  2 18  1  0  0  0  0
  7 19  1  0  0  0  0
  7 20  1  0  0  0  0
  7 21  1  0  0  0  0
  8 22  1  0  0  0  0
  8 23  1  0  0  0  0
 12 24  1  0  0  0  0
M  END
> <id>
EN300-20812922

> <smiles>
CCOC(=O)C=1C=NC(O)=CC1C(F)(F)F

> <MDLNUMBER>
MFCD03095403

> <IUPAC Name>
ethyl 6-hydroxy-4-(trifluoromethyl)pyridine-3-carboxylate

> <CAS>
362690-48-0

> <Purity>
95

> <URL>
https://www.enaminestore.com/catalog/EN300-20812922

> <ROCS_ShapeQuery>
_x1140_x0812_0A_x1140_0A_x1097_0A_x0365_0A_x1097_0A_x0310_0A

> <ROCS_TanimotoCombo>
0.606 

> <ROCS_ShapeTanimoto>
0.240 

> <ROCS_ColorTanimoto>
0.366 

> <ROCS_RefTversky>
0.217 

> <ROCS_RefColorTversky>
0.444 

> <ROCS_RefTverskyCombo>
0.661 

> <ROCS_FitTversky>
1.817 

> <ROCS_FitColorTversky>
0.676 

> <ROCS_FitTverskyCombo>
2.493 

> <ROCS_ColorScore>
-3.486

> <ROCS_Overlap>
2221.139

> <ROCS_Rank>
498                 

$$$$
untitled-dbase-474175_5
  -OEChem-02092423213D

 26 26  0     0  0  0  0  0  0999 V2000
    8.1568   12.3489   23.9615 C   0  0  0  0  0  0  0  0  0  0  0  0
    7.2913   12.1004   25.0534 C   0  0  0  0  0  0  0  0  0  0  0  0
    8.5597   11.1154   23.5051 C   0  0  0  0  0  0  0  0  0  0  0  0
    7.2267   10.7329   25.1863 C   0  0  0  0  0  0  0  0  0  0  0  0
    9.4618   10.7251   22.3923 C   0  0  0  0  0  0  0  0  0  0  0  0
   11.4052    9.2451   23.8535 C   0  0  0  0  0  0  0  0  0  0  0  0
   10.7797    7.3205   22.3656 C   0  0  0  0  0  0  0  0  0  0  0  0
   11.7719    9.4012   21.3684 C   0  0  0  0  0  0  0  0  0  0  0  0
   10.8816    8.8402   22.4763 C   0  0  0  0  0  0  0  0  0  0  0  0
    6.5585    9.9431   26.0517 N   0  0  0  0  0  0  0  0  0  0  0  0
   10.0181   11.5340   21.6659 O   0  0  0  0  0  0  0  0  0  0  0  0
    7.9971   10.1251   24.2462 O   0  0  0  0  0  0  0  0  0  0  0  0
    9.5661    9.3724   22.3158 O   0  0  0  0  0  0  0  0  0  0  0  0
    8.4481   13.3094   23.5605 H   0  0  0  0  0  0  0  0  0  0  0  0
    6.7801   12.8308   25.6646 H   0  0  0  0  0  0  0  0  0  0  0  0
   11.4798   10.3352   23.9370 H   0  0  0  0  0  0  0  0  0  0  0  0
   10.7563    8.8785   24.6556 H   0  0  0  0  0  0  0  0  0  0  0  0
   12.4151    8.8526   24.0188 H   0  0  0  0  0  0  0  0  0  0  0  0
   10.4044    7.0254   21.3791 H   0  0  0  0  0  0  0  0  0  0  0  0
   10.0682    6.9226   23.0982 H   0  0  0  0  0  0  0  0  0  0  0  0
   11.7491    6.8378   22.5264 H   0  0  0  0  0  0  0  0  0  0  0  0
   11.3965    9.1109   20.3805 H   0  0  0  0  0  0  0  0  0  0  0  0
   11.8271   10.4938   21.4097 H   0  0  0  0  0  0  0  0  0  0  0  0
   12.7883    8.9981   21.4437 H   0  0  0  0  0  0  0  0  0  0  0  0
    5.9915   10.3287   26.8221 H   0  0  0  0  0  0  0  0  0  0  0  0
    6.6557    8.9163   26.0456 H   0  0  0  0  0  0  0  0  0  0  0  0
  1  2  1  0  0  0  0
  1  3  2  0  0  0  0
  2  4  2  0  0  0  0
  3  5  1  0  0  0  0
  3 12  1  0  0  0  0
  4 10  1  0  0  0  0
  4 12  1  0  0  0  0
  5 11  2  0  0  0  0
  5 13  1  0  0  0  0
  6  9  1  0  0  0  0
  7  9  1  0  0  0  0
  8  9  1  0  0  0  0
  9 13  1  0  0  0  0
  1 14  1  0  0  0  0
  2 15  1  0  0  0  0
  6 16  1  0  0  0  0
  6 17  1  0  0  0  0
  6 18  1  0  0  0  0
  7 19  1  0  0  0  0
  7 20  1  0  0  0  0
  7 21  1  0  0  0  0
  8 22  1  0  0  0  0
  8 23  1  0  0  0  0
  8 24  1  0  0  0  0
 10 25  1  0  0  0  0
 10 26  1  0  0  0  0
M  END
> <id>
EN300-27722593

> <smiles>
CC(C)(C)OC(=O)C1=CC=C(N)O1

> <IUPAC Name>
tert-butyl 5-aminofuran-2-carboxylate

> <CAS>
2580233-46-9

> <URL>
https://www.enaminestore.com/catalog/EN300-27722593

> <ROCS_ShapeQuery>
_x1140_x0812_0A_x1140_0A_x1097_0A_x0365_0A_x1097_0A_x0310_0A

> <ROCS_TanimotoCombo>
0.606 

> <ROCS_ShapeTanimoto>
0.201 

> <ROCS_ColorTanimoto>
0.405 

> <ROCS_RefTversky>
0.185 

> <ROCS_RefColorTversky>
0.511 

> <ROCS_RefTverskyCombo>
0.696 

> <ROCS_FitTversky>
1.748 

> <ROCS_FitColorTversky>
0.661 

> <ROCS_FitTverskyCombo>
2.409 

> <ROCS_ColorScore>
-4.040

> <ROCS_Overlap>
1894.859

> <ROCS_Rank>
499                 

$$$$
untitled-dbase-102232_7
  -OEChem-02092423213D

 24 25  0     0  0  0  0  0  0999 V2000
    8.1928   12.2239   23.4085 C   0  0  0  0  0  0  0  0  0  0  0  0
    7.3176   11.8948   24.4375 C   0  0  0  0  0  0  0  0  0  0  0  0
    8.9545    9.9708   23.4058 C   0  0  0  0  0  0  0  0  0  0  0  0
    9.0303   11.2494   22.8772 C   0  0  0  0  0  0  0  0  0  0  0  0
    7.3184   10.5873   24.8962 C   0  0  0  0  0  0  0  0  0  0  0  0
    5.0103   11.0694   27.9244 C   0  0  0  0  0  0  0  0  0  0  0  0
    6.0050   12.1514   27.6209 C   0  0  0  0  0  0  0  0  0  0  0  0
    5.5424   11.2290   26.5270 C   0  0  0  0  0  0  0  0  0  0  0  0
   10.4193   12.8646   21.7937 C   0  0  0  0  0  0  0  0  0  0  0  0
    8.1172    9.6134   24.4051 N   0  0  0  0  0  0  0  0  0  0  0  0
    6.4210   10.2675   25.9452 N   0  0  0  0  0  0  0  0  0  0  0  0
    9.8941   11.5416   21.8738 O   0  0  0  0  0  0  0  0  0  0  0  0
   10.5080   13.4248   23.0187 F   0  0  0  0  0  0  0  0  0  0  0  0
    9.5854   13.6243   21.0477 F   0  0  0  0  0  0  0  0  0  0  0  0
   11.6306   12.8693   21.1979 F   0  0  0  0  0  0  0  0  0  0  0  0
    8.2181   13.2399   23.0249 H   0  0  0  0  0  0  0  0  0  0  0  0
    6.6606   12.6490   24.8583 H   0  0  0  0  0  0  0  0  0  0  0  0
    9.5844    9.1708   23.0299 H   0  0  0  0  0  0  0  0  0  0  0  0
    5.3490   10.2252   28.5123 H   0  0  0  0  0  0  0  0  0  0  0  0
    3.9847   11.3640   28.1101 H   0  0  0  0  0  0  0  0  0  0  0  0
    5.6490   13.1741   27.6024 H   0  0  0  0  0  0  0  0  0  0  0  0
    7.0107   12.0320   28.0047 H   0  0  0  0  0  0  0  0  0  0  0  0
    4.8636   11.6460   25.7910 H   0  0  0  0  0  0  0  0  0  0  0  0
    6.4294    9.3218   26.2687 H   0  0  0  0  0  0  0  0  0  0  0  0
  1  2  2  0  0  0  0
  1  4  1  0  0  0  0
  2  5  1  0  0  0  0
  3  4  2  0  0  0  0
  3 10  1  0  0  0  0
  4 12  1  0  0  0  0
  5 10  2  0  0  0  0
  5 11  1  0  0  0  0
  6  7  1  0  0  0  0
  6  8  1  0  0  0  0
  7  8  1  0  0  0  0
  8 11  1  0  0  0  0
  9 12  1  0  0  0  0
  9 13  1  0  0  0  0
  9 14  1  0  0  0  0
  9 15  1  0  0  0  0
  1 16  1  0  0  0  0
  2 17  1  0  0  0  0
  3 18  1  0  0  0  0
  6 19  1  0  0  0  0
  6 20  1  0  0  0  0
  7 21  1  0  0  0  0
  7 22  1  0  0  0  0
  8 23  1  0  0  0  0
 11 24  1  0  0  0  0
M  END
> <id>
EN300-767742

> <smiles>
FC(F)(F)OC=1C=CC(NC2CC2)=NC1

> <MDLNUMBER>
MFCD31459832

> <IUPAC Name>
N-cyclopropyl-5-(trifluoromethoxy)pyridin-2-amine

> <CAS>
1856664-44-2

> <URL>
https://www.enaminestore.com/catalog/EN300-767742

> <ROCS_ShapeQuery>
_x1140_x0812_0A_x1140_0A_x1097_0A_x0365_0A_x1097_0A_x0310_0A

> <ROCS_TanimotoCombo>
0.606 

> <ROCS_ShapeTanimoto>
0.229 

> <ROCS_ColorTanimoto>
0.377 

> <ROCS_RefTversky>
0.208 

> <ROCS_RefColorTversky>
0.421 

> <ROCS_RefTverskyCombo>
0.629 

> <ROCS_FitTversky>
1.800 

> <ROCS_FitColorTversky>
0.783 

> <ROCS_FitTverskyCombo>
2.583 

> <ROCS_ColorScore>
-3.287

> <ROCS_Overlap>
2128.268

> <ROCS_Rank>
500                 

$$$$
