untitled-dbase-181_0
  -OEChem-02082415003D

 36 38  0     0  0  0  0  0  0999 V2000
   10.2480   14.5275   21.7503 C   0  0  0  0  0  0  0  0  0  0  0  0
    9.6347    9.8463   24.1470 C   0  0  0  0  0  0  0  0  0  0  0  0
    7.8666   10.5672   22.5216 C   0  0  0  0  0  0  0  0  0  0  0  0
    7.6690   11.1835   24.9441 C   0  0  0  0  0  0  0  0  0  0  0  0
   10.1458   11.6103   22.4391 C   0  0  0  0  0  0  0  0  0  0  0  0
    9.9479   12.2280   24.8671 C   0  0  0  0  0  0  0  0  0  0  0  0
    8.1757   12.9506   23.2384 C   0  0  0  0  0  0  0  0  0  0  0  0
    9.3712   10.3074   22.7039 C   0  0  0  0  0  0  0  0  0  0  0  0
    9.1727   10.9269   25.1386 C   0  0  0  0  0  0  0  0  0  0  0  0
    7.3957   11.6514   23.5051 C   0  0  0  0  0  0  0  0  0  0  0  0
    9.6941   12.7169   23.4214 C   0  0  0  0  0  0  0  0  0  0  0  0
   11.2330   14.3423   19.4701 C   0  0  0  0  0  0  0  0  0  0  0  0
   10.4668   14.0114   23.1552 C   0  0  0  0  0  0  0  0  0  0  0  0
   11.2004   14.0202   20.8784 N   0  0  0  0  0  0  0  0  0  0  0  0
    9.3389   15.2929   21.4409 O   0  0  0  0  0  0  0  0  0  0  0  0
    9.1033    8.9068   24.3427 H   0  0  0  0  0  0  0  0  0  0  0  0
   10.7035    9.6422   24.2861 H   0  0  0  0  0  0  0  0  0  0  0  0
    7.6629   10.8821   21.4908 H   0  0  0  0  0  0  0  0  0  0  0  0
    7.3038    9.6405   22.6884 H   0  0  0  0  0  0  0  0  0  0  0  0
    7.1028   10.2677   25.1540 H   0  0  0  0  0  0  0  0  0  0  0  0
    7.3229   11.9421   25.6569 H   0  0  0  0  0  0  0  0  0  0  0  0
   11.2228   11.4262   22.5441 H   0  0  0  0  0  0  0  0  0  0  0  0
    9.9811   11.9325   21.4028 H   0  0  0  0  0  0  0  0  0  0  0  0
    9.6401   12.9971   25.5873 H   0  0  0  0  0  0  0  0  0  0  0  0
   11.0203   12.0580   25.0275 H   0  0  0  0  0  0  0  0  0  0  0  0
    7.9661   13.3037   22.2203 H   0  0  0  0  0  0  0  0  0  0  0  0
    7.8276   13.7359   23.9216 H   0  0  0  0  0  0  0  0  0  0  0  0
    9.7005    9.5329   22.0023 H   0  0  0  0  0  0  0  0  0  0  0  0
    9.3609   10.5920   26.1648 H   0  0  0  0  0  0  0  0  0  0  0  0
    6.3229   11.8306   23.3719 H   0  0  0  0  0  0  0  0  0  0  0  0
   10.6265   13.6133   18.9126 H   0  0  0  0  0  0  0  0  0  0  0  0
   10.8257   15.3524   19.3156 H   0  0  0  0  0  0  0  0  0  0  0  0
   12.2717   14.3067   19.1099 H   0  0  0  0  0  0  0  0  0  0  0  0
   11.5321   13.8250   23.3042 H   0  0  0  0  0  0  0  0  0  0  0  0
   10.1421   14.7708   23.8689 H   0  0  0  0  0  0  0  0  0  0  0  0
   11.9085   13.3923   21.2476 H   0  0  0  0  0  0  0  0  0  0  0  0
  1 13  1  0  0  0  0
  1 14  1  0  0  0  0
  1 15  2  0  0  0  0
  2  8  1  0  0  0  0
  2  9  1  0  0  0  0
  3  8  1  0  0  0  0
  3 10  1  0  0  0  0
  4  9  1  0  0  0  0
  4 10  1  0  0  0  0
  5  8  1  0  0  0  0
  5 11  1  0  0  0  0
  6  9  1  0  0  0  0
  6 11  1  0  0  0  0
  7 10  1  0  0  0  0
  7 11  1  0  0  0  0
 11 13  1  0  0  0  0
 12 14  1  0  0  0  0
  2 16  1  0  0  0  0
  2 17  1  0  0  0  0
  3 18  1  0  0  0  0
  3 19  1  0  0  0  0
  4 20  1  0  0  0  0
  4 21  1  0  0  0  0
  5 22  1  0  0  0  0
  5 23  1  0  0  0  0
  6 24  1  0  0  0  0
  6 25  1  0  0  0  0
  7 26  1  0  0  0  0
  7 27  1  0  0  0  0
  8 28  1  0  0  0  0
  9 29  1  0  0  0  0
 10 30  1  0  0  0  0
 12 31  1  0  0  0  0
 12 32  1  0  0  0  0
 12 33  1  0  0  0  0
 13 34  1  0  0  0  0
 13 35  1  0  0  0  0
 14 36  1  0  0  0  0
M  END
> <Catalog ID>
Z32016516

> <PlateID>
1337959-R-04

> <Well>
F08

> <MW (desalted)>
207.312

> <CLogP>
3.240

> <HBD>
1

> <TPSA>
29.100

> <RotBonds>
2

> <ROCS_ShapeQuery>
x0446_0A_x1080_0A_x0929_0A_x0812_0A_x0719_0A_x1140_0A_x0528_0A_x0310_0A

> <ROCS_TanimotoCombo>
0.408 

> <ROCS_ShapeTanimoto>
0.205 

> <ROCS_ColorTanimoto>
0.203 

> <ROCS_RefTversky>
0.188 

> <ROCS_RefColorTversky>
0.216 

> <ROCS_RefTverskyCombo>
0.404 

> <ROCS_FitTversky>
1.774 

> <ROCS_FitColorTversky>
0.779 

> <ROCS_FitTverskyCombo>
2.553 

> <ROCS_ColorScore>
-7.713

> <ROCS_Overlap>
2218.192

> <ROCS_Rank>
1                   

$$$$
untitled-dbase-58_1
  -OEChem-02082415003D

 36 38  0     0  0  0  0  0  0999 V2000
   10.5694   13.5209   23.0665 C   0  0  0  0  0  0  0  0  0  0  0  0
   10.8478   16.0072   20.9986 C   0  0  0  0  0  0  0  0  0  0  0  0
    9.1059    9.7790   24.6391 C   0  0  0  0  0  0  0  0  0  0  0  0
    7.1430   11.3382   24.5492 C   0  0  0  0  0  0  0  0  0  0  0  0
    7.9085   10.1651   22.4690 C   0  0  0  0  0  0  0  0  0  0  0  0
    9.4543   12.2502   24.8878 C   0  0  0  0  0  0  0  0  0  0  0  0
   10.2210   11.0749   22.8041 C   0  0  0  0  0  0  0  0  0  0  0  0
    8.2562   12.6371   22.7144 C   0  0  0  0  0  0  0  0  0  0  0  0
    8.5095   11.0785   25.2071 C   0  0  0  0  0  0  0  0  0  0  0  0
    9.2793    9.8985   23.1151 C   0  0  0  0  0  0  0  0  0  0  0  0
    7.3058   11.4672   23.0246 C   0  0  0  0  0  0  0  0  0  0  0  0
    9.6320   12.3858   23.3624 C   0  0  0  0  0  0  0  0  0  0  0  0
   11.6616   14.7680   21.2133 C   0  0  0  0  0  0  0  0  0  0  0  0
   10.7950   13.7277   21.7190 N   0  0  0  0  0  0  0  0  0  0  0  0
   11.0516   14.1632   23.9921 O   0  0  0  0  0  0  0  0  0  0  0  0
    9.6547   16.1410   21.2262 O   0  0  0  0  0  0  0  0  0  0  0  0
   11.6340   16.9971   20.5018 O   0  0  0  0  0  0  0  0  0  0  0  0
   10.0746    9.5740   25.1112 H   0  0  0  0  0  0  0  0  0  0  0  0
    8.4502    8.9322   24.8755 H   0  0  0  0  0  0  0  0  0  0  0  0
    6.4530   10.5184   24.7839 H   0  0  0  0  0  0  0  0  0  0  0  0
    6.6993   12.2546   24.9571 H   0  0  0  0  0  0  0  0  0  0  0  0
    8.0155   10.2369   21.3796 H   0  0  0  0  0  0  0  0  0  0  0  0
    7.2317    9.3249   22.6672 H   0  0  0  0  0  0  0  0  0  0  0  0
    9.0525   13.1809   25.3094 H   0  0  0  0  0  0  0  0  0  0  0  0
   10.4257   12.0880   25.3736 H   0  0  0  0  0  0  0  0  0  0  0  0
   11.2113   10.8842   23.2383 H   0  0  0  0  0  0  0  0  0  0  0  0
   10.3727   11.1563   21.7197 H   0  0  0  0  0  0  0  0  0  0  0  0
    8.3608   12.7551   21.6279 H   0  0  0  0  0  0  0  0  0  0  0  0
    7.8250   13.5764   23.0851 H   0  0  0  0  0  0  0  0  0  0  0  0
    8.3868   10.9866   26.2918 H   0  0  0  0  0  0  0  0  0  0  0  0
    9.7024    8.9699   22.7165 H   0  0  0  0  0  0  0  0  0  0  0  0
    6.3298   11.6506   22.5620 H   0  0  0  0  0  0  0  0  0  0  0  0
   12.0913   14.4412   20.2626 H   0  0  0  0  0  0  0  0  0  0  0  0
   12.4504   14.9631   21.9445 H   0  0  0  0  0  0  0  0  0  0  0  0
   10.3295   13.1196   21.0520 H   0  0  0  0  0  0  0  0  0  0  0  0
   11.1286   17.8242   20.3505 H   0  0  0  0  0  0  0  0  0  0  0  0
  1 12  1  0  0  0  0
  1 14  1  0  0  0  0
  1 15  2  0  0  0  0
  2 13  1  0  0  0  0
  2 16  2  0  0  0  0
  2 17  1  0  0  0  0
  3  9  1  0  0  0  0
  3 10  1  0  0  0  0
  4  9  1  0  0  0  0
  4 11  1  0  0  0  0
  5 10  1  0  0  0  0
  5 11  1  0  0  0  0
  6  9  1  0  0  0  0
  6 12  1  0  0  0  0
  7 10  1  0  0  0  0
  7 12  1  0  0  0  0
  8 11  1  0  0  0  0
  8 12  1  0  0  0  0
 13 14  1  0  0  0  0
  3 18  1  0  0  0  0
  3 19  1  0  0  0  0
  4 20  1  0  0  0  0
  4 21  1  0  0  0  0
  5 22  1  0  0  0  0
  5 23  1  0  0  0  0
  6 24  1  0  0  0  0
  6 25  1  0  0  0  0
  7 26  1  0  0  0  0
  7 27  1  0  0  0  0
  8 28  1  0  0  0  0
  8 29  1  0  0  0  0
  9 30  1  0  0  0  0
 10 31  1  0  0  0  0
 11 32  1  0  0  0  0
 13 33  1  0  0  0  0
 13 34  1  0  0  0  0
 14 35  1  0  0  0  0
 17 36  1  0  0  0  0
M  END
> <Catalog ID>
Z56852746

> <PlateID>
1337959-R-02

> <Well>
A06

> <MW (desalted)>
237.295

> <CLogP>
1.752

> <HBD>
2

> <TPSA>
66.400

> <RotBonds>
3

> <ROCS_ShapeQuery>
x0446_0A_x1080_0A_x0929_0A_x0812_0A_x0719_0A_x1140_0A_x0528_0A_x0310_0A

> <ROCS_TanimotoCombo>
0.407 

> <ROCS_ShapeTanimoto>
0.220 

> <ROCS_ColorTanimoto>
0.187 

> <ROCS_RefTversky>
0.201 

> <ROCS_RefColorTversky>
0.213 

> <ROCS_RefTverskyCombo>
0.414 

> <ROCS_FitTversky>
1.766 

> <ROCS_FitColorTversky>
0.600 

> <ROCS_FitTverskyCombo>
2.366 

> <ROCS_ColorScore>
-7.657

> <ROCS_Overlap>
2374.423

> <ROCS_Rank>
2                   

$$$$
untitled-dbase-526_31
  -OEChem-02082415003D

 32 34  0     1  0  0  0  0  0999 V2000
    5.7120   12.6286   24.7237 C   0  0  0  0  0  0  0  0  0  0  0  0
    9.4884    9.7515   23.7584 C   0  0  0  0  0  0  0  0  0  0  0  0
    6.2322   11.3496   24.5479 C   0  0  0  0  0  0  0  0  0  0  0  0
    8.1417    9.8947   24.0597 C   0  0  0  0  0  0  0  0  0  0  0  0
    6.5465   13.7320   24.5947 C   0  0  0  0  0  0  0  0  0  0  0  0
   10.2437   10.9015   23.6491 C   0  0  0  0  0  0  0  0  0  0  0  0
    7.5920   11.1708   24.2419 C   0  0  0  0  0  0  0  0  0  0  0  0
    7.8984   13.5540   24.2904 C   0  0  0  0  0  0  0  0  0  0  0  0
    8.4451   12.2865   24.1096 C   0  0  0  0  0  0  0  0  0  0  0  0
   12.3701   14.9436   23.1920 C   0  0  0  0  0  0  0  0  0  0  0  0
   11.2239   15.0994   24.1870 C   0  0  0  0  0  0  0  0  0  0  0  0
   11.8089   15.3383   21.8343 C   0  0  0  0  0  0  0  0  0  0  0  0
    8.7568   14.7742   24.1614 C   0  0  0  0  0  0  0  0  0  0  0  0
    9.7524   12.1506   23.8172 N   0  0  0  0  0  0  0  0  0  0  0  0
   10.0493   14.4785   23.5123 N   0  0  1  0  0  0  0  0  0  0  0  0
   10.1907   13.3550   21.1737 O   0  0  0  0  0  0  0  0  0  0  0  0
    9.2535   15.7057   21.3384 O   0  0  0  0  0  0  0  0  0  0  0  0
   10.1545   14.6651   21.7898 S   0  0  0  0  0  0  0  0  0  0  0  0
    4.6608   12.7627   24.9598 H   0  0  0  0  0  0  0  0  0  0  0  0
    9.9295    8.7726   23.6129 H   0  0  0  0  0  0  0  0  0  0  0  0
    5.5701   10.4927   24.6512 H   0  0  0  0  0  0  0  0  0  0  0  0
    7.5224    9.0052   24.1500 H   0  0  0  0  0  0  0  0  0  0  0  0
    6.1386   14.7301   24.7316 H   0  0  0  0  0  0  0  0  0  0  0  0
   11.3020   10.8515   23.4150 H   0  0  0  0  0  0  0  0  0  0  0  0
   13.1844   15.6272   23.4629 H   0  0  0  0  0  0  0  0  0  0  0  0
   12.7734   13.9268   23.1873 H   0  0  0  0  0  0  0  0  0  0  0  0
   11.4410   14.5715   25.1179 H   0  0  0  0  0  0  0  0  0  0  0  0
   11.0319   16.1529   24.3924 H   0  0  0  0  0  0  0  0  0  0  0  0
   11.7698   16.4204   21.6942 H   0  0  0  0  0  0  0  0  0  0  0  0
   12.3813   14.8740   21.0257 H   0  0  0  0  0  0  0  0  0  0  0  0
    8.2522   15.5449   23.5660 H   0  0  0  0  0  0  0  0  0  0  0  0
    8.9711   15.2142   25.1426 H   0  0  0  0  0  0  0  0  0  0  0  0
  1  3  2  0  0  0  0
  1  5  1  0  0  0  0
  2  4  1  0  0  0  0
  2  6  2  0  0  0  0
  3  7  1  0  0  0  0
  4  7  2  0  0  0  0
  5  8  2  0  0  0  0
  6 14  1  0  0  0  0
  7  9  1  0  0  0  0
  8  9  1  0  0  0  0
  8 13  1  0  0  0  0
  9 14  2  0  0  0  0
 10 11  1  0  0  0  0
 10 12  1  0  0  0  0
 11 15  1  0  0  0  0
 12 18  1  0  0  0  0
 13 15  1  0  0  0  0
 15 18  1  0  0  0  0
 16 18  2  0  0  0  0
 17 18  2  0  0  0  0
  1 19  1  0  0  0  0
  2 20  1  0  0  0  0
  3 21  1  0  0  0  0
  4 22  1  0  0  0  0
  5 23  1  0  0  0  0
  6 24  1  0  0  0  0
 10 25  1  0  0  0  0
 10 26  1  0  0  0  0
 11 27  1  0  0  0  0
 11 28  1  0  0  0  0
 12 29  1  0  0  0  0
 12 30  1  0  0  0  0
 13 31  1  0  0  0  0
 13 32  1  0  0  0  0
M  END
> <Catalog ID>
Z729353458

> <PlateID>
1337959-R-12

> <Well>
D06

> <MW (desalted)>
262.327

> <CLogP>
0.838

> <HBD>
0

> <TPSA>
50.270

> <RotBonds>
2

> <ROCS_ShapeQuery>
x0446_0A_x1080_0A_x0929_0A_x0812_0A_x0719_0A_x1140_0A_x0528_0A_x0310_0A

> <ROCS_TanimotoCombo>
0.386 

> <ROCS_ShapeTanimoto>
0.236 

> <ROCS_ColorTanimoto>
0.150 

> <ROCS_RefTversky>
0.213 

> <ROCS_RefColorTversky>
0.158 

> <ROCS_RefTverskyCombo>
0.371 

> <ROCS_FitTversky>
1.823 

> <ROCS_FitColorTversky>
0.744 

> <ROCS_FitTverskyCombo>
2.567 

> <ROCS_ColorScore>
-5.629

> <ROCS_Overlap>
2514.748

> <ROCS_Rank>
3                   

$$$$
untitled-dbase-116_0
  -OEChem-02082415003D

 33 35  0     1  0  0  0  0  0999 V2000
    8.3965   14.4453   22.4046 C   0  0  0  0  0  0  0  0  0  0  0  0
    9.7460   11.1255   24.7936 C   0  0  0  0  0  0  0  0  0  0  0  0
    8.6089   10.1608   22.7698 C   0  0  0  0  0  0  0  0  0  0  0  0
    9.7489   12.3918   22.6278 C   0  0  0  0  0  0  0  0  0  0  0  0
    8.3821   13.2173   24.5614 C   0  0  0  0  0  0  0  0  0  0  0  0
    7.2434   12.2521   22.5408 C   0  0  0  0  0  0  0  0  0  0  0  0
    9.8116   10.9893   23.2604 C   0  0  0  0  0  0  0  0  0  0  0  0
    8.4338   11.8171   25.2070 C   0  0  1  0  0  0  0  0  0  0  0  0
    7.2921   10.8478   23.1759 C   0  0  2  0  0  0  0  0  0  0  0  0
    7.2482   10.9637   24.7136 C   0  0  0  0  0  0  0  0  0  0  0  0
    8.4371   13.0800   23.0332 C   0  0  0  0  0  0  0  0  0  0  0  0
    4.9606   10.6108   25.1201 C   0  0  0  0  0  0  0  0  0  0  0  0
    9.2701   14.9159   21.6914 O   0  0  0  0  0  0  0  0  0  0  0  0
    7.2532   15.0923   22.7387 O   0  0  0  0  0  0  0  0  0  0  0  0
    6.0236   11.5525   25.1387 O   0  0  0  0  0  0  0  0  0  0  0  0
    9.8106   10.1349   25.2602 H   0  0  0  0  0  0  0  0  0  0  0  0
   10.6046   11.7050   25.1545 H   0  0  0  0  0  0  0  0  0  0  0  0
    8.6521   10.0487   21.6795 H   0  0  0  0  0  0  0  0  0  0  0  0
    8.6516    9.1512   23.1965 H   0  0  0  0  0  0  0  0  0  0  0  0
   10.6136   12.9867   22.9500 H   0  0  0  0  0  0  0  0  0  0  0  0
    9.8208   12.3119   21.5351 H   0  0  0  0  0  0  0  0  0  0  0  0
    7.4705   13.7457   24.8689 H   0  0  0  0  0  0  0  0  0  0  0  0
    9.2226   13.8231   24.9255 H   0  0  0  0  0  0  0  0  0  0  0  0
    7.2603   12.1628   21.4464 H   0  0  0  0  0  0  0  0  0  0  0  0
    6.2979   12.7506   22.7901 H   0  0  0  0  0  0  0  0  0  0  0  0
   10.7453   10.4940   22.9719 H   0  0  0  0  0  0  0  0  0  0  0  0
    8.3884   11.9276   26.2965 H   0  0  0  0  0  0  0  0  0  0  0  0
    6.4345   10.2667   22.8178 H   0  0  0  0  0  0  0  0  0  0  0  0
    7.2995    9.9662   25.1669 H   0  0  0  0  0  0  0  0  0  0  0  0
    4.0384   11.0946   25.4510 H   0  0  0  0  0  0  0  0  0  0  0  0
    5.2026    9.7738   25.7799 H   0  0  0  0  0  0  0  0  0  0  0  0
    4.8302   10.2420   24.0999 H   0  0  0  0  0  0  0  0  0  0  0  0
    7.2085   15.9871   22.3392 H   0  0  0  0  0  0  0  0  0  0  0  0
  1 11  1  0  0  0  0
  1 13  2  0  0  0  0
  1 14  1  0  0  0  0
  2  7  1  0  0  0  0
  2  8  1  0  0  0  0
  3  7  1  0  0  0  0
  3  9  1  0  0  0  0
  4  7  1  0  0  0  0
  4 11  1  0  0  0  0
  5  8  1  0  0  0  0
  5 11  1  0  0  0  0
  6  9  1  0  0  0  0
  6 11  1  0  0  0  0
  8 10  1  0  0  0  0
  9 10  1  0  0  0  0
 10 15  1  0  0  0  0
 12 15  1  0  0  0  0
  2 16  1  0  0  0  0
  2 17  1  0  0  0  0
  3 18  1  0  0  0  0
  3 19  1  0  0  0  0
  4 20  1  0  0  0  0
  4 21  1  0  0  0  0
  5 22  1  0  0  0  0
  5 23  1  0  0  0  0
  6 24  1  0  0  0  0
  6 25  1  0  0  0  0
  7 26  1  0  0  0  0
  8 27  1  0  0  0  0
  9 28  1  0  0  0  0
 10 29  1  0  0  0  0
 12 30  1  0  0  0  0
 12 31  1  0  0  0  0
 12 32  1  0  0  0  0
 14 33  1  0  0  0  0
M  END
> <Catalog ID>
Z1508949671

> <PlateID>
1337959-R-03

> <Well>
C02

> <MW (desalted)>
210.270

> <CLogP>
1.094

> <HBD>
1

> <TPSA>
46.530

> <RotBonds>
2

> <ROCS_ShapeQuery>
x0446_0A_x1080_0A_x0929_0A_x0812_0A_x0719_0A_x1140_0A_x0528_0A_x0310_0A

> <ROCS_TanimotoCombo>
0.385 

> <ROCS_ShapeTanimoto>
0.207 

> <ROCS_ColorTanimoto>
0.178 

> <ROCS_RefTversky>
0.190 

> <ROCS_RefColorTversky>
0.201 

> <ROCS_RefTverskyCombo>
0.390 

> <ROCS_FitTversky>
1.771 

> <ROCS_FitColorTversky>
0.609 

> <ROCS_FitTverskyCombo>
2.380 

> <ROCS_ColorScore>
-7.194

> <ROCS_Overlap>
2238.081

> <ROCS_Rank>
4                   

$$$$
untitled-dbase-436_0
  -OEChem-02082415003D

 39 41  0     0  0  0  0  0  0999 V2000
    8.2565   14.3957   22.2877 C   0  0  0  0  0  0  0  0  0  0  0  0
    9.1633   10.1967   22.6910 C   0  0  0  0  0  0  0  0  0  0  0  0
    9.8038   11.2823   24.8596 C   0  0  0  0  0  0  0  0  0  0  0  0
    7.4034   10.7202   24.4000 C   0  0  0  0  0  0  0  0  0  0  0  0
    9.9085   12.5911   22.7233 C   0  0  0  0  0  0  0  0  0  0  0  0
    7.5039   12.0280   22.2629 C   0  0  0  0  0  0  0  0  0  0  0  0
    8.1458   13.1160   24.4338 C   0  0  0  0  0  0  0  0  0  0  0  0
   10.1177   11.2040   23.3553 C   0  0  0  0  0  0  0  0  0  0  0  0
    7.7036   10.6385   22.8931 C   0  0  0  0  0  0  0  0  0  0  0  0
    8.3477   11.7311   25.0737 C   0  0  0  0  0  0  0  0  0  0  0  0
    8.4503   13.0496   22.9244 C   0  0  0  0  0  0  0  0  0  0  0  0
    6.1767   16.1210   20.4020 C   0  0  0  0  0  0  0  0  0  0  0  0
    5.8825   14.2796   23.0603 C   0  0  0  0  0  0  0  0  0  0  0  0
    6.6552   16.2575   21.8073 C   0  0  0  0  0  0  0  0  0  0  0  0
    6.9814   14.9548   22.3819 N   0  0  0  0  0  0  0  0  0  0  0  0
    9.2102   14.9370   21.7221 O   0  0  0  0  0  0  0  0  0  0  0  0
    9.3864   10.1202   21.6197 H   0  0  0  0  0  0  0  0  0  0  0  0
    9.3148    9.1989   23.1205 H   0  0  0  0  0  0  0  0  0  0  0  0
    9.9663   10.3033   25.3271 H   0  0  0  0  0  0  0  0  0  0  0  0
   10.4882   11.9862   25.3487 H   0  0  0  0  0  0  0  0  0  0  0  0
    6.3599   11.0194   24.5584 H   0  0  0  0  0  0  0  0  0  0  0  0
    7.5239    9.7315   24.8596 H   0  0  0  0  0  0  0  0  0  0  0  0
   10.6015   13.3153   23.1714 H   0  0  0  0  0  0  0  0  0  0  0  0
   10.1541   12.5536   21.6536 H   0  0  0  0  0  0  0  0  0  0  0  0
    7.6902   11.9769   21.1820 H   0  0  0  0  0  0  0  0  0  0  0  0
    6.4592   12.3450   22.3789 H   0  0  0  0  0  0  0  0  0  0  0  0
    7.1162   13.4582   24.6018 H   0  0  0  0  0  0  0  0  0  0  0  0
    8.7976   13.8516   24.9234 H   0  0  0  0  0  0  0  0  0  0  0  0
   11.1549   10.8831   23.2096 H   0  0  0  0  0  0  0  0  0  0  0  0
    7.0290    9.9166   22.4196 H   0  0  0  0  0  0  0  0  0  0  0  0
    8.1301   11.7835   26.1461 H   0  0  0  0  0  0  0  0  0  0  0  0
    5.2771   15.4883   20.3802 H   0  0  0  0  0  0  0  0  0  0  0  0
    5.9353   17.1155   19.9988 H   0  0  0  0  0  0  0  0  0  0  0  0
    6.9650   15.6586   19.7897 H   0  0  0  0  0  0  0  0  0  0  0  0
    5.8728   14.5690   24.1215 H   0  0  0  0  0  0  0  0  0  0  0  0
    4.9298   14.5692   22.5927 H   0  0  0  0  0  0  0  0  0  0  0  0
    6.0150   13.1907   22.9785 H   0  0  0  0  0  0  0  0  0  0  0  0
    7.5543   16.8911   21.8206 H   0  0  0  0  0  0  0  0  0  0  0  0
    5.8657   16.7287   22.4112 H   0  0  0  0  0  0  0  0  0  0  0  0
  1 11  1  0  0  0  0
  1 15  1  0  0  0  0
  1 16  2  0  0  0  0
  2  8  1  0  0  0  0
  2  9  1  0  0  0  0
  3  8  1  0  0  0  0
  3 10  1  0  0  0  0
  4  9  1  0  0  0  0
  4 10  1  0  0  0  0
  5  8  1  0  0  0  0
  5 11  1  0  0  0  0
  6  9  1  0  0  0  0
  6 11  1  0  0  0  0
  7 10  1  0  0  0  0
  7 11  1  0  0  0  0
 12 14  1  0  0  0  0
 13 15  1  0  0  0  0
 14 15  1  0  0  0  0
  2 17  1  0  0  0  0
  2 18  1  0  0  0  0
  3 19  1  0  0  0  0
  3 20  1  0  0  0  0
  4 21  1  0  0  0  0
  4 22  1  0  0  0  0
  5 23  1  0  0  0  0
  5 24  1  0  0  0  0
  6 25  1  0  0  0  0
  6 26  1  0  0  0  0
  7 27  1  0  0  0  0
  7 28  1  0  0  0  0
  8 29  1  0  0  0  0
  9 30  1  0  0  0  0
 10 31  1  0  0  0  0
 12 32  1  0  0  0  0
 12 33  1  0  0  0  0
 12 34  1  0  0  0  0
 13 35  1  0  0  0  0
 13 36  1  0  0  0  0
 13 37  1  0  0  0  0
 14 38  1  0  0  0  0
 14 39  1  0  0  0  0
M  END
> <Catalog ID>
Z352125154

> <PlateID>
1337959-R-10

> <Well>
C09

> <MW (desalted)>
221.339

> <CLogP>
2.386

> <HBD>
0

> <TPSA>
20.310

> <RotBonds>
2

> <ROCS_ShapeQuery>
x0446_0A_x1080_0A_x0929_0A_x0812_0A_x0719_0A_x1140_0A_x0528_0A_x0310_0A

> <ROCS_TanimotoCombo>
0.383 

> <ROCS_ShapeTanimoto>
0.210 

> <ROCS_ColorTanimoto>
0.172 

> <ROCS_RefTversky>
0.193 

> <ROCS_RefColorTversky>
0.184 

> <ROCS_RefTverskyCombo>
0.377 

> <ROCS_FitTversky>
1.754 

> <ROCS_FitColorTversky>
0.733 

> <ROCS_FitTverskyCombo>
2.487 

> <ROCS_ColorScore>
-6.568

> <ROCS_Overlap>
2276.928

> <ROCS_Rank>
5                   

$$$$
untitled-dbase-600_15
  -OEChem-02082415003D

 30 32  0     0  0  0  0  0  0999 V2000
   11.6600   14.5706   21.1891 C   0  0  0  0  0  0  0  0  0  0  0  0
   11.8315   15.9417   21.4467 C   0  0  0  0  0  0  0  0  0  0  0  0
   11.9909   13.9724   22.3760 C   0  0  0  0  0  0  0  0  0  0  0  0
    9.6282   12.7750   23.4681 C   0  0  0  0  0  0  0  0  0  0  0  0
   10.4235   10.6430   22.9583 C   0  0  0  0  0  0  0  0  0  0  0  0
    6.5442   12.5801   24.1980 C   0  0  0  0  0  0  0  0  0  0  0  0
    7.6181   11.7475   24.9259 C   0  0  0  0  0  0  0  0  0  0  0  0
    7.1116   12.0511   22.8659 C   0  0  0  0  0  0  0  0  0  0  0  0
    8.4317   11.7650   23.6138 C   0  0  0  0  0  0  0  0  0  0  0  0
   11.6187   17.0667   20.5221 C   0  0  0  0  0  0  0  0  0  0  0  0
   12.0432   12.5461   22.8420 C   0  0  0  0  0  0  0  0  0  0  0  0
   12.2378   16.1759   22.6977 N   0  0  0  0  0  0  0  0  0  0  0  0
    9.0633   10.4797   23.2685 N   0  0  0  0  0  0  0  0  0  0  0  0
   10.7202   12.0080   23.0918 N   0  0  0  0  0  0  0  0  0  0  0  0
    9.6146   13.9886   23.6433 O   0  0  0  0  0  0  0  0  0  0  0  0
   11.1911    9.7463   22.6315 O   0  0  0  0  0  0  0  0  0  0  0  0
   12.3375   14.9200   23.2843 O   0  0  0  0  0  0  0  0  0  0  0  0
   11.3432   14.0878   20.2763 H   0  0  0  0  0  0  0  0  0  0  0  0
    5.5074   12.3090   24.4128 H   0  0  0  0  0  0  0  0  0  0  0  0
    6.6639   13.6618   24.3279 H   0  0  0  0  0  0  0  0  0  0  0  0
    8.0809   12.2419   25.7848 H   0  0  0  0  0  0  0  0  0  0  0  0
    7.2714   10.7546   25.2353 H   0  0  0  0  0  0  0  0  0  0  0  0
    6.5958   11.1588   22.4920 H   0  0  0  0  0  0  0  0  0  0  0  0
    7.1649   12.7896   22.0611 H   0  0  0  0  0  0  0  0  0  0  0  0
   10.5808   17.4390   20.5747 H   0  0  0  0  0  0  0  0  0  0  0  0
   12.2879   17.9188   20.7392 H   0  0  0  0  0  0  0  0  0  0  0  0
   11.8179   16.7878   19.4714 H   0  0  0  0  0  0  0  0  0  0  0  0
   12.5289   11.9124   22.0919 H   0  0  0  0  0  0  0  0  0  0  0  0
   12.6215   12.4560   23.7675 H   0  0  0  0  0  0  0  0  0  0  0  0
    8.6034    9.5761   23.2451 H   0  0  0  0  0  0  0  0  0  0  0  0
  1  2  1  0  0  0  0
  1  3  2  0  0  0  0
  2 10  1  0  0  0  0
  2 12  2  0  0  0  0
  3 11  1  0  0  0  0
  3 17  1  0  0  0  0
  4  9  1  0  0  0  0
  4 14  1  0  0  0  0
  4 15  2  0  0  0  0
  5 13  1  0  0  0  0
  5 14  1  0  0  0  0
  5 16  2  0  0  0  0
  6  7  1  0  0  0  0
  6  8  1  0  0  0  0
  7  9  1  0  0  0  0
  8  9  1  0  0  0  0
  9 13  1  0  0  0  0
 11 14  1  0  0  0  0
 12 17  1  0  0  0  0
  1 18  1  0  0  0  0
  6 19  1  0  0  0  0
  6 20  1  0  0  0  0
  7 21  1  0  0  0  0
  7 22  1  0  0  0  0
  8 23  1  0  0  0  0
  8 24  1  0  0  0  0
 10 25  1  0  0  0  0
 10 26  1  0  0  0  0
 10 27  1  0  0  0  0
 11 28  1  0  0  0  0
 11 29  1  0  0  0  0
 13 30  1  0  0  0  0
M  END
> <Catalog ID>
Z995476540

> <PlateID>
1337959-R-14

> <Well>
A02

> <MW (desalted)>
235.239

> <CLogP>
-0.176

> <HBD>
1

> <TPSA>
75.440

> <RotBonds>
2

> <ROCS_ShapeQuery>
x0446_0A_x1080_0A_x0929_0A_x0812_0A_x0719_0A_x1140_0A_x0528_0A_x0310_0A

> <ROCS_TanimotoCombo>
0.382 

> <ROCS_ShapeTanimoto>
0.222 

> <ROCS_ColorTanimoto>
0.159 

> <ROCS_RefTversky>
0.203 

> <ROCS_RefColorTversky>
0.170 

> <ROCS_RefTverskyCombo>
0.373 

> <ROCS_FitTversky>
1.761 

> <ROCS_FitColorTversky>
0.712 

> <ROCS_FitTverskyCombo>
2.473 

> <ROCS_ColorScore>
-6.067

> <ROCS_Overlap>
2394.897

> <ROCS_Rank>
6                   

$$$$
untitled-dbase-342_15
  -OEChem-02082415003D

 40 42  0     1  0  0  0  0  0999 V2000
   10.8720   16.2125   21.3729 C   0  0  0  0  0  0  0  0  0  0  0  0
   11.7878   15.2385   21.6845 C   0  0  0  0  0  0  0  0  0  0  0  0
    9.8003   14.4590   21.8200 C   0  0  0  0  0  0  0  0  0  0  0  0
    8.1734   11.7950   25.3340 C   0  0  0  0  0  0  0  0  0  0  0  0
    9.6900   11.6271   25.1735 C   0  0  0  0  0  0  0  0  0  0  0  0
    7.3158   10.9413   23.0823 C   0  0  0  0  0  0  0  0  0  0  0  0
    9.8519   10.6556   22.8135 C   0  0  0  0  0  0  0  0  0  0  0  0
    7.6783   12.1779   23.9344 C   0  0  2  0  0  0  0  0  0  0  0  0
    9.9553   11.9222   23.6926 C   0  0  1  0  0  0  0  0  0  0  0  0
    8.4837    9.9443   22.9049 C   0  0  0  0  0  0  0  0  0  0  0  0
   11.1054   17.6130   20.9931 C   0  0  0  0  0  0  0  0  0  0  0  0
   13.2511   15.1782   21.7633 C   0  0  0  0  0  0  0  0  0  0  0  0
    8.2585    9.0545   21.6793 C   0  0  0  0  0  0  0  0  0  0  0  0
    8.7828   13.3857   22.0786 C   0  0  0  0  0  0  0  0  0  0  0  0
    9.6001   15.7070   21.4612 N   0  0  0  0  0  0  0  0  0  0  0  0
    8.8686   12.8711   23.4323 N   0  0  0  0  0  0  0  0  0  0  0  0
   11.1033   14.0975   21.9760 O   0  0  0  0  0  0  0  0  0  0  0  0
    8.5236    9.0696   24.0398 O   0  0  0  0  0  0  0  0  0  0  0  0
    7.6964   10.8926   25.7255 H   0  0  0  0  0  0  0  0  0  0  0  0
    7.9738   12.6035   26.0464 H   0  0  0  0  0  0  0  0  0  0  0  0
   10.2031   12.3574   25.8094 H   0  0  0  0  0  0  0  0  0  0  0  0
   10.0298   10.6340   25.4794 H   0  0  0  0  0  0  0  0  0  0  0  0
    6.4579   10.4335   23.5424 H   0  0  0  0  0  0  0  0  0  0  0  0
    6.9854   11.2982   22.0965 H   0  0  0  0  0  0  0  0  0  0  0  0
   10.0391   10.9541   21.7723 H   0  0  0  0  0  0  0  0  0  0  0  0
   10.6568    9.9639   23.0952 H   0  0  0  0  0  0  0  0  0  0  0  0
    6.8013   12.8396   24.0160 H   0  0  0  0  0  0  0  0  0  0  0  0
   10.9530   12.3732   23.5743 H   0  0  0  0  0  0  0  0  0  0  0  0
   11.2131   17.7220   19.8992 H   0  0  0  0  0  0  0  0  0  0  0  0
   10.2808   18.2776   21.3111 H   0  0  0  0  0  0  0  0  0  0  0  0
   12.0196   18.0274   21.4575 H   0  0  0  0  0  0  0  0  0  0  0  0
   13.6151   15.4387   22.7744 H   0  0  0  0  0  0  0  0  0  0  0  0
   13.6468   14.1729   21.5221 H   0  0  0  0  0  0  0  0  0  0  0  0
   13.7420   15.8688   21.0508 H   0  0  0  0  0  0  0  0  0  0  0  0
    9.0900    8.3618   21.5729 H   0  0  0  0  0  0  0  0  0  0  0  0
    8.1889    9.6724   20.7871 H   0  0  0  0  0  0  0  0  0  0  0  0
    7.3354    8.4924   21.8005 H   0  0  0  0  0  0  0  0  0  0  0  0
    7.7684   13.7709   21.9278 H   0  0  0  0  0  0  0  0  0  0  0  0
    8.9164   12.5438   21.3913 H   0  0  0  0  0  0  0  0  0  0  0  0
    7.6703    8.6136   24.0580 H   0  0  0  0  0  0  0  0  0  0  0  0
  1  2  2  0  0  0  0
  1 11  1  0  0  0  0
  1 15  1  0  0  0  0
  2 12  1  0  0  0  0
  2 17  1  0  0  0  0
  3 14  1  0  0  0  0
  3 15  2  0  0  0  0
  3 17  1  0  0  0  0
  4  5  1  0  0  0  0
  4  8  1  0  0  0  0
  5  9  1  0  0  0  0
  6  8  1  0  0  0  0
  6 10  1  0  0  0  0
  7  9  1  0  0  0  0
  7 10  1  0  0  0  0
  8 16  1  0  0  0  0
  9 16  1  0  0  0  0
 10 13  1  0  0  0  0
 10 18  1  0  0  0  0
 14 16  1  0  0  0  0
  4 19  1  0  0  0  0
  4 20  1  0  0  0  0
  5 21  1  0  0  0  0
  5 22  1  0  0  0  0
  6 23  1  0  0  0  0
  6 24  1  0  0  0  0
  7 25  1  0  0  0  0
  7 26  1  0  0  0  0
  8 27  1  0  0  0  0
  9 28  1  0  0  0  0
 11 29  1  0  0  0  0
 11 30  1  0  0  0  0
 11 31  1  0  0  0  0
 12 32  1  0  0  0  0
 12 33  1  0  0  0  0
 12 34  1  0  0  0  0
 13 35  1  0  0  0  0
 13 36  1  0  0  0  0
 13 37  1  0  0  0  0
 14 38  1  0  0  0  0
 14 39  1  0  0  0  0
 18 40  1  0  0  0  0
M  END
> <Catalog ID>
Z1337895016

> <PlateID>
1337959-R-08

> <Well>
C09

> <MW (desalted)>
250.337

> <CLogP>
0.082

> <HBD>
1

> <TPSA>
49.500

> <RotBonds>
2

> <ROCS_ShapeQuery>
x0446_0A_x1080_0A_x0929_0A_x0812_0A_x0719_0A_x1140_0A_x0528_0A_x0310_0A

> <ROCS_TanimotoCombo>
0.382 

> <ROCS_ShapeTanimoto>
0.217 

> <ROCS_ColorTanimoto>
0.164 

> <ROCS_RefTversky>
0.199 

> <ROCS_RefColorTversky>
0.189 

> <ROCS_RefTverskyCombo>
0.388 

> <ROCS_FitTversky>
1.691 

> <ROCS_FitColorTversky>
0.559 

> <ROCS_FitTverskyCombo>
2.251 

> <ROCS_ColorScore>
-6.776

> <ROCS_Overlap>
2353.672

> <ROCS_Rank>
7                   

$$$$
untitled-dbase-142_0
  -OEChem-02082415003D

 30 32  0     0  0  0  0  0  0999 V2000
    9.9191   13.9477   21.7483 C   0  0  0  0  0  0  0  0  0  0  0  0
    8.6554   11.7270   25.2252 C   0  0  0  0  0  0  0  0  0  0  0  0
    7.4761   10.7138   23.2569 C   0  0  0  0  0  0  0  0  0  0  0  0
    9.8620   10.1082   23.7367 C   0  0  0  0  0  0  0  0  0  0  0  0
    8.0956   13.1435   23.2328 C   0  0  0  0  0  0  0  0  0  0  0  0
   10.4855   12.5368   23.7135 C   0  0  0  0  0  0  0  0  0  0  0  0
    9.3044   11.5233   21.7421 C   0  0  0  0  0  0  0  0  0  0  0  0
    7.6167   11.9805   24.1190 C   0  0  0  0  0  0  0  0  0  0  0  0
   10.0162   11.3713   24.6017 C   0  0  0  0  0  0  0  0  0  0  0  0
    8.8303   10.3530   22.6217 C   0  0  0  0  0  0  0  0  0  0  0  0
    9.4563   12.7976   22.5957 C   0  0  0  0  0  0  0  0  0  0  0  0
   11.1214   13.7248   21.1198 N   0  0  0  0  0  0  0  0  0  0  0  0
    9.2595   14.9772   21.6285 O   0  0  0  0  0  0  0  0  0  0  0  0
    8.7547   12.6184   25.8569 H   0  0  0  0  0  0  0  0  0  0  0  0
    8.3174   10.9111   25.8755 H   0  0  0  0  0  0  0  0  0  0  0  0
    7.1177    9.8799   23.8730 H   0  0  0  0  0  0  0  0  0  0  0  0
    6.7263   10.8758   22.4729 H   0  0  0  0  0  0  0  0  0  0  0  0
   10.8294    9.8341   23.2982 H   0  0  0  0  0  0  0  0  0  0  0  0
    9.5452    9.2636   24.3610 H   0  0  0  0  0  0  0  0  0  0  0  0
    7.3510   13.3515   22.4531 H   0  0  0  0  0  0  0  0  0  0  0  0
    8.1755   14.0600   23.8325 H   0  0  0  0  0  0  0  0  0  0  0  0
   10.6244   13.4384   24.3246 H   0  0  0  0  0  0  0  0  0  0  0  0
   11.4679   12.3058   23.2810 H   0  0  0  0  0  0  0  0  0  0  0  0
   10.2587   11.2675   21.2631 H   0  0  0  0  0  0  0  0  0  0  0  0
    8.5876   11.6919   20.9275 H   0  0  0  0  0  0  0  0  0  0  0  0
    6.6500   12.2314   24.5690 H   0  0  0  0  0  0  0  0  0  0  0  0
   10.7508   11.1903   25.3940 H   0  0  0  0  0  0  0  0  0  0  0  0
    8.7240    9.4500   22.0106 H   0  0  0  0  0  0  0  0  0  0  0  0
   11.5906   12.8371   21.2668 H   0  0  0  0  0  0  0  0  0  0  0  0
   11.5586   14.4124   20.5148 H   0  0  0  0  0  0  0  0  0  0  0  0
  1 11  1  0  0  0  0
  1 12  1  0  0  0  0
  1 13  2  0  0  0  0
  2  8  1  0  0  0  0
  2  9  1  0  0  0  0
  3  8  1  0  0  0  0
  3 10  1  0  0  0  0
  4  9  1  0  0  0  0
  4 10  1  0  0  0  0
  5  8  1  0  0  0  0
  5 11  1  0  0  0  0
  6  9  1  0  0  0  0
  6 11  1  0  0  0  0
  7 10  1  0  0  0  0
  7 11  1  0  0  0  0
  2 14  1  0  0  0  0
  2 15  1  0  0  0  0
  3 16  1  0  0  0  0
  3 17  1  0  0  0  0
  4 18  1  0  0  0  0
  4 19  1  0  0  0  0
  5 20  1  0  0  0  0
  5 21  1  0  0  0  0
  6 22  1  0  0  0  0
  6 23  1  0  0  0  0
  7 24  1  0  0  0  0
  7 25  1  0  0  0  0
  8 26  1  0  0  0  0
  9 27  1  0  0  0  0
 10 28  1  0  0  0  0
 12 29  1  0  0  0  0
 12 30  1  0  0  0  0
M  END
> <Catalog ID>
Z56757306

> <PlateID>
1337959-R-03

> <Well>
G08

> <MW (desalted)>
179.259

> <CLogP>
1.545

> <HBD>
1

> <TPSA>
43.090

> <RotBonds>
1

> <ROCS_ShapeQuery>
x0446_0A_x1080_0A_x0929_0A_x0812_0A_x0719_0A_x1140_0A_x0528_0A_x0310_0A

> <ROCS_TanimotoCombo>
0.381 

> <ROCS_ShapeTanimoto>
0.195 

> <ROCS_ColorTanimoto>
0.186 

> <ROCS_RefTversky>
0.180 

> <ROCS_RefColorTversky>
0.200 

> <ROCS_RefTverskyCombo>
0.380 

> <ROCS_FitTversky>
1.801 

> <ROCS_FitColorTversky>
0.722 

> <ROCS_FitTverskyCombo>
2.523 

> <ROCS_ColorScore>
-7.154

> <ROCS_Overlap>
2120.389

> <ROCS_Rank>
8                   

$$$$
untitled-dbase-591_0
  -OEChem-02082415003D

 39 41  0     1  0  0  0  0  0999 V2000
   13.1872   14.7675   22.3307 C   0  0  0  0  0  0  0  0  0  0  0  0
   12.7172   15.6453   21.3539 C   0  0  0  0  0  0  0  0  0  0  0  0
   12.2850   14.0446   23.1112 C   0  0  0  0  0  0  0  0  0  0  0  0
   11.3450   15.8003   21.1576 C   0  0  0  0  0  0  0  0  0  0  0  0
   10.9128   14.1996   22.9149 C   0  0  0  0  0  0  0  0  0  0  0  0
   10.4427   15.0774   21.9381 C   0  0  0  0  0  0  0  0  0  0  0  0
    5.7699   12.6736   23.4131 C   0  0  0  0  0  0  0  0  0  0  0  0
    6.9864   13.4525   23.9539 C   0  0  0  0  0  0  0  0  0  0  0  0
    6.7651   11.8211   22.5997 C   0  0  0  0  0  0  0  0  0  0  0  0
    9.7888   11.3116   22.5634 C   0  0  0  0  0  0  0  0  0  0  0  0
    9.9687   10.3309   23.7215 C   0  0  0  0  0  0  0  0  0  0  0  0
    8.0450   11.1777   24.7977 C   0  0  0  0  0  0  0  0  0  0  0  0
    7.8456   12.1827   23.6715 C   0  0  0  0  0  0  0  0  0  0  0  0
    8.7131   16.1585   20.7151 C   0  0  0  0  0  0  0  0  0  0  0  0
    9.9564   13.4136   23.7644 C   0  0  0  0  0  0  0  0  0  0  0  0
    9.0908   12.5483   22.9586 N   0  0  1  0  0  0  0  0  0  0  0  0
    8.7018   10.0099   24.2957 O   0  0  0  0  0  0  0  0  0  0  0  0
    9.1056   15.2411   21.7341 O   0  0  0  0  0  0  0  0  0  0  0  0
   14.2558   14.6469   22.4844 H   0  0  0  0  0  0  0  0  0  0  0  0
   13.4200   16.2086   20.7471 H   0  0  0  0  0  0  0  0  0  0  0  0
   12.6613   13.3644   23.8706 H   0  0  0  0  0  0  0  0  0  0  0  0
   10.9848   16.4857   20.3952 H   0  0  0  0  0  0  0  0  0  0  0  0
    5.2246   12.1116   24.1797 H   0  0  0  0  0  0  0  0  0  0  0  0
    5.0552   13.2568   22.8269 H   0  0  0  0  0  0  0  0  0  0  0  0
    7.2150   14.3363   23.3450 H   0  0  0  0  0  0  0  0  0  0  0  0
    6.9129   13.7607   25.0008 H   0  0  0  0  0  0  0  0  0  0  0  0
    6.5033   10.7626   22.5102 H   0  0  0  0  0  0  0  0  0  0  0  0
    6.9389   12.2213   21.5924 H   0  0  0  0  0  0  0  0  0  0  0  0
   10.7601   11.5464   22.1123 H   0  0  0  0  0  0  0  0  0  0  0  0
    9.2013   10.8237   21.7754 H   0  0  0  0  0  0  0  0  0  0  0  0
   10.4060    9.3989   23.3487 H   0  0  0  0  0  0  0  0  0  0  0  0
   10.6386   10.7166   24.4980 H   0  0  0  0  0  0  0  0  0  0  0  0
    8.6280   11.5947   25.6270 H   0  0  0  0  0  0  0  0  0  0  0  0
    7.0862   10.8547   25.2168 H   0  0  0  0  0  0  0  0  0  0  0  0
    7.6226   16.1943   20.6564 H   0  0  0  0  0  0  0  0  0  0  0  0
    9.1300   15.8397   19.7564 H   0  0  0  0  0  0  0  0  0  0  0  0
    9.0952   17.1513   20.9642 H   0  0  0  0  0  0  0  0  0  0  0  0
   10.5006   12.7802   24.4734 H   0  0  0  0  0  0  0  0  0  0  0  0
    9.3131   14.0788   24.3500 H   0  0  0  0  0  0  0  0  0  0  0  0
  1  2  2  0  0  0  0
  1  3  1  0  0  0  0
  2  4  1  0  0  0  0
  3  5  2  0  0  0  0
  4  6  2  0  0  0  0
  5  6  1  0  0  0  0
  5 15  1  0  0  0  0
  6 18  1  0  0  0  0
  7  8  1  0  0  0  0
  7  9  1  0  0  0  0
  8 13  1  0  0  0  0
  9 13  1  0  0  0  0
 10 11  1  0  0  0  0
 10 16  1  0  0  0  0
 11 17  1  0  0  0  0
 12 13  1  0  0  0  0
 12 17  1  0  0  0  0
 13 16  1  0  0  0  0
 14 18  1  0  0  0  0
 15 16  1  0  0  0  0
  1 19  1  0  0  0  0
  2 20  1  0  0  0  0
  3 21  1  0  0  0  0
  4 22  1  0  0  0  0
  7 23  1  0  0  0  0
  7 24  1  0  0  0  0
  8 25  1  0  0  0  0
  8 26  1  0  0  0  0
  9 27  1  0  0  0  0
  9 28  1  0  0  0  0
 10 29  1  0  0  0  0
 10 30  1  0  0  0  0
 11 31  1  0  0  0  0
 11 32  1  0  0  0  0
 12 33  1  0  0  0  0
 12 34  1  0  0  0  0
 14 35  1  0  0  0  0
 14 36  1  0  0  0  0
 14 37  1  0  0  0  0
 15 38  1  0  0  0  0
 15 39  1  0  0  0  0
M  END
> <Catalog ID>
Z1569171509

> <PlateID>
1337959-R-13

> <Well>
G05

> <MW (desalted)>
247.333

> <CLogP>
2.681

> <HBD>
0

> <TPSA>
21.700

> <RotBonds>
3

> <ROCS_ShapeQuery>
x0446_0A_x1080_0A_x0929_0A_x0812_0A_x0719_0A_x1140_0A_x0528_0A_x0310_0A

> <ROCS_TanimotoCombo>
0.376 

> <ROCS_ShapeTanimoto>
0.226 

> <ROCS_ColorTanimoto>
0.150 

> <ROCS_RefTversky>
0.206 

> <ROCS_RefColorTversky>
0.158 

> <ROCS_RefTverskyCombo>
0.364 

> <ROCS_FitTversky>
1.755 

> <ROCS_FitColorTversky>
0.745 

> <ROCS_FitTverskyCombo>
2.500 

> <ROCS_ColorScore>
-5.634

> <ROCS_Overlap>
2428.026

> <ROCS_Rank>
9                   

$$$$
untitled-dbase-114_1
  -OEChem-02082415003D

 32 34  0     0  0  0  0  0  0999 V2000
   10.1110   13.8249   21.8952 C   0  0  0  0  0  0  0  0  0  0  0  0
    7.5650   10.4629   23.8953 C   0  0  0  0  0  0  0  0  0  0  0  0
    7.5779   12.8768   23.2334 C   0  0  0  0  0  0  0  0  0  0  0  0
    8.6912   11.1613   21.7674 C   0  0  0  0  0  0  0  0  0  0  0  0
    8.9563   12.1123   25.1699 C   0  0  0  0  0  0  0  0  0  0  0  0
   10.0586   10.3872   23.7004 C   0  0  0  0  0  0  0  0  0  0  0  0
    7.5009   11.4339   22.7050 C   0  0  0  0  0  0  0  0  0  0  0  0
    8.8851   10.6616   24.6581 C   0  0  0  0  0  0  0  0  0  0  0  0
    8.9119   13.1031   23.9825 C   0  0  0  0  0  0  0  0  0  0  0  0
   10.0276   11.3838   22.5169 C   0  0  0  0  0  0  0  0  0  0  0  0
   10.1133   12.8409   23.0415 C   0  0  0  0  0  0  0  0  0  0  0  0
   11.1527   13.6529   21.0146 N   0  0  0  0  0  0  0  0  0  0  0  0
   11.3956   13.1145   23.6989 N   0  0  0  0  0  0  0  0  0  0  0  0
    9.2386   14.6811   21.7717 O   0  0  0  0  0  0  0  0  0  0  0  0
    6.7137   10.6327   24.5660 H   0  0  0  0  0  0  0  0  0  0  0  0
    7.4879    9.4279   23.5405 H   0  0  0  0  0  0  0  0  0  0  0  0
    7.4783   13.5845   22.4023 H   0  0  0  0  0  0  0  0  0  0  0  0
    6.7351   13.0724   23.9083 H   0  0  0  0  0  0  0  0  0  0  0  0
    8.6424   10.1307   21.3932 H   0  0  0  0  0  0  0  0  0  0  0  0
    8.6304   11.8126   20.8878 H   0  0  0  0  0  0  0  0  0  0  0  0
    8.1085   12.3063   25.8397 H   0  0  0  0  0  0  0  0  0  0  0  0
    9.8566   12.2575   25.7764 H   0  0  0  0  0  0  0  0  0  0  0  0
   11.0095   10.4532   24.2409 H   0  0  0  0  0  0  0  0  0  0  0  0
    9.9952    9.3593   23.3206 H   0  0  0  0  0  0  0  0  0  0  0  0
    6.5605   11.2884   22.1613 H   0  0  0  0  0  0  0  0  0  0  0  0
    8.9280    9.9675   25.5050 H   0  0  0  0  0  0  0  0  0  0  0  0
    8.9336   14.1319   24.3637 H   0  0  0  0  0  0  0  0  0  0  0  0
   10.8569   11.1658   21.8321 H   0  0  0  0  0  0  0  0  0  0  0  0
   11.8204   12.9092   21.1895 H   0  0  0  0  0  0  0  0  0  0  0  0
   11.2805   14.2399   20.1967 H   0  0  0  0  0  0  0  0  0  0  0  0
   11.2067   13.3907   24.6312 H   0  0  0  0  0  0  0  0  0  0  0  0
   11.9320   12.2821   23.6766 H   0  0  0  0  0  0  0  0  0  0  0  0
  1 11  1  0  0  0  0
  1 12  1  0  0  0  0
  1 14  2  0  0  0  0
  2  7  1  0  0  0  0
  2  8  1  0  0  0  0
  3  7  1  0  0  0  0
  3  9  1  0  0  0  0
  4  7  1  0  0  0  0
  4 10  1  0  0  0  0
  5  8  1  0  0  0  0
  5  9  1  0  0  0  0
  6  8  1  0  0  0  0
  6 10  1  0  0  0  0
  9 11  1  0  0  0  0
 10 11  1  0  0  0  0
 11 13  1  0  0  0  0
  2 15  1  0  0  0  0
  2 16  1  0  0  0  0
  3 17  1  0  0  0  0
  3 18  1  0  0  0  0
  4 19  1  0  0  0  0
  4 20  1  0  0  0  0
  5 21  1  0  0  0  0
  5 22  1  0  0  0  0
  6 23  1  0  0  0  0
  6 24  1  0  0  0  0
  7 25  1  0  0  0  0
  8 26  1  0  0  0  0
  9 27  1  0  0  0  0
 10 28  1  0  0  0  0
 12 29  1  0  0  0  0
 12 30  1  0  0  0  0
 13 31  1  0  0  0  0
 13 32  1  0  0  0  0
M  END
> <Catalog ID>
Z2286614876

> <PlateID>
1337959-R-03

> <Well>
B09

> <MW (desalted)>
194.273

> <CLogP>
0.688

> <HBD>
2

> <TPSA>
69.110

> <RotBonds>
1

> <ROCS_ShapeQuery>
x0446_0A_x1080_0A_x0929_0A_x0812_0A_x0719_0A_x1140_0A_x0528_0A_x0310_0A

> <ROCS_TanimotoCombo>
0.375 

> <ROCS_ShapeTanimoto>
0.206 

> <ROCS_ColorTanimoto>
0.170 

> <ROCS_RefTversky>
0.188 

> <ROCS_RefColorTversky>
0.193 

> <ROCS_RefTverskyCombo>
0.381 

> <ROCS_FitTversky>
1.818 

> <ROCS_FitColorTversky>
0.586 

> <ROCS_FitTverskyCombo>
2.404 

> <ROCS_ColorScore>
-6.909

> <ROCS_Overlap>
2222.102

> <ROCS_Rank>
10                  

$$$$
untitled-dbase-432_0
  -OEChem-02082415003D

 33 35  0     0  0  0  0  0  0999 V2000
    8.1393   14.4127   22.1688 C   0  0  0  0  0  0  0  0  0  0  0  0
    9.2686   10.2884   22.7448 C   0  0  0  0  0  0  0  0  0  0  0  0
    9.6475   11.4505   24.9352 C   0  0  0  0  0  0  0  0  0  0  0  0
    7.3364   10.7271   24.2831 C   0  0  0  0  0  0  0  0  0  0  0  0
    9.8567   12.7261   22.7864 C   0  0  0  0  0  0  0  0  0  0  0  0
    7.5417   12.0014   22.1333 C   0  0  0  0  0  0  0  0  0  0  0  0
    7.9216   13.1660   24.3261 C   0  0  0  0  0  0  0  0  0  0  0  0
   10.0961   11.3665   23.4657 C   0  0  0  0  0  0  0  0  0  0  0  0
    7.7720   10.6388   22.8100 C   0  0  0  0  0  0  0  0  0  0  0  0
    8.1530   11.8082   25.0125 C   0  0  0  0  0  0  0  0  0  0  0  0
    8.3606   13.0931   22.8504 C   0  0  0  0  0  0  0  0  0  0  0  0
    6.3896   16.0762   21.5740 C   0  0  0  0  0  0  0  0  0  0  0  0
    6.8234   14.8345   22.1730 N   0  0  0  0  0  0  0  0  0  0  0  0
    9.0920   15.0058   21.6765 O   0  0  0  0  0  0  0  0  0  0  0  0
    9.5889   10.2078   21.6987 H   0  0  0  0  0  0  0  0  0  0  0  0
    9.4441    9.3101   23.2085 H   0  0  0  0  0  0  0  0  0  0  0  0
    9.8294   10.4923   25.4372 H   0  0  0  0  0  0  0  0  0  0  0  0
   10.2410   12.2054   25.4652 H   0  0  0  0  0  0  0  0  0  0  0  0
    6.2664   10.9612   24.3440 H   0  0  0  0  0  0  0  0  0  0  0  0
    7.4779    9.7563   24.7739 H   0  0  0  0  0  0  0  0  0  0  0  0
   10.4610   13.5010   23.2760 H   0  0  0  0  0  0  0  0  0  0  0  0
   10.1968   12.6858   21.7431 H   0  0  0  0  0  0  0  0  0  0  0  0
    7.8246   11.9437   21.0740 H   0  0  0  0  0  0  0  0  0  0  0  0
    6.4730   12.2525   22.1515 H   0  0  0  0  0  0  0  0  0  0  0  0
    6.8618   13.4441   24.3967 H   0  0  0  0  0  0  0  0  0  0  0  0
    8.4806   13.9504   24.8530 H   0  0  0  0  0  0  0  0  0  0  0  0
   11.1602   11.1106   23.4174 H   0  0  0  0  0  0  0  0  0  0  0  0
    7.1880    9.8669   22.2968 H   0  0  0  0  0  0  0  0  0  0  0  0
    7.8394   11.8652   26.0607 H   0  0  0  0  0  0  0  0  0  0  0  0
    6.4393   16.8817   22.3215 H   0  0  0  0  0  0  0  0  0  0  0  0
    7.0450   16.3226   20.7256 H   0  0  0  0  0  0  0  0  0  0  0  0
    5.3541   15.9696   21.2184 H   0  0  0  0  0  0  0  0  0  0  0  0
    6.1278   14.2436   22.6185 H   0  0  0  0  0  0  0  0  0  0  0  0
  1 11  1  0  0  0  0
  1 13  1  0  0  0  0
  1 14  2  0  0  0  0
  2  8  1  0  0  0  0
  2  9  1  0  0  0  0
  3  8  1  0  0  0  0
  3 10  1  0  0  0  0
  4  9  1  0  0  0  0
  4 10  1  0  0  0  0
  5  8  1  0  0  0  0
  5 11  1  0  0  0  0
  6  9  1  0  0  0  0
  6 11  1  0  0  0  0
  7 10  1  0  0  0  0
  7 11  1  0  0  0  0
 12 13  1  0  0  0  0
  2 15  1  0  0  0  0
  2 16  1  0  0  0  0
  3 17  1  0  0  0  0
  3 18  1  0  0  0  0
  4 19  1  0  0  0  0
  4 20  1  0  0  0  0
  5 21  1  0  0  0  0
  5 22  1  0  0  0  0
  6 23  1  0  0  0  0
  6 24  1  0  0  0  0
  7 25  1  0  0  0  0
  7 26  1  0  0  0  0
  8 27  1  0  0  0  0
  9 28  1  0  0  0  0
 10 29  1  0  0  0  0
 12 30  1  0  0  0  0
 12 31  1  0  0  0  0
 12 32  1  0  0  0  0
 13 33  1  0  0  0  0
M  END
> <Catalog ID>
Z56853704

> <PlateID>
1337959-R-10

> <Well>
C02

> <MW (desalted)>
193.285

> <CLogP>
1.581

> <HBD>
1

> <TPSA>
29.100

> <RotBonds>
1

> <ROCS_ShapeQuery>
x0446_0A_x1080_0A_x0929_0A_x0812_0A_x0719_0A_x1140_0A_x0528_0A_x0310_0A

> <ROCS_TanimotoCombo>
0.374 

> <ROCS_ShapeTanimoto>
0.201 

> <ROCS_ColorTanimoto>
0.174 

> <ROCS_RefTversky>
0.184 

> <ROCS_RefColorTversky>
0.189 

> <ROCS_RefTverskyCombo>
0.373 

> <ROCS_FitTversky>
1.788 

> <ROCS_FitColorTversky>
0.682 

> <ROCS_FitTverskyCombo>
2.470 

> <ROCS_ColorScore>
-6.755

> <ROCS_Overlap>
2175.273

> <ROCS_Rank>
11                  

$$$$
untitled-dbase-347_7
  -OEChem-02082415003D

 30 32  0     1  0  0  0  0  0999 V2000
   12.4394   16.0045   22.4676 C   0  0  0  0  0  0  0  0  0  0  0  0
   12.8342   14.7108   22.1269 C   0  0  0  0  0  0  0  0  0  0  0  0
   11.0844   16.3079   22.6009 C   0  0  0  0  0  0  0  0  0  0  0  0
   11.8741   13.7205   21.9193 C   0  0  0  0  0  0  0  0  0  0  0  0
   10.1243   15.3176   22.3933 C   0  0  0  0  0  0  0  0  0  0  0  0
    6.9306   13.2147   23.9223 C   0  0  0  0  0  0  0  0  0  0  0  0
    5.7960   13.0351   24.7006 C   0  0  0  0  0  0  0  0  0  0  0  0
    6.5425   11.0230   25.5652 C   0  0  0  0  0  0  0  0  0  0  0  0
    7.6953   11.1107   24.8209 C   0  0  0  0  0  0  0  0  0  0  0  0
    7.8693   12.2042   23.9830 C   0  0  0  0  0  0  0  0  0  0  0  0
   10.5191   14.0239   22.0525 C   0  0  0  0  0  0  0  0  0  0  0  0
    8.8841   10.2126   24.8061 C   0  0  0  0  0  0  0  0  0  0  0  0
    9.6864   10.7558   23.6089 C   0  0  0  0  0  0  0  0  0  0  0  0
    5.5740   11.9664   25.5132 N   0  0  0  0  0  0  0  0  0  0  0  0
    9.1561   12.1401   23.3556 N   0  0  1  0  0  0  0  0  0  0  0  0
    8.0671   13.4339   21.4100 O   0  0  0  0  0  0  0  0  0  0  0  0
    9.8901   11.7669   20.9146 O   0  0  0  0  0  0  0  0  0  0  0  0
    9.3023   12.7690   21.7861 S   0  0  0  0  0  0  0  0  0  0  0  0
   13.1865   16.7763   22.6287 H   0  0  0  0  0  0  0  0  0  0  0  0
   13.8890   14.4745   22.0220 H   0  0  0  0  0  0  0  0  0  0  0  0
   10.7774   17.3153   22.8655 H   0  0  0  0  0  0  0  0  0  0  0  0
   12.1925   12.7161   21.6533 H   0  0  0  0  0  0  0  0  0  0  0  0
    9.0715   15.5653   22.4985 H   0  0  0  0  0  0  0  0  0  0  0  0
    7.0553   14.0984   23.3106 H   0  0  0  0  0  0  0  0  0  0  0  0
    4.9966   13.7696   24.6877 H   0  0  0  0  0  0  0  0  0  0  0  0
    6.3470   10.1855   26.2244 H   0  0  0  0  0  0  0  0  0  0  0  0
    9.4645   10.2653   25.7315 H   0  0  0  0  0  0  0  0  0  0  0  0
    8.5710    9.1789   24.6253 H   0  0  0  0  0  0  0  0  0  0  0  0
   10.7512   10.8094   23.8670 H   0  0  0  0  0  0  0  0  0  0  0  0
    9.5653   10.1260   22.7228 H   0  0  0  0  0  0  0  0  0  0  0  0
  1  2  2  0  0  0  0
  1  3  1  0  0  0  0
  2  4  1  0  0  0  0
  3  5  2  0  0  0  0
  4 11  2  0  0  0  0
  5 11  1  0  0  0  0
  6  7  1  0  0  0  0
  6 10  2  0  0  0  0
  7 14  2  0  0  0  0
  8  9  2  0  0  0  0
  8 14  1  0  0  0  0
  9 10  1  0  0  0  0
  9 12  1  0  0  0  0
 10 15  1  0  0  0  0
 11 18  1  0  0  0  0
 12 13  1  0  0  0  0
 13 15  1  0  0  0  0
 15 18  1  0  0  0  0
 16 18  2  0  0  0  0
 17 18  2  0  0  0  0
  1 19  1  0  0  0  0
  2 20  1  0  0  0  0
  3 21  1  0  0  0  0
  4 22  1  0  0  0  0
  5 23  1  0  0  0  0
  6 24  1  0  0  0  0
  7 25  1  0  0  0  0
  8 26  1  0  0  0  0
 12 27  1  0  0  0  0
 12 28  1  0  0  0  0
 13 29  1  0  0  0  0
 13 30  1  0  0  0  0
M  END
> <Catalog ID>
Z1343519270

> <PlateID>
1337959-R-08

> <Well>
D09

> <MW (desalted)>
260.312

> <CLogP>
2.103

> <HBD>
0

> <TPSA>
50.270

> <RotBonds>
1

> <ROCS_ShapeQuery>
x0446_0A_x1080_0A_x0929_0A_x0812_0A_x0719_0A_x1140_0A_x0528_0A_x0310_0A

> <ROCS_TanimotoCombo>
0.373 

> <ROCS_ShapeTanimoto>
0.221 

> <ROCS_ColorTanimoto>
0.153 

> <ROCS_RefTversky>
0.202 

> <ROCS_RefColorTversky>
0.164 

> <ROCS_RefTverskyCombo>
0.366 

> <ROCS_FitTversky>
1.721 

> <ROCS_FitColorTversky>
0.686 

> <ROCS_FitTverskyCombo>
2.408 

> <ROCS_ColorScore>
-5.854

> <ROCS_Overlap>
2385.725

> <ROCS_Rank>
12                  

$$$$
untitled-dbase-518_0
  -OEChem-02082415003D

 33 35  0     0  0  0  0  0  0999 V2000
   10.2456   14.5274   21.2660 C   0  0  0  0  0  0  0  0  0  0  0  0
    8.2117   10.0073   23.1095 C   0  0  0  0  0  0  0  0  0  0  0  0
    7.4100   12.0868   24.2594 C   0  0  0  0  0  0  0  0  0  0  0  0
    9.4831   10.9284   25.0654 C   0  0  0  0  0  0  0  0  0  0  0  0
    8.3827   12.2254   21.9524 C   0  0  0  0  0  0  0  0  0  0  0  0
   10.4578   11.0656   22.7593 C   0  0  0  0  0  0  0  0  0  0  0  0
    9.6553   13.1482   23.9114 C   0  0  0  0  0  0  0  0  0  0  0  0
    7.5285   11.3698   22.9037 C   0  0  0  0  0  0  0  0  0  0  0  0
    9.6121   10.2053   23.7139 C   0  0  0  0  0  0  0  0  0  0  0  0
    8.8062   12.2958   24.8701 C   0  0  0  0  0  0  0  0  0  0  0  0
    9.7928   12.4434   22.5445 C   0  0  0  0  0  0  0  0  0  0  0  0
   11.2190   15.1692   20.3338 C   0  0  0  0  0  0  0  0  0  0  0  0
   10.5934   13.2457   21.6460 N   0  0  0  0  0  0  0  0  0  0  0  0
    9.2492   15.1469   21.6196 O   0  0  0  0  0  0  0  0  0  0  0  0
    7.6034    9.3796   23.7720 H   0  0  0  0  0  0  0  0  0  0  0  0
    8.2883    9.4779   22.1518 H   0  0  0  0  0  0  0  0  0  0  0  0
    6.9093   13.0542   24.1291 H   0  0  0  0  0  0  0  0  0  0  0  0
    6.7878   11.4956   24.9425 H   0  0  0  0  0  0  0  0  0  0  0  0
    8.8968   10.3170   25.7624 H   0  0  0  0  0  0  0  0  0  0  0  0
   10.4745   11.0615   25.5151 H   0  0  0  0  0  0  0  0  0  0  0  0
    8.4515   11.7275   20.9764 H   0  0  0  0  0  0  0  0  0  0  0  0
    7.8875   13.1907   21.7842 H   0  0  0  0  0  0  0  0  0  0  0  0
   11.4661   11.1902   23.1753 H   0  0  0  0  0  0  0  0  0  0  0  0
   10.5711   10.5438   21.8000 H   0  0  0  0  0  0  0  0  0  0  0  0
    9.1880   14.1336   23.7863 H   0  0  0  0  0  0  0  0  0  0  0  0
   10.6454   13.3186   24.3543 H   0  0  0  0  0  0  0  0  0  0  0  0
    6.5312   11.2221   22.4747 H   0  0  0  0  0  0  0  0  0  0  0  0
   10.0935    9.2319   23.8593 H   0  0  0  0  0  0  0  0  0  0  0  0
    8.7153   12.8047   25.8362 H   0  0  0  0  0  0  0  0  0  0  0  0
   10.9791   14.9747   19.2761 H   0  0  0  0  0  0  0  0  0  0  0  0
   11.2341   16.2666   20.4319 H   0  0  0  0  0  0  0  0  0  0  0  0
   12.2673   14.8531   20.4561 H   0  0  0  0  0  0  0  0  0  0  0  0
   11.4515   12.8481   21.2773 H   0  0  0  0  0  0  0  0  0  0  0  0
  1 12  1  0  0  0  0
  1 13  1  0  0  0  0
  1 14  2  0  0  0  0
  2  8  1  0  0  0  0
  2  9  1  0  0  0  0
  3  8  1  0  0  0  0
  3 10  1  0  0  0  0
  4  9  1  0  0  0  0
  4 10  1  0  0  0  0
  5  8  1  0  0  0  0
  5 11  1  0  0  0  0
  6  9  1  0  0  0  0
  6 11  1  0  0  0  0
  7 10  1  0  0  0  0
  7 11  1  0  0  0  0
 11 13  1  0  0  0  0
  2 15  1  0  0  0  0
  2 16  1  0  0  0  0
  3 17  1  0  0  0  0
  3 18  1  0  0  0  0
  4 19  1  0  0  0  0
  4 20  1  0  0  0  0
  5 21  1  0  0  0  0
  5 22  1  0  0  0  0
  6 23  1  0  0  0  0
  6 24  1  0  0  0  0
  7 25  1  0  0  0  0
  7 26  1  0  0  0  0
  8 27  1  0  0  0  0
  9 28  1  0  0  0  0
 10 29  1  0  0  0  0
 12 30  1  0  0  0  0
 12 31  1  0  0  0  0
 12 32  1  0  0  0  0
 13 33  1  0  0  0  0
M  END
> <Catalog ID>
Z27687036

> <PlateID>
1337959-R-12

> <Well>
C02

> <MW (desalted)>
193.285

> <CLogP>
1.581

> <HBD>
1

> <TPSA>
29.100

> <RotBonds>
1

> <ROCS_ShapeQuery>
x0446_0A_x1080_0A_x0929_0A_x0812_0A_x0719_0A_x1140_0A_x0528_0A_x0310_0A

> <ROCS_TanimotoCombo>
0.373 

> <ROCS_ShapeTanimoto>
0.197 

> <ROCS_ColorTanimoto>
0.177 

> <ROCS_RefTversky>
0.181 

> <ROCS_RefColorTversky>
0.192 

> <ROCS_RefTverskyCombo>
0.373 

> <ROCS_FitTversky>
1.759 

> <ROCS_FitColorTversky>
0.692 

> <ROCS_FitTverskyCombo>
2.450 

> <ROCS_ColorScore>
-6.851

> <ROCS_Overlap>
2137.678

> <ROCS_Rank>
13                  

$$$$
untitled-dbase-66_0
  -OEChem-02082415003D

 31 33  0     1  0  0  0  0  0999 V2000
    9.5828   14.2233   22.7301 C   0  0  0  0  0  0  0  0  0  0  0  0
    6.9236   11.1028   24.0376 C   0  0  0  0  0  0  0  0  0  0  0  0
    8.6275   10.0298   22.5402 C   0  0  0  0  0  0  0  0  0  0  0  0
    7.9805   12.4262   22.1874 C   0  0  0  0  0  0  0  0  0  0  0  0
    8.5480   12.9321   24.5806 C   0  0  0  0  0  0  0  0  0  0  0  0
   10.2551   11.8586   23.0773 C   0  0  0  0  0  0  0  0  0  0  0  0
    7.4647   11.0357   22.5988 C   0  0  0  0  0  0  0  0  0  0  0  0
    8.0397   11.5407   25.0077 C   0  0  2  0  0  0  0  0  0  0  0  0
    9.7554   10.4618   23.4995 C   0  0  1  0  0  0  0  0  0  0  0  0
    9.2234   10.5487   24.9479 C   0  0  0  0  0  0  0  0  0  0  0  0
    9.0948   12.8638   23.1477 C   0  0  0  0  0  0  0  0  0  0  0  0
    8.8311    9.2291   25.4459 N   0  0  0  0  0  0  0  0  0  0  0  0
    9.1535   14.8620   21.7808 O   0  0  0  0  0  0  0  0  0  0  0  0
   10.5729   14.6497   23.5517 O   0  0  0  0  0  0  0  0  0  0  0  0
    6.0904   11.8151   24.0871 H   0  0  0  0  0  0  0  0  0  0  0  0
    6.5169   10.1280   24.3315 H   0  0  0  0  0  0  0  0  0  0  0  0
    8.2686    9.0251   22.7928 H   0  0  0  0  0  0  0  0  0  0  0  0
    9.0159    9.9721   21.5156 H   0  0  0  0  0  0  0  0  0  0  0  0
    8.3493   12.3979   21.1536 H   0  0  0  0  0  0  0  0  0  0  0  0
    7.1546   13.1497   22.1988 H   0  0  0  0  0  0  0  0  0  0  0  0
    7.7309   13.6625   24.6485 H   0  0  0  0  0  0  0  0  0  0  0  0
    9.3258   13.2771   25.2744 H   0  0  0  0  0  0  0  0  0  0  0  0
   11.0794   12.1753   23.7297 H   0  0  0  0  0  0  0  0  0  0  0  0
   10.6682   11.8141   22.0609 H   0  0  0  0  0  0  0  0  0  0  0  0
    6.6672   10.7209   21.9167 H   0  0  0  0  0  0  0  0  0  0  0  0
    7.6403   11.5994   26.0274 H   0  0  0  0  0  0  0  0  0  0  0  0
   10.5855    9.7478   23.4386 H   0  0  0  0  0  0  0  0  0  0  0  0
   10.0271   10.9145   25.6003 H   0  0  0  0  0  0  0  0  0  0  0  0
    7.8722    9.2675   25.6948 H   0  0  0  0  0  0  0  0  0  0  0  0
    8.9818    8.5706   24.7203 H   0  0  0  0  0  0  0  0  0  0  0  0
   10.9066   15.5356   23.2943 H   0  0  0  0  0  0  0  0  0  0  0  0
  1 11  1  0  0  0  0
  1 13  2  0  0  0  0
  1 14  1  0  0  0  0
  2  7  1  0  0  0  0
  2  8  1  0  0  0  0
  3  7  1  0  0  0  0
  3  9  1  0  0  0  0
  4  7  1  0  0  0  0
  4 11  1  0  0  0  0
  5  8  1  0  0  0  0
  5 11  1  0  0  0  0
  6  9  1  0  0  0  0
  6 11  1  0  0  0  0
  8 10  1  0  0  0  0
  9 10  1  0  0  0  0
 10 12  1  0  0  0  0
  2 15  1  0  0  0  0
  2 16  1  0  0  0  0
  3 17  1  0  0  0  0
  3 18  1  0  0  0  0
  4 19  1  0  0  0  0
  4 20  1  0  0  0  0
  5 21  1  0  0  0  0
  5 22  1  0  0  0  0
  6 23  1  0  0  0  0
  6 24  1  0  0  0  0
  7 25  1  0  0  0  0
  8 26  1  0  0  0  0
  9 27  1  0  0  0  0
 10 28  1  0  0  0  0
 12 29  1  0  0  0  0
 12 30  1  0  0  0  0
 14 31  1  0  0  0  0
M  END
> <Catalog ID>
Z2418414170

> <PlateID>
1337959-R-02

> <Well>
B06

> <MW (desalted)>
195.258

> <CLogP>
-1.792

> <HBD>
2

> <TPSA>
63.320

> <RotBonds>
1

> <ROCS_ShapeQuery>
x0446_0A_x1080_0A_x0929_0A_x0812_0A_x0719_0A_x1140_0A_x0528_0A_x0310_0A

> <ROCS_TanimotoCombo>
0.373 

> <ROCS_ShapeTanimoto>
0.200 

> <ROCS_ColorTanimoto>
0.173 

> <ROCS_RefTversky>
0.184 

> <ROCS_RefColorTversky>
0.200 

> <ROCS_RefTverskyCombo>
0.384 

> <ROCS_FitTversky>
1.773 

> <ROCS_FitColorTversky>
0.564 

> <ROCS_FitTverskyCombo>
2.337 

> <ROCS_ColorScore>
-7.193

> <ROCS_Overlap>
2165.205

> <ROCS_Rank>
14                  

$$$$
untitled-dbase-338_1
  -OEChem-02082415003D

 33 35  0     0  0  0  0  0  0999 V2000
   10.1066   13.8404   21.8810 C   0  0  0  0  0  0  0  0  0  0  0  0
    7.6612   10.4210   23.9850 C   0  0  0  0  0  0  0  0  0  0  0  0
    7.5322   12.8055   23.2216 C   0  0  0  0  0  0  0  0  0  0  0  0
    8.7055   11.0979   21.8086 C   0  0  0  0  0  0  0  0  0  0  0  0
    8.9796   12.1935   25.1707 C   0  0  0  0  0  0  0  0  0  0  0  0
   10.1569   10.4801   23.7530 C   0  0  0  0  0  0  0  0  0  0  0  0
   10.0551   12.8636   23.0210 C   0  0  0  0  0  0  0  0  0  0  0  0
    7.5203   11.3389   22.7586 C   0  0  0  0  0  0  0  0  0  0  0  0
    8.9802   10.7210   24.7176 C   0  0  0  0  0  0  0  0  0  0  0  0
    8.8549   13.1243   23.9475 C   0  0  0  0  0  0  0  0  0  0  0  0
   10.0349   11.4069   22.5264 C   0  0  0  0  0  0  0  0  0  0  0  0
   11.4352   14.5018   19.8861 C   0  0  0  0  0  0  0  0  0  0  0  0
   11.1935   13.6720   21.0445 N   0  0  0  0  0  0  0  0  0  0  0  0
    9.2246   14.6836   21.7676 O   0  0  0  0  0  0  0  0  0  0  0  0
    6.8126   10.5692   24.6641 H   0  0  0  0  0  0  0  0  0  0  0  0
    7.6378    9.3703   23.6709 H   0  0  0  0  0  0  0  0  0  0  0  0
    7.3992   13.4710   22.3602 H   0  0  0  0  0  0  0  0  0  0  0  0
    6.6853   12.9907   23.8938 H   0  0  0  0  0  0  0  0  0  0  0  0
    8.7018   10.0557   21.4656 H   0  0  0  0  0  0  0  0  0  0  0  0
    8.6005   11.7224   20.9136 H   0  0  0  0  0  0  0  0  0  0  0  0
    8.1472   12.3714   25.8625 H   0  0  0  0  0  0  0  0  0  0  0  0
    9.9026   12.4164   25.7195 H   0  0  0  0  0  0  0  0  0  0  0  0
   11.1071   10.6642   24.2692 H   0  0  0  0  0  0  0  0  0  0  0  0
   10.1683    9.4317   23.4307 H   0  0  0  0  0  0  0  0  0  0  0  0
   10.9836   13.0375   23.5819 H   0  0  0  0  0  0  0  0  0  0  0  0
    6.5797   11.1213   22.2405 H   0  0  0  0  0  0  0  0  0  0  0  0
    9.0765   10.0652   25.5901 H   0  0  0  0  0  0  0  0  0  0  0  0
    8.8444   14.1695   24.2785 H   0  0  0  0  0  0  0  0  0  0  0  0
   10.8694   11.2221   21.8399 H   0  0  0  0  0  0  0  0  0  0  0  0
   10.9453   14.0573   19.0073 H   0  0  0  0  0  0  0  0  0  0  0  0
   11.0267   15.5075   20.0640 H   0  0  0  0  0  0  0  0  0  0  0  0
   12.5180   14.5726   19.7055 H   0  0  0  0  0  0  0  0  0  0  0  0
   11.8541   12.9295   21.2537 H   0  0  0  0  0  0  0  0  0  0  0  0
  1  7  1  0  0  0  0
  1 13  1  0  0  0  0
  1 14  2  0  0  0  0
  2  8  1  0  0  0  0
  2  9  1  0  0  0  0
  3  8  1  0  0  0  0
  3 10  1  0  0  0  0
  4  8  1  0  0  0  0
  4 11  1  0  0  0  0
  5  9  1  0  0  0  0
  5 10  1  0  0  0  0
  6  9  1  0  0  0  0
  6 11  1  0  0  0  0
  7 10  1  0  0  0  0
  7 11  1  0  0  0  0
 12 13  1  0  0  0  0
  2 15  1  0  0  0  0
  2 16  1  0  0  0  0
  3 17  1  0  0  0  0
  3 18  1  0  0  0  0
  4 19  1  0  0  0  0
  4 20  1  0  0  0  0
  5 21  1  0  0  0  0
  5 22  1  0  0  0  0
  6 23  1  0  0  0  0
  6 24  1  0  0  0  0
  7 25  1  0  0  0  0
  8 26  1  0  0  0  0
  9 27  1  0  0  0  0
 10 28  1  0  0  0  0
 11 29  1  0  0  0  0
 12 30  1  0  0  0  0
 12 31  1  0  0  0  0
 12 32  1  0  0  0  0
 13 33  1  0  0  0  0
M  END
> <Catalog ID>
Z135505014

> <PlateID>
1337959-R-08

> <Well>
C02

> <MW (desalted)>
193.285

> <CLogP>
2.621

> <HBD>
1

> <TPSA>
29.100

> <RotBonds>
1

> <ROCS_ShapeQuery>
x0446_0A_x1080_0A_x0929_0A_x0812_0A_x0719_0A_x1140_0A_x0528_0A_x0310_0A

> <ROCS_TanimotoCombo>
0.372 

> <ROCS_ShapeTanimoto>
0.194 

> <ROCS_ColorTanimoto>
0.178 

> <ROCS_RefTversky>
0.180 

> <ROCS_RefColorTversky>
0.193 

> <ROCS_RefTverskyCombo>
0.372 

> <ROCS_FitTversky>
1.744 

> <ROCS_FitColorTversky>
0.695 

> <ROCS_FitTverskyCombo>
2.440 

> <ROCS_ColorScore>
-6.890

> <ROCS_Overlap>
2117.691

> <ROCS_Rank>
15                  

$$$$
untitled-dbase-387_1
  -OEChem-02082415003D

 30 32  0     0  0  0  0  0  0999 V2000
   10.1021   13.8520   21.8924 C   0  0  0  0  0  0  0  0  0  0  0  0
    7.6700   10.4111   23.9767 C   0  0  0  0  0  0  0  0  0  0  0  0
    7.5333   12.8009   23.2313 C   0  0  0  0  0  0  0  0  0  0  0  0
    8.7075   11.1067   21.8030 C   0  0  0  0  0  0  0  0  0  0  0  0
    8.9868   12.1780   25.1724 C   0  0  0  0  0  0  0  0  0  0  0  0
   10.1649   10.4782   23.7393 C   0  0  0  0  0  0  0  0  0  0  0  0
   10.0556   12.8667   23.0253 C   0  0  0  0  0  0  0  0  0  0  0  0
    7.5240   11.3378   22.7575 C   0  0  0  0  0  0  0  0  0  0  0  0
    8.9899   10.7090   24.7084 C   0  0  0  0  0  0  0  0  0  0  0  0
    8.8570   13.1176   23.9565 C   0  0  0  0  0  0  0  0  0  0  0  0
   10.0379   11.4136   22.5200 C   0  0  0  0  0  0  0  0  0  0  0  0
   11.1743   13.6779   21.0497 N   0  0  0  0  0  0  0  0  0  0  0  0
    9.2408   14.7152   21.7423 O   0  0  0  0  0  0  0  0  0  0  0  0
    6.8226   10.5522   24.6588 H   0  0  0  0  0  0  0  0  0  0  0  0
    7.6484    9.3627   23.6549 H   0  0  0  0  0  0  0  0  0  0  0  0
    7.3967   13.4724   22.3751 H   0  0  0  0  0  0  0  0  0  0  0  0
    6.6876   12.9791   23.9068 H   0  0  0  0  0  0  0  0  0  0  0  0
    8.7056   10.0671   21.4522 H   0  0  0  0  0  0  0  0  0  0  0  0
    8.5989   11.7376   20.9129 H   0  0  0  0  0  0  0  0  0  0  0  0
    8.1556   12.3488   25.8675 H   0  0  0  0  0  0  0  0  0  0  0  0
    9.9106   12.3992   25.7207 H   0  0  0  0  0  0  0  0  0  0  0  0
   11.1159   10.6607   24.2546 H   0  0  0  0  0  0  0  0  0  0  0  0
   10.1782    9.4321   23.4092 H   0  0  0  0  0  0  0  0  0  0  0  0
   10.9850   13.0388   23.5853 H   0  0  0  0  0  0  0  0  0  0  0  0
    6.5827   11.1216   22.2400 H   0  0  0  0  0  0  0  0  0  0  0  0
    9.0899   10.0470   25.5758 H   0  0  0  0  0  0  0  0  0  0  0  0
    8.8447   14.1603   24.2952 H   0  0  0  0  0  0  0  0  0  0  0  0
   10.8712   11.2360   21.8301 H   0  0  0  0  0  0  0  0  0  0  0  0
   11.8300   12.9285   21.2444 H   0  0  0  0  0  0  0  0  0  0  0  0
   11.3363   14.2689   20.2407 H   0  0  0  0  0  0  0  0  0  0  0  0
  1  7  1  0  0  0  0
  1 12  1  0  0  0  0
  1 13  2  0  0  0  0
  2  8  1  0  0  0  0
  2  9  1  0  0  0  0
  3  8  1  0  0  0  0
  3 10  1  0  0  0  0
  4  8  1  0  0  0  0
  4 11  1  0  0  0  0
  5  9  1  0  0  0  0
  5 10  1  0  0  0  0
  6  9  1  0  0  0  0
  6 11  1  0  0  0  0
  7 10  1  0  0  0  0
  7 11  1  0  0  0  0
  2 14  1  0  0  0  0
  2 15  1  0  0  0  0
  3 16  1  0  0  0  0
  3 17  1  0  0  0  0
  4 18  1  0  0  0  0
  4 19  1  0  0  0  0
  5 20  1  0  0  0  0
  5 21  1  0  0  0  0
  6 22  1  0  0  0  0
  6 23  1  0  0  0  0
  7 24  1  0  0  0  0
  8 25  1  0  0  0  0
  9 26  1  0  0  0  0
 10 27  1  0  0  0  0
 11 28  1  0  0  0  0
 12 29  1  0  0  0  0
 12 30  1  0  0  0  0
M  END
> <Catalog ID>
Z135897268

> <PlateID>
1337959-R-09

> <Well>
C11

> <MW (desalted)>
179.259

> <CLogP>
2.585

> <HBD>
1

> <TPSA>
43.090

> <RotBonds>
1

> <ROCS_ShapeQuery>
x0446_0A_x1080_0A_x0929_0A_x0812_0A_x0719_0A_x1140_0A_x0528_0A_x0310_0A

> <ROCS_TanimotoCombo>
0.371 

> <ROCS_ShapeTanimoto>
0.192 

> <ROCS_ColorTanimoto>
0.179 

> <ROCS_RefTversky>
0.177 

> <ROCS_RefColorTversky>
0.194 

> <ROCS_RefTverskyCombo>
0.371 

> <ROCS_FitTversky>
1.780 

> <ROCS_FitColorTversky>
0.699 

> <ROCS_FitTverskyCombo>
2.479 

> <ROCS_ColorScore>
-6.929

> <ROCS_Overlap>
2090.849

> <ROCS_Rank>
16                  

$$$$
untitled-dbase-411_15
  -OEChem-02082415003D

 35 37  0     1  0  0  0  0  0999 V2000
   11.4607   13.4394   21.9786 C   0  0  0  0  0  0  0  0  0  0  0  0
   12.6855   14.1453   21.8010 C   0  0  0  0  0  0  0  0  0  0  0  0
   10.4860   14.2293   22.5475 C   0  0  0  0  0  0  0  0  0  0  0  0
   12.6003   15.4480   22.2408 C   0  0  0  0  0  0  0  0  0  0  0  0
    9.0961   13.8802   22.8913 C   0  0  0  0  0  0  0  0  0  0  0  0
    6.3495   12.8948   23.4178 C   0  0  0  0  0  0  0  0  0  0  0  0
   10.0041   12.0848   24.3975 C   0  0  0  0  0  0  0  0  0  0  0  0
    5.2020   12.2975   24.2082 C   0  0  0  0  0  0  0  0  0  0  0  0
   10.0432   10.6947   23.7702 C   0  0  0  0  0  0  0  0  0  0  0  0
    7.1644   12.0504   25.4371 C   0  0  0  0  0  0  0  0  0  0  0  0
    7.7121   10.7572   23.3217 C   0  0  0  0  0  0  0  0  0  0  0  0
    7.5739   12.1581   23.9573 C   0  0  1  0  0  0  0  0  0  0  0  0
   13.6457   16.4939   22.2271 C   0  0  0  0  0  0  0  0  0  0  0  0
    8.8842   12.8391   23.8102 N   0  0  0  0  0  0  0  0  0  0  0  0
    8.2293   14.5637   22.3500 O   0  0  0  0  0  0  0  0  0  0  0  0
    5.7353   11.9067   25.4771 O   0  0  0  0  0  0  0  0  0  0  0  0
    8.7895   10.0287   23.9241 O   0  0  0  0  0  0  0  0  0  0  0  0
   11.0486   15.8152   22.8650 S   0  0  0  0  0  0  0  0  0  0  0  0
   11.3072   12.4040   21.7015 H   0  0  0  0  0  0  0  0  0  0  0  0
   13.5816   13.7154   21.3716 H   0  0  0  0  0  0  0  0  0  0  0  0
    6.2034   12.6627   22.3551 H   0  0  0  0  0  0  0  0  0  0  0  0
    6.3892   13.9846   23.4995 H   0  0  0  0  0  0  0  0  0  0  0  0
    9.9213   11.9806   25.4644 H   0  0  0  0  0  0  0  0  0  0  0  0
   10.9066   12.6245   24.1499 H   0  0  0  0  0  0  0  0  0  0  0  0
    4.4083   13.0298   24.3788 H   0  0  0  0  0  0  0  0  0  0  0  0
    4.7662   11.4278   23.7105 H   0  0  0  0  0  0  0  0  0  0  0  0
   10.2447   10.7799   22.6959 H   0  0  0  0  0  0  0  0  0  0  0  0
   10.8466   10.0838   24.2034 H   0  0  0  0  0  0  0  0  0  0  0  0
    7.5774   11.1473   25.8986 H   0  0  0  0  0  0  0  0  0  0  0  0
    7.4873   12.8936   26.0511 H   0  0  0  0  0  0  0  0  0  0  0  0
    6.7863   10.1847   23.4182 H   0  0  0  0  0  0  0  0  0  0  0  0
    7.9378   10.8332   22.2566 H   0  0  0  0  0  0  0  0  0  0  0  0
   13.6165   17.0686   21.2880 H   0  0  0  0  0  0  0  0  0  0  0  0
   13.5272   17.2045   23.0614 H   0  0  0  0  0  0  0  0  0  0  0  0
   14.6566   16.0660   22.3296 H   0  0  0  0  0  0  0  0  0  0  0  0
  1  2  1  0  0  0  0
  1  3  2  0  0  0  0
  2  4  2  0  0  0  0
  3  5  1  0  0  0  0
  3 18  1  0  0  0  0
  4 13  1  0  0  0  0
  4 18  1  0  0  0  0
  5 14  1  0  0  0  0
  5 15  2  0  0  0  0
  6  8  1  0  0  0  0
  6 12  1  0  0  0  0
  7  9  1  0  0  0  0
  7 14  1  0  0  0  0
  8 16  1  0  0  0  0
  9 17  1  0  0  0  0
 10 12  1  0  0  0  0
 10 16  1  0  0  0  0
 11 12  1  0  0  0  0
 11 17  1  0  0  0  0
 12 14  1  0  0  0  0
  1 19  1  0  0  0  0
  2 20  1  0  0  0  0
  6 21  1  0  0  0  0
  6 22  1  0  0  0  0
  7 23  1  0  0  0  0
  7 24  1  0  0  0  0
  8 25  1  0  0  0  0
  8 26  1  0  0  0  0
  9 27  1  0  0  0  0
  9 28  1  0  0  0  0
 10 29  1  0  0  0  0
 10 30  1  0  0  0  0
 11 31  1  0  0  0  0
 11 32  1  0  0  0  0
 13 33  1  0  0  0  0
 13 34  1  0  0  0  0
 13 35  1  0  0  0  0
M  END
> <Catalog ID>
Z1995563297

> <PlateID>
1337959-R-09

> <Well>
G05

> <MW (desalted)>
267.344

> <CLogP>
0.896

> <HBD>
0

> <TPSA>
38.770

> <RotBonds>
1

> <ROCS_ShapeQuery>
x0446_0A_x1080_0A_x0929_0A_x0812_0A_x0719_0A_x1140_0A_x0528_0A_x0310_0A

> <ROCS_TanimotoCombo>
0.369 

> <ROCS_ShapeTanimoto>
0.224 

> <ROCS_ColorTanimoto>
0.145 

> <ROCS_RefTversky>
0.204 

> <ROCS_RefColorTversky>
0.154 

> <ROCS_RefTverskyCombo>
0.358 

> <ROCS_FitTversky>
1.749 

> <ROCS_FitColorTversky>
0.725 

> <ROCS_FitTverskyCombo>
2.474 

> <ROCS_ColorScore>
-5.479

> <ROCS_Overlap>
2408.283

> <ROCS_Rank>
17                  

$$$$
untitled-dbase-596_1
  -OEChem-02082415003D

 31 33  0     0  0  0  0  0  0999 V2000
    8.9881   13.2011   23.5054 C   0  0  0  0  0  0  0  0  0  0  0  0
    9.9527   12.5631   21.4051 C   0  0  0  0  0  0  0  0  0  0  0  0
    8.7373   11.8398   23.7130 C   0  0  0  0  0  0  0  0  0  0  0  0
    9.6146   13.5604   22.3127 C   0  0  0  0  0  0  0  0  0  0  0  0
    8.1613   11.0223   24.7014 C   0  0  0  0  0  0  0  0  0  0  0  0
    9.1251   10.9457   22.7268 C   0  0  0  0  0  0  0  0  0  0  0  0
    9.9121   14.9678   22.0222 C   0  0  0  0  0  0  0  0  0  0  0  0
   12.1852   14.7251   23.1489 C   0  0  0  0  0  0  0  0  0  0  0  0
   11.5039   16.8573   22.0973 C   0  0  0  0  0  0  0  0  0  0  0  0
   13.4194   14.5200   22.2788 C   0  0  0  0  0  0  0  0  0  0  0  0
   12.6598   16.9038   21.1051 C   0  0  0  0  0  0  0  0  0  0  0  0
    7.5726   11.4315   25.9871 C   0  0  0  0  0  0  0  0  0  0  0  0
    9.7312   11.2362   21.5609 N   0  0  0  0  0  0  0  0  0  0  0  0
    8.1846    9.7292   24.3662 N   0  0  0  0  0  0  0  0  0  0  0  0
   11.1466   15.4788   22.4337 N   0  0  0  0  0  0  0  0  0  0  0  0
    9.0386   15.5934   21.4233 O   0  0  0  0  0  0  0  0  0  0  0  0
    8.7938    9.6833   23.1189 O   0  0  0  0  0  0  0  0  0  0  0  0
   14.1535   16.1121   21.7836 S   0  0  0  0  0  0  0  0  0  0  0  0
    8.7059   13.9453   24.2432 H   0  0  0  0  0  0  0  0  0  0  0  0
   10.4442   12.8184   20.4687 H   0  0  0  0  0  0  0  0  0  0  0  0
   11.8084   13.7493   23.4671 H   0  0  0  0  0  0  0  0  0  0  0  0
   12.4322   15.2784   24.0636 H   0  0  0  0  0  0  0  0  0  0  0  0
   11.7534   17.3828   23.0270 H   0  0  0  0  0  0  0  0  0  0  0  0
   10.6401   17.3713   21.6618 H   0  0  0  0  0  0  0  0  0  0  0  0
   14.1760   13.9581   22.8355 H   0  0  0  0  0  0  0  0  0  0  0  0
   13.1753   13.9430   21.3805 H   0  0  0  0  0  0  0  0  0  0  0  0
   12.3896   16.4105   20.1650 H   0  0  0  0  0  0  0  0  0  0  0  0
   12.9052   17.9446   20.8708 H   0  0  0  0  0  0  0  0  0  0  0  0
    6.4942   11.6431   25.8854 H   0  0  0  0  0  0  0  0  0  0  0  0
    7.6864   10.6549   26.7647 H   0  0  0  0  0  0  0  0  0  0  0  0
    8.0519   12.3394   26.3958 H   0  0  0  0  0  0  0  0  0  0  0  0
  1  3  2  0  0  0  0
  1  4  1  0  0  0  0
  2  4  2  0  0  0  0
  2 13  1  0  0  0  0
  3  5  1  0  0  0  0
  3  6  1  0  0  0  0
  4  7  1  0  0  0  0
  5 12  1  0  0  0  0
  5 14  2  0  0  0  0
  6 13  2  0  0  0  0
  6 17  1  0  0  0  0
  7 15  1  0  0  0  0
  7 16  2  0  0  0  0
  8 10  1  0  0  0  0
  8 15  1  0  0  0  0
  9 11  1  0  0  0  0
  9 15  1  0  0  0  0
 10 18  1  0  0  0  0
 11 18  1  0  0  0  0
 14 17  1  0  0  0  0
  1 19  1  0  0  0  0
  2 20  1  0  0  0  0
  8 21  1  0  0  0  0
  8 22  1  0  0  0  0
  9 23  1  0  0  0  0
  9 24  1  0  0  0  0
 10 25  1  0  0  0  0
 10 26  1  0  0  0  0
 11 27  1  0  0  0  0
 11 28  1  0  0  0  0
 12 29  1  0  0  0  0
 12 30  1  0  0  0  0
 12 31  1  0  0  0  0
M  END
> <Catalog ID>
Z437590718

> <PlateID>
1337959-R-13

> <Well>
H04

> <MW (desalted)>
263.316

> <CLogP>
0.605

> <HBD>
0

> <TPSA>
59.230

> <RotBonds>
1

> <ROCS_ShapeQuery>
x0446_0A_x1080_0A_x0929_0A_x0812_0A_x0719_0A_x1140_0A_x0528_0A_x0310_0A

> <ROCS_TanimotoCombo>
0.367 

> <ROCS_ShapeTanimoto>
0.209 

> <ROCS_ColorTanimoto>
0.158 

> <ROCS_RefTversky>
0.193 

> <ROCS_RefColorTversky>
0.166 

> <ROCS_RefTverskyCombo>
0.359 

> <ROCS_FitTversky>
1.641 

> <ROCS_FitColorTversky>
0.778 

> <ROCS_FitTverskyCombo>
2.419 

> <ROCS_ColorScore>
-5.900

> <ROCS_Overlap>
2280.145

> <ROCS_Rank>
18                  

$$$$
untitled-dbase-670_99
  -OEChem-02082415003D

 27 28  0     0  0  0  0  0  0999 V2000
    9.9947   15.6195   21.2104 C   0  0  0  0  0  0  0  0  0  0  0  0
    6.7552   13.2101   22.6775 C   0  0  0  0  0  0  0  0  0  0  0  0
    5.8690   12.3506   23.4428 C   0  0  0  0  0  0  0  0  0  0  0  0
    8.0663   12.9440   22.5663 C   0  0  0  0  0  0  0  0  0  0  0  0
    6.2902   11.2472   24.0822 C   0  0  0  0  0  0  0  0  0  0  0  0
    8.5871   11.7856   23.2205 C   0  0  0  0  0  0  0  0  0  0  0  0
    9.7883   11.2206   23.3318 C   0  0  0  0  0  0  0  0  0  0  0  0
    7.7256   10.8856   24.0066 C   0  0  0  0  0  0  0  0  0  0  0  0
   11.0666   13.1734   22.5893 C   0  0  0  0  0  0  0  0  0  0  0  0
    9.7107    9.9814   24.1706 C   0  0  0  0  0  0  0  0  0  0  0  0
   11.2551   14.9621   20.8699 C   0  0  0  0  0  0  0  0  0  0  0  0
   11.0831   11.6656   22.7530 C   0  0  0  0  0  0  0  0  0  0  0  0
    8.9955   16.1445   21.4796 N   0  0  0  0  0  0  0  0  0  0  0  0
    8.2857    9.8556   24.5667 N   0  0  0  0  0  0  0  0  0  0  0  0
   11.2380   13.5746   21.2744 N   0  0  0  0  0  0  0  0  0  0  0  0
   10.9123   13.9302   23.5464 O   0  0  0  0  0  0  0  0  0  0  0  0
    6.3227   14.0798   22.1950 H   0  0  0  0  0  0  0  0  0  0  0  0
    4.8224   12.6354   23.4832 H   0  0  0  0  0  0  0  0  0  0  0  0
    8.7225   13.5886   21.9944 H   0  0  0  0  0  0  0  0  0  0  0  0
    5.6183   10.6150   24.6490 H   0  0  0  0  0  0  0  0  0  0  0  0
   10.0120    9.0968   23.6002 H   0  0  0  0  0  0  0  0  0  0  0  0
   10.3342   10.0686   25.0662 H   0  0  0  0  0  0  0  0  0  0  0  0
   11.4356   14.9901   19.7915 H   0  0  0  0  0  0  0  0  0  0  0  0
   12.0987   15.4428   21.3733 H   0  0  0  0  0  0  0  0  0  0  0  0
   11.2316   11.2221   21.7629 H   0  0  0  0  0  0  0  0  0  0  0  0
   11.9048   11.3359   23.3961 H   0  0  0  0  0  0  0  0  0  0  0  0
   11.3570   12.8610   20.5620 H   0  0  0  0  0  0  0  0  0  0  0  0
  1 11  1  0  0  0  0
  1 13  3  0  0  0  0
  2  3  1  0  0  0  0
  2  4  2  0  0  0  0
  3  5  2  0  0  0  0
  4  6  1  0  0  0  0
  5  8  1  0  0  0  0
  6  7  2  0  0  0  0
  6  8  1  0  0  0  0
  7 10  1  0  0  0  0
  7 12  1  0  0  0  0
  8 14  2  0  0  0  0
  9 12  1  0  0  0  0
  9 15  1  0  0  0  0
  9 16  2  0  0  0  0
 10 14  1  0  0  0  0
 11 15  1  0  0  0  0
  2 17  1  0  0  0  0
  3 18  1  0  0  0  0
  4 19  1  0  0  0  0
  5 20  1  0  0  0  0
 10 21  1  0  0  0  0
 10 22  1  0  0  0  0
 11 23  1  0  0  0  0
 11 24  1  0  0  0  0
 12 25  1  0  0  0  0
 12 26  1  0  0  0  0
 15 27  1  0  0  0  0
M  END
> <Catalog ID>
Z800018726

> <PlateID>
1337959-R-15

> <Well>
F11

> <MW (desalted)>
213.235

> <CLogP>
0.273

> <HBD>
2

> <TPSA>
68.680

> <RotBonds>
3

> <ROCS_ShapeQuery>
x0446_0A_x1080_0A_x0929_0A_x0812_0A_x0719_0A_x1140_0A_x0528_0A_x0310_0A

> <ROCS_TanimotoCombo>
0.366 

> <ROCS_ShapeTanimoto>
0.201 

> <ROCS_ColorTanimoto>
0.166 

> <ROCS_RefTversky>
0.185 

> <ROCS_RefColorTversky>
0.172 

> <ROCS_RefTverskyCombo>
0.358 

> <ROCS_FitTversky>
1.693 

> <ROCS_FitColorTversky>
0.810 

> <ROCS_FitTverskyCombo>
2.503 

> <ROCS_ColorScore>
-6.142

> <ROCS_Overlap>
2187.366

> <ROCS_Rank>
19                  

$$$$
untitled-dbase-463_1
  -OEChem-02082415003D

 28 30  0     0  0  0  0  0  0999 V2000
    5.9858   12.6148   25.1615 C   0  0  0  0  0  0  0  0  0  0  0  0
    6.5802   13.5345   24.2642 C   0  0  0  0  0  0  0  0  0  0  0  0
    6.4562   11.2949   25.2831 C   0  0  0  0  0  0  0  0  0  0  0  0
    9.8483   11.9571   22.0256 C   0  0  0  0  0  0  0  0  0  0  0  0
    9.4770   13.2963   21.8091 C   0  0  0  0  0  0  0  0  0  0  0  0
    7.6726   13.1414   23.4614 C   0  0  0  0  0  0  0  0  0  0  0  0
    8.0893   11.8263   23.6281 C   0  0  0  0  0  0  0  0  0  0  0  0
    7.5230   10.9271   24.4923 C   0  0  0  0  0  0  0  0  0  0  0  0
    9.1242   11.2425   22.9536 C   0  0  0  0  0  0  0  0  0  0  0  0
    8.4028   13.8906   22.5140 C   0  0  0  0  0  0  0  0  0  0  0  0
    8.2701    9.6585   24.3495 C   0  0  0  0  0  0  0  0  0  0  0  0
    6.4840   15.1403   19.9263 C   0  0  0  0  0  0  0  0  0  0  0  0
    9.2461    9.9196   23.3836 N   0  0  0  0  0  0  0  0  0  0  0  0
    6.5135   15.4304   21.3670 N   0  0  0  0  0  0  0  0  0  0  0  0
    8.0426    8.6360   24.9662 O   0  0  0  0  0  0  0  0  0  0  0  0
    7.7965   16.2522   23.4443 O   0  0  0  0  0  0  0  0  0  0  0  0
    9.0051   16.0710   21.2464 O   0  0  0  0  0  0  0  0  0  0  0  0
    8.0101   15.5635   22.1796 S   0  0  0  0  0  0  0  0  0  0  0  0
    5.1450   12.9387   25.7705 H   0  0  0  0  0  0  0  0  0  0  0  0
    6.1793   14.5428   24.2078 H   0  0  0  0  0  0  0  0  0  0  0  0
    5.9910   10.6020   25.9744 H   0  0  0  0  0  0  0  0  0  0  0  0
   10.6730   11.5149   21.4785 H   0  0  0  0  0  0  0  0  0  0  0  0
   10.0347   13.8807   21.0800 H   0  0  0  0  0  0  0  0  0  0  0  0
    7.3994   14.6008   19.6416 H   0  0  0  0  0  0  0  0  0  0  0  0
    5.6058   14.5196   19.6953 H   0  0  0  0  0  0  0  0  0  0  0  0
    6.4245   16.0836   19.3636 H   0  0  0  0  0  0  0  0  0  0  0  0
    9.9327    9.2548   23.0487 H   0  0  0  0  0  0  0  0  0  0  0  0
    5.7010   15.9352   21.7417 H   0  0  0  0  0  0  0  0  0  0  0  0
  1  2  2  0  0  0  0
  1  3  1  0  0  0  0
  2  6  1  0  0  0  0
  3  8  2  0  0  0  0
  4  5  1  0  0  0  0
  4  9  2  0  0  0  0
  5 10  2  0  0  0  0
  6  7  2  0  0  0  0
  6 10  1  0  0  0  0
  7  8  1  0  0  0  0
  7  9  1  0  0  0  0
  8 11  1  0  0  0  0
  9 13  1  0  0  0  0
 10 18  1  0  0  0  0
 11 13  1  0  0  0  0
 11 15  2  0  0  0  0
 12 14  1  0  0  0  0
 14 18  1  0  0  0  0
 16 18  2  0  0  0  0
 17 18  2  0  0  0  0
  1 19  1  0  0  0  0
  2 20  1  0  0  0  0
  3 21  1  0  0  0  0
  4 22  1  0  0  0  0
  5 23  1  0  0  0  0
 12 24  1  0  0  0  0
 12 25  1  0  0  0  0
 12 26  1  0  0  0  0
 13 27  1  0  0  0  0
 14 28  1  0  0  0  0
M  END
> <Catalog ID>
Z56826073

> <PlateID>
1337959-R-11

> <Well>
A11

> <MW (desalted)>
262.284

> <CLogP>
1.182

> <HBD>
2

> <TPSA>
75.270

> <RotBonds>
1

> <ROCS_ShapeQuery>
x0446_0A_x1080_0A_x0929_0A_x0812_0A_x0719_0A_x1140_0A_x0528_0A_x0310_0A

> <ROCS_TanimotoCombo>
0.366 

> <ROCS_ShapeTanimoto>
0.211 

> <ROCS_ColorTanimoto>
0.155 

> <ROCS_RefTversky>
0.195 

> <ROCS_RefColorTversky>
0.170 

> <ROCS_RefTverskyCombo>
0.365 

> <ROCS_FitTversky>
1.643 

> <ROCS_FitColorTversky>
0.637 

> <ROCS_FitTverskyCombo>
2.281 

> <ROCS_ColorScore>
-6.060

> <ROCS_Overlap>
2301.310

> <ROCS_Rank>
20                  

$$$$
untitled-dbase-627_5
  -OEChem-02082415003D

 35 37  0     1  0  0  0  0  0999 V2000
   13.1667   15.5132   21.8150 C   0  0  0  0  0  0  0  0  0  0  0  0
   12.0531   16.1874   21.3141 C   0  0  0  0  0  0  0  0  0  0  0  0
   10.5987   14.6755   22.5124 C   0  0  0  0  0  0  0  0  0  0  0  0
   12.9963   14.4200   22.6646 C   0  0  0  0  0  0  0  0  0  0  0  0
   11.7123   14.0012   23.0133 C   0  0  0  0  0  0  0  0  0  0  0  0
   10.7691   15.7686   21.6628 C   0  0  0  0  0  0  0  0  0  0  0  0
    7.3609   11.8672   23.0249 C   0  0  0  0  0  0  0  0  0  0  0  0
    7.2895   11.9642   24.5453 C   0  0  0  0  0  0  0  0  0  0  0  0
    9.8774   11.4997   22.7116 C   0  0  0  0  0  0  0  0  0  0  0  0
    9.7630   11.6536   25.1374 C   0  0  0  0  0  0  0  0  0  0  0  0
    8.4797   10.8591   22.7780 C   0  0  1  0  0  0  0  0  0  0  0  0
    8.3738   11.0017   25.0215 C   0  0  2  0  0  0  0  0  0  0  0  0
   14.2037   13.7135   23.1874 C   0  0  0  0  0  0  0  0  0  0  0  0
   11.5037   12.8263   23.9245 C   0  0  0  0  0  0  0  0  0  0  0  0
   10.1264   12.3466   23.8901 N   0  0  0  0  0  0  0  0  0  0  0  0
    8.4510   10.0350   23.9578 O   0  0  0  0  0  0  0  0  0  0  0  0
    9.6996   16.4164   21.1824 F   0  0  0  0  0  0  0  0  0  0  0  0
   14.1632   15.8462   21.5366 H   0  0  0  0  0  0  0  0  0  0  0  0
   12.1865   17.0374   20.6517 H   0  0  0  0  0  0  0  0  0  0  0  0
    9.5940   14.3568   22.7772 H   0  0  0  0  0  0  0  0  0  0  0  0
    6.4104   11.4734   22.6459 H   0  0  0  0  0  0  0  0  0  0  0  0
    7.5351   12.8317   22.5383 H   0  0  0  0  0  0  0  0  0  0  0  0
    7.4235   12.9836   24.9199 H   0  0  0  0  0  0  0  0  0  0  0  0
    6.3053   11.6164   24.8806 H   0  0  0  0  0  0  0  0  0  0  0  0
   10.6281   10.7003   22.6612 H   0  0  0  0  0  0  0  0  0  0  0  0
    9.9574   12.1042   21.8009 H   0  0  0  0  0  0  0  0  0  0  0  0
    9.7610   12.3686   25.9680 H   0  0  0  0  0  0  0  0  0  0  0  0
   10.5010   10.8713   25.3582 H   0  0  0  0  0  0  0  0  0  0  0  0
    8.2957   10.2417   21.8935 H   0  0  0  0  0  0  0  0  0  0  0  0
    8.1038   10.5000   25.9557 H   0  0  0  0  0  0  0  0  0  0  0  0
   14.5270   14.1631   24.1334 H   0  0  0  0  0  0  0  0  0  0  0  0
   13.9975   12.6497   23.3584 H   0  0  0  0  0  0  0  0  0  0  0  0
   15.0345   13.7668   22.4729 H   0  0  0  0  0  0  0  0  0  0  0  0
   12.1576   11.9952   23.6387 H   0  0  0  0  0  0  0  0  0  0  0  0
   11.7420   13.0859   24.9613 H   0  0  0  0  0  0  0  0  0  0  0  0
  1  2  1  0  0  0  0
  1  4  2  0  0  0  0
  2  6  2  0  0  0  0
  3  5  2  0  0  0  0
  3  6  1  0  0  0  0
  4  5  1  0  0  0  0
  4 13  1  0  0  0  0
  5 14  1  0  0  0  0
  6 17  1  0  0  0  0
  7  8  1  0  0  0  0
  7 11  1  0  0  0  0
  8 12  1  0  0  0  0
  9 11  1  0  0  0  0
  9 15  1  0  0  0  0
 10 12  1  0  0  0  0
 10 15  1  0  0  0  0
 11 16  1  0  0  0  0
 12 16  1  0  0  0  0
 14 15  1  0  0  0  0
  1 18  1  0  0  0  0
  2 19  1  0  0  0  0
  3 20  1  0  0  0  0
  7 21  1  0  0  0  0
  7 22  1  0  0  0  0
  8 23  1  0  0  0  0
  8 24  1  0  0  0  0
  9 25  1  0  0  0  0
  9 26  1  0  0  0  0
 10 27  1  0  0  0  0
 10 28  1  0  0  0  0
 11 29  1  0  0  0  0
 12 30  1  0  0  0  0
 13 31  1  0  0  0  0
 13 32  1  0  0  0  0
 13 33  1  0  0  0  0
 14 34  1  0  0  0  0
 14 35  1  0  0  0  0
M  END
> <Catalog ID>
Z1620337779

> <PlateID>
1337959-R-14

> <Well>
G06

> <MW (desalted)>
235.297

> <CLogP>
2.925

> <HBD>
0

> <TPSA>
12.470

> <RotBonds>
2

> <ROCS_ShapeQuery>
x0446_0A_x1080_0A_x0929_0A_x0812_0A_x0719_0A_x1140_0A_x0528_0A_x0310_0A

> <ROCS_TanimotoCombo>
0.366 

> <ROCS_ShapeTanimoto>
0.205 

> <ROCS_ColorTanimoto>
0.160 

> <ROCS_RefTversky>
0.190 

> <ROCS_RefColorTversky>
0.178 

> <ROCS_RefTverskyCombo>
0.368 

> <ROCS_FitTversky>
1.662 

> <ROCS_FitColorTversky>
0.620 

> <ROCS_FitTverskyCombo>
2.282 

> <ROCS_ColorScore>
-6.364

> <ROCS_Overlap>
2240.084

> <ROCS_Rank>
21                  

$$$$
untitled-dbase-438_21
  -OEChem-02082415003D

 32 34  0     1  0  0  0  0  0999 V2000
   11.4382   13.3873   21.9813 C   0  0  0  0  0  0  0  0  0  0  0  0
   12.6532   14.0066   21.7873 C   0  0  0  0  0  0  0  0  0  0  0  0
   11.0018   15.5132   22.8133 C   0  0  0  0  0  0  0  0  0  0  0  0
   10.4814   14.2600   22.5755 C   0  0  0  0  0  0  0  0  0  0  0  0
    9.0921   13.9029   22.9133 C   0  0  0  0  0  0  0  0  0  0  0  0
    6.3481   12.9026   23.4257 C   0  0  0  0  0  0  0  0  0  0  0  0
   10.0036   12.1003   24.4088 C   0  0  0  0  0  0  0  0  0  0  0  0
    5.2011   12.2949   24.2090 C   0  0  0  0  0  0  0  0  0  0  0  0
   10.0499   10.7149   23.7716 C   0  0  0  0  0  0  0  0  0  0  0  0
    7.1615   12.0469   25.4410 C   0  0  0  0  0  0  0  0  0  0  0  0
    7.7197   10.7713   23.3177 C   0  0  0  0  0  0  0  0  0  0  0  0
    7.5742   12.1670   23.9630 C   0  0  1  0  0  0  0  0  0  0  0  0
    8.8822   12.8544   23.8241 N   0  0  0  0  0  0  0  0  0  0  0  0
    8.2239   14.5868   22.3748 O   0  0  0  0  0  0  0  0  0  0  0  0
    5.7329   11.8972   25.4764 O   0  0  0  0  0  0  0  0  0  0  0  0
    8.7986   10.0428   23.9175 O   0  0  0  0  0  0  0  0  0  0  0  0
   12.6374   15.6338   22.3207 S   0  0  0  0  0  0  0  0  0  0  0  0
   11.2500   12.3564   21.7084 H   0  0  0  0  0  0  0  0  0  0  0  0
   13.5493   13.5803   21.3588 H   0  0  0  0  0  0  0  0  0  0  0  0
   10.5058   16.3680   23.2521 H   0  0  0  0  0  0  0  0  0  0  0  0
    6.2057   12.6776   22.3611 H   0  0  0  0  0  0  0  0  0  0  0  0
    6.3833   13.9919   23.5154 H   0  0  0  0  0  0  0  0  0  0  0  0
    9.9189   11.9887   25.4748 H   0  0  0  0  0  0  0  0  0  0  0  0
   10.9042   12.6450   24.1668 H   0  0  0  0  0  0  0  0  0  0  0  0
    4.4042   13.0229   24.3829 H   0  0  0  0  0  0  0  0  0  0  0  0
    4.7703   11.4274   23.7039 H   0  0  0  0  0  0  0  0  0  0  0  0
   10.2534   10.8087   22.6984 H   0  0  0  0  0  0  0  0  0  0  0  0
   10.8550   10.1043   24.2020 H   0  0  0  0  0  0  0  0  0  0  0  0
    7.5772   11.1427   25.8977 H   0  0  0  0  0  0  0  0  0  0  0  0
    7.4784   12.8878   26.0612 H   0  0  0  0  0  0  0  0  0  0  0  0
    6.7960   10.1944   23.4078 H   0  0  0  0  0  0  0  0  0  0  0  0
    7.9478   10.8551   22.2537 H   0  0  0  0  0  0  0  0  0  0  0  0
  1  2  2  0  0  0  0
  1  4  1  0  0  0  0
  2 17  1  0  0  0  0
  3  4  2  0  0  0  0
  3 17  1  0  0  0  0
  4  5  1  0  0  0  0
  5 13  1  0  0  0  0
  5 14  2  0  0  0  0
  6  8  1  0  0  0  0
  6 12  1  0  0  0  0
  7  9  1  0  0  0  0
  7 13  1  0  0  0  0
  8 15  1  0  0  0  0
  9 16  1  0  0  0  0
 10 12  1  0  0  0  0
 10 15  1  0  0  0  0
 11 12  1  0  0  0  0
 11 16  1  0  0  0  0
 12 13  1  0  0  0  0
  1 18  1  0  0  0  0
  2 19  1  0  0  0  0
  3 20  1  0  0  0  0
  6 21  1  0  0  0  0
  6 22  1  0  0  0  0
  7 23  1  0  0  0  0
  7 24  1  0  0  0  0
  8 25  1  0  0  0  0
  8 26  1  0  0  0  0
  9 27  1  0  0  0  0
  9 28  1  0  0  0  0
 10 29  1  0  0  0  0
 10 30  1  0  0  0  0
 11 31  1  0  0  0  0
 11 32  1  0  0  0  0
M  END
> <Catalog ID>
Z1995553319

> <PlateID>
1337959-R-10

> <Well>
D02

> <MW (desalted)>
253.317

> <CLogP>
0.397

> <HBD>
0

> <TPSA>
38.770

> <RotBonds>
1

> <ROCS_ShapeQuery>
x0446_0A_x1080_0A_x0929_0A_x0812_0A_x0719_0A_x1140_0A_x0528_0A_x0310_0A

> <ROCS_TanimotoCombo>
0.364 

> <ROCS_ShapeTanimoto>
0.221 

> <ROCS_ColorTanimoto>
0.143 

> <ROCS_RefTversky>
0.201 

> <ROCS_RefColorTversky>
0.152 

> <ROCS_RefTverskyCombo>
0.353 

> <ROCS_FitTversky>
1.772 

> <ROCS_FitColorTversky>
0.715 

> <ROCS_FitTverskyCombo>
2.487 

> <ROCS_ColorScore>
-5.410

> <ROCS_Overlap>
2374.667

> <ROCS_Rank>
22                  

$$$$
untitled-dbase-437_76
  -OEChem-02082415003D

 35 37  0     1  0  0  0  0  0999 V2000
   12.1895   14.2950   21.3650 C   0  0  0  0  0  0  0  0  0  0  0  0
   12.9159   15.2718   22.0097 C   0  0  0  0  0  0  0  0  0  0  0  0
   10.5170   15.4058   22.5359 C   0  0  0  0  0  0  0  0  0  0  0  0
   10.7998   14.3726   21.6697 C   0  0  0  0  0  0  0  0  0  0  0  0
    8.6209   13.2272   22.0704 C   0  0  0  0  0  0  0  0  0  0  0  0
    6.4103   11.3758   23.3110 C   0  0  0  0  0  0  0  0  0  0  0  0
    9.9621   11.3442   23.0761 C   0  0  0  0  0  0  0  0  0  0  0  0
    5.3442   11.6749   24.3490 C   0  0  0  0  0  0  0  0  0  0  0  0
    9.5677    9.8812   23.2252 C   0  0  0  0  0  0  0  0  0  0  0  0
    7.1805   13.0549   24.7955 C   0  0  0  0  0  0  0  0  0  0  0  0
    8.2135   10.7868   24.9780 C   0  0  0  0  0  0  0  0  0  0  0  0
    7.6940   11.8605   23.9836 C   0  0  1  0  0  0  0  0  0  0  0  0
    9.7689   13.4385   21.1129 C   0  0  0  0  0  0  0  0  0  0  0  0
    8.7657   12.1943   23.0085 N   0  0  0  0  0  0  0  0  0  0  0  0
    7.6359   13.9639   21.9780 O   0  0  0  0  0  0  0  0  0  0  0  0
    5.8234   12.7528   25.1633 O   0  0  0  0  0  0  0  0  0  0  0  0
    8.6860    9.6196   24.3132 O   0  0  0  0  0  0  0  0  0  0  0  0
   11.9235   16.2769   22.9779 S   0  0  0  0  0  0  0  0  0  0  0  0
   12.6380   13.5612   20.7072 H   0  0  0  0  0  0  0  0  0  0  0  0
   13.9819   15.4430   21.9592 H   0  0  0  0  0  0  0  0  0  0  0  0
    9.5536   15.6934   22.9337 H   0  0  0  0  0  0  0  0  0  0  0  0
    6.4488   10.2929   23.1517 H   0  0  0  0  0  0  0  0  0  0  0  0
    6.1907   11.8329   22.3453 H   0  0  0  0  0  0  0  0  0  0  0  0
   10.6137   11.6065   23.8975 H   0  0  0  0  0  0  0  0  0  0  0  0
   10.4990   11.4889   22.1426 H   0  0  0  0  0  0  0  0  0  0  0  0
    4.4063   11.9914   23.8788 H   0  0  0  0  0  0  0  0  0  0  0  0
    5.1287   10.8075   24.9820 H   0  0  0  0  0  0  0  0  0  0  0  0
    9.0580    9.5403   22.2996 H   0  0  0  0  0  0  0  0  0  0  0  0
   10.4692    9.2333   23.3163 H   0  0  0  0  0  0  0  0  0  0  0  0
    7.7315   13.1692   25.7323 H   0  0  0  0  0  0  0  0  0  0  0  0
    7.2361   14.0097   24.2743 H   0  0  0  0  0  0  0  0  0  0  0  0
    9.0104   11.1968   25.6147 H   0  0  0  0  0  0  0  0  0  0  0  0
    7.4099   10.4674   25.6535 H   0  0  0  0  0  0  0  0  0  0  0  0
    9.3689   13.8296   20.1771 H   0  0  0  0  0  0  0  0  0  0  0  0
   10.2062   12.4664   20.8853 H   0  0  0  0  0  0  0  0  0  0  0  0
  1  2  2  0  0  0  0
  1  4  1  0  0  0  0
  2 18  1  0  0  0  0
  3  4  2  0  0  0  0
  3 18  1  0  0  0  0
  4 13  1  0  0  0  0
  5 13  1  0  0  0  0
  5 14  1  0  0  0  0
  5 15  2  0  0  0  0
  6  8  1  0  0  0  0
  6 12  1  0  0  0  0
  7  9  1  0  0  0  0
  7 14  1  0  0  0  0
  8 16  1  0  0  0  0
  9 17  1  0  0  0  0
 10 12  1  0  0  0  0
 10 16  1  0  0  0  0
 11 12  1  0  0  0  0
 11 17  1  0  0  0  0
 12 14  1  0  0  0  0
  1 19  1  0  0  0  0
  2 20  1  0  0  0  0
  3 21  1  0  0  0  0
  6 22  1  0  0  0  0
  6 23  1  0  0  0  0
  7 24  1  0  0  0  0
  7 25  1  0  0  0  0
  8 26  1  0  0  0  0
  8 27  1  0  0  0  0
  9 28  1  0  0  0  0
  9 29  1  0  0  0  0
 10 30  1  0  0  0  0
 10 31  1  0  0  0  0
 11 32  1  0  0  0  0
 11 33  1  0  0  0  0
 13 34  1  0  0  0  0
 13 35  1  0  0  0  0
M  END
> <Catalog ID>
Z1995563449

> <PlateID>
1337959-R-10

> <Well>
C10

> <MW (desalted)>
267.344

> <CLogP>
0.751

> <HBD>
0

> <TPSA>
38.770

> <RotBonds>
2

> <ROCS_ShapeQuery>
x0446_0A_x1080_0A_x0929_0A_x0812_0A_x0719_0A_x1140_0A_x0528_0A_x0310_0A

> <ROCS_TanimotoCombo>
0.364 

> <ROCS_ShapeTanimoto>
0.224 

> <ROCS_ColorTanimoto>
0.140 

> <ROCS_RefTversky>
0.204 

> <ROCS_RefColorTversky>
0.149 

> <ROCS_RefTverskyCombo>
0.353 

> <ROCS_FitTversky>
1.751 

> <ROCS_FitColorTversky>
0.700 

> <ROCS_FitTverskyCombo>
2.451 

> <ROCS_ColorScore>
-5.294

> <ROCS_Overlap>
2410.632

> <ROCS_Rank>
23                  

$$$$
untitled-dbase-481_0
  -OEChem-02082415003D

 27 29  0     1  0  0  0  0  0999 V2000
   10.3588   13.7676   23.7255 C   0  0  0  0  0  0  0  0  0  0  0  0
    9.2873   14.8608   22.0525 C   0  0  0  0  0  0  0  0  0  0  0  0
    7.1633   11.5387   23.6534 C   0  0  0  0  0  0  0  0  0  0  0  0
    8.8902   11.5699   25.3948 C   0  0  0  0  0  0  0  0  0  0  0  0
    7.8457   10.3029   23.0396 C   0  0  0  0  0  0  0  0  0  0  0  0
    9.5429   10.3378   24.7496 C   0  0  0  0  0  0  0  0  0  0  0  0
    9.9145   11.4875   22.6667 C   0  0  0  0  0  0  0  0  0  0  0  0
    8.2366   12.4371   24.3000 C   0  0  0  0  0  0  0  0  0  0  0  0
    9.2888   12.7824   23.2213 C   0  0  1  0  0  0  0  0  0  0  0  0
   10.2626   14.9385   23.0151 N   0  0  0  0  0  0  0  0  0  0  0  0
    8.7189   13.5945   22.1564 N   0  0  0  0  0  0  0  0  0  0  0  0
    9.3048   10.2882   23.2914 N   0  0  0  0  0  0  0  0  0  0  0  0
   11.1708   13.5390   24.6122 O   0  0  0  0  0  0  0  0  0  0  0  0
    8.9785   15.7305   21.2498 O   0  0  0  0  0  0  0  0  0  0  0  0
    6.6030   12.0835   22.8857 H   0  0  0  0  0  0  0  0  0  0  0  0
    6.4337   11.2234   24.4095 H   0  0  0  0  0  0  0  0  0  0  0  0
    8.1292   11.2489   26.1172 H   0  0  0  0  0  0  0  0  0  0  0  0
    9.6316   12.1398   25.9631 H   0  0  0  0  0  0  0  0  0  0  0  0
    7.3930    9.3889   23.4438 H   0  0  0  0  0  0  0  0  0  0  0  0
    7.6571   10.2704   21.9592 H   0  0  0  0  0  0  0  0  0  0  0  0
   10.6217   10.3376   24.9497 H   0  0  0  0  0  0  0  0  0  0  0  0
    9.1574    9.4234   25.2176 H   0  0  0  0  0  0  0  0  0  0  0  0
    9.7795   11.4175   21.5791 H   0  0  0  0  0  0  0  0  0  0  0  0
   11.0007   11.4641   22.8220 H   0  0  0  0  0  0  0  0  0  0  0  0
    7.7907   13.3336   24.7448 H   0  0  0  0  0  0  0  0  0  0  0  0
   10.8384   15.7560   23.1805 H   0  0  0  0  0  0  0  0  0  0  0  0
    7.9760   13.2760   21.5422 H   0  0  0  0  0  0  0  0  0  0  0  0
  1  9  1  0  0  0  0
  1 10  1  0  0  0  0
  1 13  2  0  0  0  0
  2 10  1  0  0  0  0
  2 11  1  0  0  0  0
  2 14  2  0  0  0  0
  3  5  1  0  0  0  0
  3  8  1  0  0  0  0
  4  6  1  0  0  0  0
  4  8  1  0  0  0  0
  5 12  1  0  0  0  0
  6 12  1  0  0  0  0
  7  9  1  0  0  0  0
  7 12  1  0  0  0  0
  8  9  1  0  0  0  0
  9 11  1  0  0  0  0
  3 15  1  0  0  0  0
  3 16  1  0  0  0  0
  4 17  1  0  0  0  0
  4 18  1  0  0  0  0
  5 19  1  0  0  0  0
  5 20  1  0  0  0  0
  6 21  1  0  0  0  0
  6 22  1  0  0  0  0
  7 23  1  0  0  0  0
  7 24  1  0  0  0  0
  8 25  1  0  0  0  0
 10 26  1  0  0  0  0
 11 27  1  0  0  0  0
M  END
> <Catalog ID>
Z362565298

> <PlateID>
1337959-R-11

> <Well>
E05

> <MW (desalted)>
195.218

> <CLogP>
-1.369

> <HBD>
2

> <TPSA>
61.440

> <RotBonds>
0

> <ROCS_ShapeQuery>
x0446_0A_x1080_0A_x0929_0A_x0812_0A_x0719_0A_x1140_0A_x0528_0A_x0310_0A

> <ROCS_TanimotoCombo>
0.363 

> <ROCS_ShapeTanimoto>
0.199 

> <ROCS_ColorTanimoto>
0.164 

> <ROCS_RefTversky>
0.183 

> <ROCS_RefColorTversky>
0.194 

> <ROCS_RefTverskyCombo>
0.377 

> <ROCS_FitTversky>
1.745 

> <ROCS_FitColorTversky>
0.521 

> <ROCS_FitTverskyCombo>
2.267 

> <ROCS_ColorScore>
-6.958

> <ROCS_Overlap>
2160.666

> <ROCS_Rank>
24                  

$$$$
untitled-dbase-430_40
  -OEChem-02082415003D

 47 48  0     1  0  0  0  0  0999 V2000
   10.3382   13.1249   22.8559 C   0  0  0  0  0  0  0  0  0  0  0  0
    5.9786   13.3524   25.9966 C   0  0  0  0  0  0  0  0  0  0  0  0
    5.3714   13.4273   24.6034 C   0  0  0  0  0  0  0  0  0  0  0  0
    7.4992   13.2410   25.9706 C   0  0  0  0  0  0  0  0  0  0  0  0
    5.2075   12.0991   23.8731 C   0  0  0  0  0  0  0  0  0  0  0  0
    8.0448   11.8511   25.6598 C   0  0  0  0  0  0  0  0  0  0  0  0
    6.1353   10.9460   24.2447 C   0  0  0  0  0  0  0  0  0  0  0  0
   10.1464   10.5932   22.9354 C   0  0  0  0  0  0  0  0  0  0  0  0
    8.1440   11.9977   23.0789 C   0  0  0  0  0  0  0  0  0  0  0  0
    9.6470    9.8078   24.1370 C   0  0  0  0  0  0  0  0  0  0  0  0
    7.6567   11.2075   24.3076 C   0  0  0  0  0  0  0  0  0  0  0  0
   13.0199   12.6481   24.1025 C   0  0  0  0  0  0  0  0  0  0  0  0
   14.0984   13.4479   21.9957 C   0  0  0  0  0  0  0  0  0  0  0  0
   11.6059   13.0508   22.0432 C   0  0  2  0  0  0  0  0  0  0  0  0
   12.8264   13.5083   22.8487 C   0  0  0  0  0  0  0  0  0  0  0  0
    9.6004   11.9488   22.9648 N   0  0  0  0  0  0  0  0  0  0  0  0
   11.3039   13.9114   20.9334 N   0  0  0  0  0  0  0  0  0  0  0  0
   10.0181   14.1945   23.3804 O   0  0  0  0  0  0  0  0  0  0  0  0
    8.2260    9.8707   24.2536 O   0  0  0  0  0  0  0  0  0  0  0  0
    5.6823   14.2257   26.5701 H   0  0  0  0  0  0  0  0  0  0  0  0
    5.5736   12.4782   26.4989 H   0  0  0  0  0  0  0  0  0  0  0  0
    4.3969   13.9370   24.6612 H   0  0  0  0  0  0  0  0  0  0  0  0
    6.0095   14.0829   23.9910 H   0  0  0  0  0  0  0  0  0  0  0  0
    7.8593   13.9277   25.1765 H   0  0  0  0  0  0  0  0  0  0  0  0
    7.9369   13.6442   26.9080 H   0  0  0  0  0  0  0  0  0  0  0  0
    4.1566   11.7539   24.0674 H   0  0  0  0  0  0  0  0  0  0  0  0
    5.2083   12.2668   22.7595 H   0  0  0  0  0  0  0  0  0  0  0  0
    9.1504   11.8623   25.7722 H   0  0  0  0  0  0  0  0  0  0  0  0
    7.6939   11.1746   26.4687 H   0  0  0  0  0  0  0  0  0  0  0  0
    5.7976   10.5021   25.2078 H   0  0  0  0  0  0  0  0  0  0  0  0
    5.9436   10.1247   23.5209 H   0  0  0  0  0  0  0  0  0  0  0  0
   11.2361   10.6986   22.9825 H   0  0  0  0  0  0  0  0  0  0  0  0
    9.9007   10.0623   22.0152 H   0  0  0  0  0  0  0  0  0  0  0  0
    7.6683   11.6378   22.1632 H   0  0  0  0  0  0  0  0  0  0  0  0
    7.8948   13.0598   23.1851 H   0  0  0  0  0  0  0  0  0  0  0  0
    9.9779    8.7625   24.0989 H   0  0  0  0  0  0  0  0  0  0  0  0
   10.0670   10.2368   25.0547 H   0  0  0  0  0  0  0  0  0  0  0  0
   13.1642   11.5942   23.8440 H   0  0  0  0  0  0  0  0  0  0  0  0
   12.1406   12.7073   24.7532 H   0  0  0  0  0  0  0  0  0  0  0  0
   13.8901   12.9787   24.6798 H   0  0  0  0  0  0  0  0  0  0  0  0
   14.2902   12.4291   21.6418 H   0  0  0  0  0  0  0  0  0  0  0  0
   14.0231   14.1031   21.1219 H   0  0  0  0  0  0  0  0  0  0  0  0
   14.9694   13.7743   22.5741 H   0  0  0  0  0  0  0  0  0  0  0  0
   11.7156   12.0332   21.6657 H   0  0  0  0  0  0  0  0  0  0  0  0
   12.6875   14.5486   23.1724 H   0  0  0  0  0  0  0  0  0  0  0  0
   10.4189   14.3528   21.0836 H   0  0  0  0  0  0  0  0  0  0  0  0
   12.0144   14.6104   20.8498 H   0  0  0  0  0  0  0  0  0  0  0  0
  1 14  1  0  0  0  0
  1 16  1  0  0  0  0
  1 18  2  0  0  0  0
  2  3  1  0  0  0  0
  2  4  1  0  0  0  0
  3  5  1  0  0  0  0
  4  6  1  0  0  0  0
  5  7  1  0  0  0  0
  6 11  1  0  0  0  0
  7 11  1  0  0  0  0
  8 10  1  0  0  0  0
  8 16  1  0  0  0  0
  9 11  1  0  0  0  0
  9 16  1  0  0  0  0
 10 19  1  0  0  0  0
 11 19  1  0  0  0  0
 12 15  1  0  0  0  0
 13 15  1  0  0  0  0
 14 15  1  0  0  0  0
 14 17  1  6  0  0  0
  2 20  1  0  0  0  0
  2 21  1  0  0  0  0
  3 22  1  0  0  0  0
  3 23  1  0  0  0  0
  4 24  1  0  0  0  0
  4 25  1  0  0  0  0
  5 26  1  0  0  0  0
  5 27  1  0  0  0  0
  6 28  1  0  0  0  0
  6 29  1  0  0  0  0
  7 30  1  0  0  0  0
  7 31  1  0  0  0  0
  8 32  1  0  0  0  0
  8 33  1  0  0  0  0
  9 34  1  0  0  0  0
  9 35  1  0  0  0  0
 10 36  1  0  0  0  0
 10 37  1  0  0  0  0
 12 38  1  0  0  0  0
 12 39  1  0  0  0  0
 12 40  1  0  0  0  0
 13 41  1  0  0  0  0
 13 42  1  0  0  0  0
 13 43  1  0  0  0  0
 14 44  1  0  0  0  0
 15 45  1  0  0  0  0
 17 46  1  0  0  0  0
 17 47  1  0  0  0  0
M  END
> <Catalog ID>
Z1622632621

> <PlateID>
1337959-R-10

> <Well>
B09

> <MW (desalted)>
268.395

> <CLogP>
2.732

> <HBD>
1

> <TPSA>
55.560

> <RotBonds>
2

> <ROCS_ShapeQuery>
x0446_0A_x1080_0A_x0929_0A_x0812_0A_x0719_0A_x1140_0A_x0528_0A_x0310_0A

> <ROCS_TanimotoCombo>
0.362 

> <ROCS_ShapeTanimoto>
0.215 

> <ROCS_ColorTanimoto>
0.147 

> <ROCS_RefTversky>
0.198 

> <ROCS_RefColorTversky>
0.159 

> <ROCS_RefTverskyCombo>
0.356 

> <ROCS_FitTversky>
1.682 

> <ROCS_FitColorTversky>
0.666 

> <ROCS_FitTverskyCombo>
2.348 

> <ROCS_ColorScore>
-5.663

> <ROCS_Overlap>
2333.589

> <ROCS_Rank>
25                  

$$$$
untitled-dbase-545_77
  -OEChem-02082415003D

 35 37  0     0  0  0  0  0  0999 V2000
    5.6860   11.8618   26.1317 C   0  0  0  0  0  0  0  0  0  0  0  0
    5.2437   12.7493   25.1480 C   0  0  0  0  0  0  0  0  0  0  0  0
    6.8903   11.1623   25.9834 C   0  0  0  0  0  0  0  0  0  0  0  0
    5.9859   12.9705   23.9831 C   0  0  0  0  0  0  0  0  0  0  0  0
    7.6487   11.3722   24.8193 C   0  0  0  0  0  0  0  0  0  0  0  0
    7.1818   12.2630   23.8569 C   0  0  0  0  0  0  0  0  0  0  0  0
    9.1116   11.3581   23.2639 C   0  0  0  0  0  0  0  0  0  0  0  0
   11.2209   13.3000   23.0715 C   0  0  0  0  0  0  0  0  0  0  0  0
   12.0897   16.2625   21.5491 C   0  0  0  0  0  0  0  0  0  0  0  0
   11.8992   14.7963   21.1081 C   0  0  0  0  0  0  0  0  0  0  0  0
   11.5753   15.8318   22.9384 C   0  0  0  0  0  0  0  0  0  0  0  0
   12.0732   14.4041   22.5976 C   0  0  0  0  0  0  0  0  0  0  0  0
    8.1141   12.9969   21.6459 C   0  0  0  0  0  0  0  0  0  0  0  0
   10.2996   11.0813   22.4303 C   0  0  0  0  0  0  0  0  0  0  0  0
    8.8486   10.8200   24.4337 N   0  0  0  0  0  0  0  0  0  0  0  0
    8.1373   12.2341   22.8736 N   0  0  0  0  0  0  0  0  0  0  0  0
   11.0892   12.2642   22.1673 N   0  0  0  0  0  0  0  0  0  0  0  0
   10.7092   13.3660   24.1831 O   0  0  0  0  0  0  0  0  0  0  0  0
    5.0879   11.7120   27.0268 H   0  0  0  0  0  0  0  0  0  0  0  0
    4.3044   13.2786   25.2895 H   0  0  0  0  0  0  0  0  0  0  0  0
    7.2253   10.4756   26.7539 H   0  0  0  0  0  0  0  0  0  0  0  0
    5.6422   13.6602   23.2205 H   0  0  0  0  0  0  0  0  0  0  0  0
   13.1351   16.5920   21.5464 H   0  0  0  0  0  0  0  0  0  0  0  0
   11.4799   17.0015   21.0237 H   0  0  0  0  0  0  0  0  0  0  0  0
   10.9021   14.5828   20.7087 H   0  0  0  0  0  0  0  0  0  0  0  0
   12.6523   14.4169   20.4143 H   0  0  0  0  0  0  0  0  0  0  0  0
   12.0555   16.3243   23.7865 H   0  0  0  0  0  0  0  0  0  0  0  0
   10.4881   15.9065   23.0474 H   0  0  0  0  0  0  0  0  0  0  0  0
   13.1214   14.2743   22.8563 H   0  0  0  0  0  0  0  0  0  0  0  0
    8.6176   13.9494   21.8311 H   0  0  0  0  0  0  0  0  0  0  0  0
    8.6302   12.4381   20.8603 H   0  0  0  0  0  0  0  0  0  0  0  0
    7.0764   13.1640   21.3439 H   0  0  0  0  0  0  0  0  0  0  0  0
   10.9729   10.3472   22.9067 H   0  0  0  0  0  0  0  0  0  0  0  0
   10.0298   10.6556   21.4482 H   0  0  0  0  0  0  0  0  0  0  0  0
   11.5694   12.3365   21.2759 H   0  0  0  0  0  0  0  0  0  0  0  0
  1  2  2  0  0  0  0
  1  3  1  0  0  0  0
  2  4  1  0  0  0  0
  3  5  2  0  0  0  0
  4  6  2  0  0  0  0
  5  6  1  0  0  0  0
  5 15  1  0  0  0  0
  6 16  1  0  0  0  0
  7 14  1  0  0  0  0
  7 15  2  0  0  0  0
  7 16  1  0  0  0  0
  8 12  1  0  0  0  0
  8 17  1  0  0  0  0
  8 18  2  0  0  0  0
  9 10  1  0  0  0  0
  9 11  1  0  0  0  0
 10 12  1  0  0  0  0
 11 12  1  0  0  0  0
 13 16  1  0  0  0  0
 14 17  1  0  0  0  0
  1 19  1  0  0  0  0
  2 20  1  0  0  0  0
  3 21  1  0  0  0  0
  4 22  1  0  0  0  0
  9 23  1  0  0  0  0
  9 24  1  0  0  0  0
 10 25  1  0  0  0  0
 10 26  1  0  0  0  0
 11 27  1  0  0  0  0
 11 28  1  0  0  0  0
 12 29  1  0  0  0  0
 13 30  1  0  0  0  0
 13 31  1  0  0  0  0
 13 32  1  0  0  0  0
 14 33  1  0  0  0  0
 14 34  1  0  0  0  0
 17 35  1  0  0  0  0
M  END
> <Catalog ID>
Z102329546

> <PlateID>
1337959-R-12

> <Well>
G11

> <MW (desalted)>
243.304

> <CLogP>
1.302

> <HBD>
1

> <TPSA>
46.920

> <RotBonds>
3

> <ROCS_ShapeQuery>
x0446_0A_x1080_0A_x0929_0A_x0812_0A_x0719_0A_x1140_0A_x0528_0A_x0310_0A

> <ROCS_TanimotoCombo>
0.360 

> <ROCS_ShapeTanimoto>
0.223 

> <ROCS_ColorTanimoto>
0.137 

> <ROCS_RefTversky>
0.204 

> <ROCS_RefColorTversky>
0.149 

> <ROCS_RefTverskyCombo>
0.353 

> <ROCS_FitTversky>
1.722 

> <ROCS_FitColorTversky>
0.624 

> <ROCS_FitTverskyCombo>
2.346 

> <ROCS_ColorScore>
-5.324

> <ROCS_Overlap>
2408.976

> <ROCS_Rank>
26                  

$$$$
untitled-dbase-431_128
  -OEChem-02082415003D

 38 40  0     1  0  0  0  0  0999 V2000
   12.0661   15.8348   23.3234 C   0  0  0  0  0  0  0  0  0  0  0  0
   13.1030   15.5198   22.4729 C   0  0  0  0  0  0  0  0  0  0  0  0
   10.9141   15.3466   21.3646 C   0  0  0  0  0  0  0  0  0  0  0  0
   10.7980   15.7344   22.6815 C   0  0  0  0  0  0  0  0  0  0  0  0
    9.2283   13.7148   24.3691 C   0  0  0  0  0  0  0  0  0  0  0  0
    8.3172   10.5864   25.0753 C   0  0  0  0  0  0  0  0  0  0  0  0
    7.2094   13.4983   25.8416 C   0  0  0  0  0  0  0  0  0  0  0  0
    9.6852   10.3647   24.4673 C   0  0  0  0  0  0  0  0  0  0  0  0
    5.7320   13.2215   25.6330 C   0  0  0  0  0  0  0  0  0  0  0  0
    8.3086   11.2963   22.8312 C   0  0  0  0  0  0  0  0  0  0  0  0
    6.1665   11.5284   24.0893 C   0  0  0  0  0  0  0  0  0  0  0  0
    7.6979   11.6685   24.1892 C   0  0  1  0  0  0  0  0  0  0  0  0
    9.4834   16.0206   23.3656 C   0  0  0  0  0  0  0  0  0  0  0  0
    9.2612   15.2029   24.6333 C   0  0  0  0  0  0  0  0  0  0  0  0
    8.0441   13.0360   24.7155 N   0  0  0  0  0  0  0  0  0  0  0  0
   10.2281   13.2026   23.8616 O   0  0  0  0  0  0  0  0  0  0  0  0
    9.5842   10.6857   23.0751 O   0  0  0  0  0  0  0  0  0  0  0  0
    5.5290   11.8507   25.3202 O   0  0  0  0  0  0  0  0  0  0  0  0
   12.5465   15.1052   20.9074 S   0  0  0  0  0  0  0  0  0  0  0  0
   12.2149   16.1234   24.3563 H   0  0  0  0  0  0  0  0  0  0  0  0
   14.1606   15.5139   22.6957 H   0  0  0  0  0  0  0  0  0  0  0  0
   10.1212   15.1936   20.6456 H   0  0  0  0  0  0  0  0  0  0  0  0
    7.7417    9.6549   24.9959 H   0  0  0  0  0  0  0  0  0  0  0  0
    8.3677   10.8331   26.1398 H   0  0  0  0  0  0  0  0  0  0  0  0
    7.3341   14.5650   26.0342 H   0  0  0  0  0  0  0  0  0  0  0  0
    7.5686   12.9616   26.7272 H   0  0  0  0  0  0  0  0  0  0  0  0
   10.4356   11.0226   24.9170 H   0  0  0  0  0  0  0  0  0  0  0  0
   10.0269    9.3317   24.5794 H   0  0  0  0  0  0  0  0  0  0  0  0
    5.1804   13.4391   26.5533 H   0  0  0  0  0  0  0  0  0  0  0  0
    5.3124   13.8542   24.8416 H   0  0  0  0  0  0  0  0  0  0  0  0
    7.7028   10.5422   22.3138 H   0  0  0  0  0  0  0  0  0  0  0  0
    8.4088   12.1387   22.1399 H   0  0  0  0  0  0  0  0  0  0  0  0
    5.7619   12.1625   23.2893 H   0  0  0  0  0  0  0  0  0  0  0  0
    5.8844   10.4977   23.8450 H   0  0  0  0  0  0  0  0  0  0  0  0
    8.6537   15.8729   22.6619 H   0  0  0  0  0  0  0  0  0  0  0  0
    9.4592   17.0857   23.6307 H   0  0  0  0  0  0  0  0  0  0  0  0
   10.0389   15.3978   25.3721 H   0  0  0  0  0  0  0  0  0  0  0  0
    8.3027   15.4700   25.0796 H   0  0  0  0  0  0  0  0  0  0  0  0
  1  2  2  0  0  0  0
  1  4  1  0  0  0  0
  2 19  1  0  0  0  0
  3  4  2  0  0  0  0
  3 19  1  0  0  0  0
  4 13  1  0  0  0  0
  5 14  1  0  0  0  0
  5 15  1  0  0  0  0
  5 16  2  0  0  0  0
  6  8  1  0  0  0  0
  6 12  1  0  0  0  0
  7  9  1  0  0  0  0
  7 15  1  0  0  0  0
  8 17  1  0  0  0  0
  9 18  1  0  0  0  0
 10 12  1  0  0  0  0
 10 17  1  0  0  0  0
 11 12  1  0  0  0  0
 11 18  1  0  0  0  0
 12 15  1  0  0  0  0
 13 14  1  0  0  0  0
  1 20  1  0  0  0  0
  2 21  1  0  0  0  0
  3 22  1  0  0  0  0
  6 23  1  0  0  0  0
  6 24  1  0  0  0  0
  7 25  1  0  0  0  0
  7 26  1  0  0  0  0
  8 27  1  0  0  0  0
  8 28  1  0  0  0  0
  9 29  1  0  0  0  0
  9 30  1  0  0  0  0
 10 31  1  0  0  0  0
 10 32  1  0  0  0  0
 11 33  1  0  0  0  0
 11 34  1  0  0  0  0
 13 35  1  0  0  0  0
 13 36  1  0  0  0  0
 14 37  1  0  0  0  0
 14 38  1  0  0  0  0
M  END
> <Catalog ID>
Z1995557489

> <PlateID>
1337959-R-10

> <Well>
B10

> <MW (desalted)>
281.371

> <CLogP>
0.895

> <HBD>
0

> <TPSA>
38.770

> <RotBonds>
3

> <ROCS_ShapeQuery>
x0446_0A_x1080_0A_x0929_0A_x0812_0A_x0719_0A_x1140_0A_x0528_0A_x0310_0A

> <ROCS_TanimotoCombo>
0.360 

> <ROCS_ShapeTanimoto>
0.213 

> <ROCS_ColorTanimoto>
0.147 

> <ROCS_RefTversky>
0.196 

> <ROCS_RefColorTversky>
0.155 

> <ROCS_RefTverskyCombo>
0.352 

> <ROCS_FitTversky>
1.644 

> <ROCS_FitColorTversky>
0.732 

> <ROCS_FitTverskyCombo>
2.376 

> <ROCS_ColorScore>
-5.539

> <ROCS_Overlap>
2318.175

> <ROCS_Rank>
27                  

$$$$
untitled-dbase-429_8
  -OEChem-02082415003D

 30 31  0     0  0  0  0  0  0999 V2000
    9.4573   10.8510   23.5813 C   0  0  0  0  0  0  0  0  0  0  0  0
    9.2197   12.2321   23.5891 C   0  0  0  0  0  0  0  0  0  0  0  0
    7.9455   12.3682   24.0909 C   0  0  0  0  0  0  0  0  0  0  0  0
    5.4088   11.8948   25.1366 C   0  0  0  0  0  0  0  0  0  0  0  0
    6.2161   10.8611   24.8789 C   0  0  0  0  0  0  0  0  0  0  0  0
    5.9884   13.2248   24.8204 C   0  0  0  0  0  0  0  0  0  0  0  0
   10.0814   13.2987   23.1764 C   0  0  0  0  0  0  0  0  0  0  0  0
   10.2043   16.1557   21.5171 C   0  0  0  0  0  0  0  0  0  0  0  0
    7.8460   13.8438   20.7963 C   0  0  0  0  0  0  0  0  0  0  0  0
   10.8891   14.8407   21.3601 C   0  0  0  0  0  0  0  0  0  0  0  0
    9.1660   13.1520   20.8327 C   0  0  0  0  0  0  0  0  0  0  0  0
    8.4249   10.1441   24.0397 N   0  0  0  0  0  0  0  0  0  0  0  0
    7.1683   13.4626   24.3330 N   0  0  0  0  0  0  0  0  0  0  0  0
    7.4882   11.0762   24.3558 N   0  0  0  0  0  0  0  0  0  0  0  0
   10.0476   13.7504   21.8328 N   0  0  0  0  0  0  0  0  0  0  0  0
   10.8330   13.8073   24.0338 O   0  0  0  0  0  0  0  0  0  0  0  0
   10.3434   10.3221   23.2598 H   0  0  0  0  0  0  0  0  0  0  0  0
    4.4114   11.8077   25.5415 H   0  0  0  0  0  0  0  0  0  0  0  0
    5.9222    9.8346   25.0616 H   0  0  0  0  0  0  0  0  0  0  0  0
    5.3251   14.0796   25.0319 H   0  0  0  0  0  0  0  0  0  0  0  0
    9.9699   16.3231   22.5787 H   0  0  0  0  0  0  0  0  0  0  0  0
   10.8646   16.9582   21.1566 H   0  0  0  0  0  0  0  0  0  0  0  0
    9.2731   16.1563   20.9316 H   0  0  0  0  0  0  0  0  0  0  0  0
    7.9944   14.9053   20.5486 H   0  0  0  0  0  0  0  0  0  0  0  0
    7.2074   13.3752   20.0330 H   0  0  0  0  0  0  0  0  0  0  0  0
    7.3616   13.7614   21.7805 H   0  0  0  0  0  0  0  0  0  0  0  0
   11.1199   14.6809   20.2965 H   0  0  0  0  0  0  0  0  0  0  0  0
   11.8233   14.8508   21.9406 H   0  0  0  0  0  0  0  0  0  0  0  0
    9.0091   12.0919   21.0809 H   0  0  0  0  0  0  0  0  0  0  0  0
    9.6401   13.2306   19.8432 H   0  0  0  0  0  0  0  0  0  0  0  0
  1  2  1  0  0  0  0
  1 12  2  0  0  0  0
  2  3  2  0  0  0  0
  2  7  1  0  0  0  0
  3 13  1  0  0  0  0
  3 14  1  0  0  0  0
  4  5  2  0  0  0  0
  4  6  1  0  0  0  0
  5 14  1  0  0  0  0
  6 13  2  0  0  0  0
  7 15  1  0  0  0  0
  7 16  2  0  0  0  0
  8 10  1  0  0  0  0
  9 11  1  0  0  0  0
 10 15  1  0  0  0  0
 11 15  1  0  0  0  0
 12 14  1  0  0  0  0
  1 17  1  0  0  0  0
  4 18  1  0  0  0  0
  5 19  1  0  0  0  0
  6 20  1  0  0  0  0
  8 21  1  0  0  0  0
  8 22  1  0  0  0  0
  8 23  1  0  0  0  0
  9 24  1  0  0  0  0
  9 25  1  0  0  0  0
  9 26  1  0  0  0  0
 10 27  1  0  0  0  0
 10 28  1  0  0  0  0
 11 29  1  0  0  0  0
 11 30  1  0  0  0  0
M  END
> <Catalog ID>
Z316418256

> <PlateID>
1337959-R-10

> <Well>
B07

> <MW (desalted)>
218.255

> <CLogP>
0.197

> <HBD>
0

> <TPSA>
50.500

> <RotBonds>
3

> <ROCS_ShapeQuery>
x0446_0A_x1080_0A_x0929_0A_x0812_0A_x0719_0A_x1140_0A_x0528_0A_x0310_0A

> <ROCS_TanimotoCombo>
0.360 

> <ROCS_ShapeTanimoto>
0.220 

> <ROCS_ColorTanimoto>
0.140 

> <ROCS_RefTversky>
0.200 

> <ROCS_RefColorTversky>
0.146 

> <ROCS_RefTverskyCombo>
0.346 

> <ROCS_FitTversky>
1.804 

> <ROCS_FitColorTversky>
0.783 

> <ROCS_FitTverskyCombo>
2.586 

> <ROCS_ColorScore>
-5.191

> <ROCS_Overlap>
2359.243

> <ROCS_Rank>
28                  

$$$$
untitled-dbase-426_71
  -OEChem-02082415003D

 31 32  0     0  0  0  0  0  0999 V2000
   13.0419   14.5545   22.6352 C   0  0  0  0  0  0  0  0  0  0  0  0
   12.8287   15.2801   21.4632 C   0  0  0  0  0  0  0  0  0  0  0  0
   11.9562   14.1438   23.4086 C   0  0  0  0  0  0  0  0  0  0  0  0
   11.5296   15.5951   21.0647 C   0  0  0  0  0  0  0  0  0  0  0  0
   10.6571   14.4588   23.0101 C   0  0  0  0  0  0  0  0  0  0  0  0
   10.4438   15.1845   21.8381 C   0  0  0  0  0  0  0  0  0  0  0  0
    9.5278   14.0166   23.8395 C   0  0  0  0  0  0  0  0  0  0  0  0
   10.2213   11.5855   23.5112 C   0  0  0  0  0  0  0  0  0  0  0  0
    8.3033   12.1721   24.9403 C   0  0  0  0  0  0  0  0  0  0  0  0
    9.3691   10.4656   22.9258 C   0  0  0  0  0  0  0  0  0  0  0  0
    7.5308   11.0361   24.2861 C   0  0  0  0  0  0  0  0  0  0  0  0
    8.5194   14.5729   20.5812 C   0  0  0  0  0  0  0  0  0  0  0  0
    9.3634   12.6467   24.0523 N   0  0  0  0  0  0  0  0  0  0  0  0
    8.8063   14.9026   24.2950 O   0  0  0  0  0  0  0  0  0  0  0  0
    8.4276    9.9938   23.8930 O   0  0  0  0  0  0  0  0  0  0  0  0
    9.1819   15.5004   21.4310 O   0  0  0  0  0  0  0  0  0  0  0  0
    9.3665   13.5316   20.3747 F   0  0  0  0  0  0  0  0  0  0  0  0
    7.4397   14.0689   21.2277 F   0  0  0  0  0  0  0  0  0  0  0  0
   14.0538   14.3093   22.9453 H   0  0  0  0  0  0  0  0  0  0  0  0
   13.6745   15.6000   20.8618 H   0  0  0  0  0  0  0  0  0  0  0  0
   12.1343   13.5784   24.3198 H   0  0  0  0  0  0  0  0  0  0  0  0
   11.3704   16.1606   20.1505 H   0  0  0  0  0  0  0  0  0  0  0  0
   10.9014   11.1849   24.2667 H   0  0  0  0  0  0  0  0  0  0  0  0
   10.8250   12.0499   22.7224 H   0  0  0  0  0  0  0  0  0  0  0  0
    7.6415   13.0281   25.1179 H   0  0  0  0  0  0  0  0  0  0  0  0
    8.7131   11.8543   25.9040 H   0  0  0  0  0  0  0  0  0  0  0  0
    8.8020   10.8401   22.0677 H   0  0  0  0  0  0  0  0  0  0  0  0
    9.9882    9.6310   22.5761 H   0  0  0  0  0  0  0  0  0  0  0  0
    6.7631   10.6310   24.9562 H   0  0  0  0  0  0  0  0  0  0  0  0
    7.0277   11.3988   23.3843 H   0  0  0  0  0  0  0  0  0  0  0  0
    8.2400   14.9940   19.6095 H   0  0  0  0  0  0  0  0  0  0  0  0
  1  2  2  0  0  0  0
  1  3  1  0  0  0  0
  2  4  1  0  0  0  0
  3  5  2  0  0  0  0
  4  6  2  0  0  0  0
  5  6  1  0  0  0  0
  5  7  1  0  0  0  0
  6 16  1  0  0  0  0
  7 13  1  0  0  0  0
  7 14  2  0  0  0  0
  8 10  1  0  0  0  0
  8 13  1  0  0  0  0
  9 11  1  0  0  0  0
  9 13  1  0  0  0  0
 10 15  1  0  0  0  0
 11 15  1  0  0  0  0
 12 16  1  0  0  0  0
 12 17  1  0  0  0  0
 12 18  1  0  0  0  0
  1 19  1  0  0  0  0
  2 20  1  0  0  0  0
  3 21  1  0  0  0  0
  4 22  1  0  0  0  0
  8 23  1  0  0  0  0
  8 24  1  0  0  0  0
  9 25  1  0  0  0  0
  9 26  1  0  0  0  0
 10 27  1  0  0  0  0
 10 28  1  0  0  0  0
 11 29  1  0  0  0  0
 11 30  1  0  0  0  0
 12 31  1  0  0  0  0
M  END
> <Catalog ID>
Z54409144

> <PlateID>
1337959-R-10

> <Well>
A08

> <MW (desalted)>
257.233

> <CLogP>
1.438

> <HBD>
0

> <TPSA>
38.770

> <RotBonds>
3

> <ROCS_ShapeQuery>
x0446_0A_x1080_0A_x0929_0A_x0812_0A_x0719_0A_x1140_0A_x0528_0A_x0310_0A

> <ROCS_TanimotoCombo>
0.359 

> <ROCS_ShapeTanimoto>
0.213 

> <ROCS_ColorTanimoto>
0.146 

> <ROCS_RefTversky>
0.196 

> <ROCS_RefColorTversky>
0.151 

> <ROCS_RefTverskyCombo>
0.347 

> <ROCS_FitTversky>
1.671 

> <ROCS_FitColorTversky>
0.815 

> <ROCS_FitTverskyCombo>
2.486 

> <ROCS_ColorScore>
-5.387

> <ROCS_Overlap>
2314.193

> <ROCS_Rank>
29                  

$$$$
untitled-dbase-172_14
  -OEChem-02082415003D

 27 28  0     0  0  0  0  0  0999 V2000
   11.5764   12.5619   22.9787 C   0  0  0  0  0  0  0  0  0  0  0  0
   11.7080   11.2421   22.5682 C   0  0  0  0  0  0  0  0  0  0  0  0
   10.3926   12.9933   23.5831 C   0  0  0  0  0  0  0  0  0  0  0  0
   10.6559   10.3524   22.7633 C   0  0  0  0  0  0  0  0  0  0  0  0
    9.3181   12.1107   23.8019 C   0  0  0  0  0  0  0  0  0  0  0  0
    9.4687   10.7765   23.3807 C   0  0  0  0  0  0  0  0  0  0  0  0
    7.0831   11.7189   24.8580 C   0  0  0  0  0  0  0  0  0  0  0  0
    8.0553   14.3139   21.9565 C   0  0  0  0  0  0  0  0  0  0  0  0
    7.4549   10.2719   25.0493 C   0  0  0  0  0  0  0  0  0  0  0  0
    7.2163   14.5612   23.1915 C   0  0  0  0  0  0  0  0  0  0  0  0
    7.8556   14.0184   24.4629 C   0  0  0  0  0  0  0  0  0  0  0  0
    8.0879   12.5756   24.3887 N   0  0  0  0  0  0  0  0  0  0  0  0
    5.9630   12.0974   25.2142 O   0  0  0  0  0  0  0  0  0  0  0  0
    8.0151   13.3111   21.2577 O   0  0  0  0  0  0  0  0  0  0  0  0
    8.8778   15.3646   21.6983 O   0  0  0  0  0  0  0  0  0  0  0  0
    8.1533    9.5900   23.5502 S   0  0  0  0  0  0  0  0  0  0  0  0
   12.3957   13.2603   22.8340 H   0  0  0  0  0  0  0  0  0  0  0  0
   12.6283   10.9046   22.1012 H   0  0  0  0  0  0  0  0  0  0  0  0
   10.3372   14.0409   23.8664 H   0  0  0  0  0  0  0  0  0  0  0  0
   10.7744    9.3241   22.4283 H   0  0  0  0  0  0  0  0  0  0  0  0
    8.1990   10.1952   25.8480 H   0  0  0  0  0  0  0  0  0  0  0  0
    6.5674    9.7094   25.3579 H   0  0  0  0  0  0  0  0  0  0  0  0
    7.0496   15.6402   23.2874 H   0  0  0  0  0  0  0  0  0  0  0  0
    6.2531   14.0616   23.0396 H   0  0  0  0  0  0  0  0  0  0  0  0
    7.2319   14.2084   25.3421 H   0  0  0  0  0  0  0  0  0  0  0  0
    8.8301   14.4898   24.6245 H   0  0  0  0  0  0  0  0  0  0  0  0
    9.4436   15.2617   20.9032 H   0  0  0  0  0  0  0  0  0  0  0  0
  1  2  2  0  0  0  0
  1  3  1  0  0  0  0
  2  4  1  0  0  0  0
  3  5  2  0  0  0  0
  4  6  2  0  0  0  0
  5  6  1  0  0  0  0
  5 12  1  0  0  0  0
  6 16  1  0  0  0  0
  7  9  1  0  0  0  0
  7 12  1  0  0  0  0
  7 13  2  0  0  0  0
  8 10  1  0  0  0  0
  8 14  2  0  0  0  0
  8 15  1  0  0  0  0
  9 16  1  0  0  0  0
 10 11  1  0  0  0  0
 11 12  1  0  0  0  0
  1 17  1  0  0  0  0
  2 18  1  0  0  0  0
  3 19  1  0  0  0  0
  4 20  1  0  0  0  0
  9 21  1  0  0  0  0
  9 22  1  0  0  0  0
 10 23  1  0  0  0  0
 10 24  1  0  0  0  0
 11 25  1  0  0  0  0
 11 26  1  0  0  0  0
 15 27  1  0  0  0  0
M  END
> <Catalog ID>
Z94598708

> <PlateID>
1337959-R-04

> <Well>
E04

> <MW (desalted)>
237.275

> <CLogP>
1.367

> <HBD>
1

> <TPSA>
57.610

> <RotBonds>
3

> <ROCS_ShapeQuery>
x0446_0A_x1080_0A_x0929_0A_x0812_0A_x0719_0A_x1140_0A_x0528_0A_x0310_0A

> <ROCS_TanimotoCombo>
0.359 

> <ROCS_ShapeTanimoto>
0.226 

> <ROCS_ColorTanimoto>
0.133 

> <ROCS_RefTversky>
0.205 

> <ROCS_RefColorTversky>
0.142 

> <ROCS_RefTverskyCombo>
0.347 

> <ROCS_FitTversky>
1.890 

> <ROCS_FitColorTversky>
0.668 

> <ROCS_FitTverskyCombo>
2.557 

> <ROCS_ColorScore>
-5.057

> <ROCS_Overlap>
2413.797

> <ROCS_Rank>
30                  

$$$$
untitled-dbase-497_8
  -OEChem-02082415003D

 37 38  0     0  0  0  0  0  0999 V2000
    9.3805   10.1951   23.3889 C   0  0  0  0  0  0  0  0  0  0  0  0
    8.3415   11.9938   24.1100 C   0  0  0  0  0  0  0  0  0  0  0  0
    9.4138   11.6018   23.3465 C   0  0  0  0  0  0  0  0  0  0  0  0
   10.3335   13.8389   22.6582 C   0  0  0  0  0  0  0  0  0  0  0  0
   13.6753   15.1322   22.5383 C   0  0  0  0  0  0  0  0  0  0  0  0
   12.6710   16.2482   22.7645 C   0  0  0  0  0  0  0  0  0  0  0  0
   12.8077   13.8820   22.4204 C   0  0  0  0  0  0  0  0  0  0  0  0
   11.5409   15.8951   21.8056 C   0  0  0  0  0  0  0  0  0  0  0  0
   11.4838   14.3689   21.8252 C   0  0  0  0  0  0  0  0  0  0  0  0
    5.4771    9.9166   24.7269 C   0  0  0  0  0  0  0  0  0  0  0  0
    6.0750   12.1183   25.8230 C   0  0  0  0  0  0  0  0  0  0  0  0
    6.5835   10.7436   25.3847 C   0  0  0  0  0  0  0  0  0  0  0  0
    8.3674    9.7251   24.1215 N   0  0  0  0  0  0  0  0  0  0  0  0
    7.7542   10.8429   24.5466 N   0  0  0  0  0  0  0  0  0  0  0  0
   11.2603   13.8335   20.5056 N   0  0  0  0  0  0  0  0  0  0  0  0
   10.3287   12.4500   22.6787 N   0  0  0  0  0  0  0  0  0  0  0  0
    9.5539   14.6066   23.2129 O   0  0  0  0  0  0  0  0  0  0  0  0
   10.0506    9.4905   22.9169 H   0  0  0  0  0  0  0  0  0  0  0  0
    7.9553   12.9693   24.3741 H   0  0  0  0  0  0  0  0  0  0  0  0
   14.2227   15.2999   21.6030 H   0  0  0  0  0  0  0  0  0  0  0  0
   14.4040   15.0551   23.3502 H   0  0  0  0  0  0  0  0  0  0  0  0
   12.3107   16.2329   23.7999 H   0  0  0  0  0  0  0  0  0  0  0  0
   13.0939   17.2363   22.5621 H   0  0  0  0  0  0  0  0  0  0  0  0
   13.3098   13.1260   21.8058 H   0  0  0  0  0  0  0  0  0  0  0  0
   12.6676   13.4381   23.4140 H   0  0  0  0  0  0  0  0  0  0  0  0
   10.6050   16.3850   22.0948 H   0  0  0  0  0  0  0  0  0  0  0  0
   11.8060   16.2704   20.8080 H   0  0  0  0  0  0  0  0  0  0  0  0
    5.1091   10.3842   23.8075 H   0  0  0  0  0  0  0  0  0  0  0  0
    4.6258    9.8036   25.4067 H   0  0  0  0  0  0  0  0  0  0  0  0
    5.8388    8.9147   24.4701 H   0  0  0  0  0  0  0  0  0  0  0  0
    5.7487   12.7075   24.9589 H   0  0  0  0  0  0  0  0  0  0  0  0
    6.8676   12.6770   26.3320 H   0  0  0  0  0  0  0  0  0  0  0  0
    5.2275   12.0399   26.5123 H   0  0  0  0  0  0  0  0  0  0  0  0
    6.8926   10.2081   26.2917 H   0  0  0  0  0  0  0  0  0  0  0  0
   11.1591   14.5928   19.8738 H   0  0  0  0  0  0  0  0  0  0  0  0
   12.0437   13.2754   20.2591 H   0  0  0  0  0  0  0  0  0  0  0  0
   11.0631   11.9750   22.1579 H   0  0  0  0  0  0  0  0  0  0  0  0
  1  3  1  0  0  0  0
  1 13  2  0  0  0  0
  2  3  2  0  0  0  0
  2 14  1  0  0  0  0
  3 16  1  0  0  0  0
  4  9  1  0  0  0  0
  4 16  1  0  0  0  0
  4 17  2  0  0  0  0
  5  6  1  0  0  0  0
  5  7  1  0  0  0  0
  6  8  1  0  0  0  0
  7  9  1  0  0  0  0
  8  9  1  0  0  0  0
  9 15  1  0  0  0  0
 10 12  1  0  0  0  0
 11 12  1  0  0  0  0
 12 14  1  0  0  0  0
 13 14  1  0  0  0  0
  1 18  1  0  0  0  0
  2 19  1  0  0  0  0
  5 20  1  0  0  0  0
  5 21  1  0  0  0  0
  6 22  1  0  0  0  0
  6 23  1  0  0  0  0
  7 24  1  0  0  0  0
  7 25  1  0  0  0  0
  8 26  1  0  0  0  0
  8 27  1  0  0  0  0
 10 28  1  0  0  0  0
 10 29  1  0  0  0  0
 10 30  1  0  0  0  0
 11 31  1  0  0  0  0
 11 32  1  0  0  0  0
 11 33  1  0  0  0  0
 12 34  1  0  0  0  0
 15 35  1  0  0  0  0
 15 36  1  0  0  0  0
 16 37  1  0  0  0  0
M  END
> <Catalog ID>
Z1450282941

> <PlateID>
1337959-R-11

> <Well>
G09

> <MW (desalted)>
236.313

> <CLogP>
0.982

> <HBD>
2

> <TPSA>
72.940

> <RotBonds>
3

> <ROCS_ShapeQuery>
x0446_0A_x1080_0A_x0929_0A_x0812_0A_x0719_0A_x1140_0A_x0528_0A_x0310_0A

> <ROCS_TanimotoCombo>
0.359 

> <ROCS_ShapeTanimoto>
0.209 

> <ROCS_ColorTanimoto>
0.149 

> <ROCS_RefTversky>
0.193 

> <ROCS_RefColorTversky>
0.164 

> <ROCS_RefTverskyCombo>
0.357 

> <ROCS_FitTversky>
1.702 

> <ROCS_FitColorTversky>
0.621 

> <ROCS_FitTverskyCombo>
2.323 

> <ROCS_ColorScore>
-5.875

> <ROCS_Overlap>
2272.160

> <ROCS_Rank>
31                  

$$$$
untitled-dbase-633_72
  -OEChem-02082415003D

 35 37  0     1  0  0  0  0  0999 V2000
   12.7156   16.2218   21.8176 C   0  0  0  0  0  0  0  0  0  0  0  0
   12.3233   15.8705   23.1416 C   0  0  0  0  0  0  0  0  0  0  0  0
   12.0803   15.4519   20.8683 C   0  0  0  0  0  0  0  0  0  0  0  0
   11.4029   14.8456   23.1537 C   0  0  0  0  0  0  0  0  0  0  0  0
    9.3587   13.7006   24.0084 C   0  0  0  0  0  0  0  0  0  0  0  0
    6.7438   12.0670   23.4192 C   0  0  0  0  0  0  0  0  0  0  0  0
   10.1637   11.3120   24.0562 C   0  0  0  0  0  0  0  0  0  0  0  0
    5.4175   12.0321   24.1562 C   0  0  0  0  0  0  0  0  0  0  0  0
    9.6452   10.1265   23.2537 C   0  0  0  0  0  0  0  0  0  0  0  0
    7.0918   12.4965   25.7237 C   0  0  0  0  0  0  0  0  0  0  0  0
    7.8524   10.2901   24.8303 C   0  0  0  0  0  0  0  0  0  0  0  0
    7.7632   11.8108   24.5284 C   0  0  1  0  0  0  0  0  0  0  0  0
   10.7478   14.1946   24.3337 C   0  0  0  0  0  0  0  0  0  0  0  0
    9.1164   12.3323   24.2001 N   0  0  0  0  0  0  0  0  0  0  0  0
    8.5264   14.5146   23.6008 O   0  0  0  0  0  0  0  0  0  0  0  0
    5.6724   12.3831   25.5224 O   0  0  0  0  0  0  0  0  0  0  0  0
    8.4385    9.5607   23.7569 O   0  0  0  0  0  0  0  0  0  0  0  0
   11.0157   14.3111   21.5736 S   0  0  0  0  0  0  0  0  0  0  0  0
   13.4268   16.9999   21.5731 H   0  0  0  0  0  0  0  0  0  0  0  0
   12.6992   16.3497   24.0368 H   0  0  0  0  0  0  0  0  0  0  0  0
   12.1907   15.5045   19.7943 H   0  0  0  0  0  0  0  0  0  0  0  0
    6.7601   11.2497   22.6902 H   0  0  0  0  0  0  0  0  0  0  0  0
    6.8863   12.9941   22.8625 H   0  0  0  0  0  0  0  0  0  0  0  0
   10.5239   10.9474   25.0077 H   0  0  0  0  0  0  0  0  0  0  0  0
   10.9869   11.7845   23.5273 H   0  0  0  0  0  0  0  0  0  0  0  0
    4.7107   12.7597   23.7416 H   0  0  0  0  0  0  0  0  0  0  0  0
    4.9477   11.0437   24.1152 H   0  0  0  0  0  0  0  0  0  0  0  0
    9.4476   10.4463   22.2089 H   0  0  0  0  0  0  0  0  0  0  0  0
   10.4205    9.3310   23.1728 H   0  0  0  0  0  0  0  0  0  0  0  0
    7.3093   11.9748   26.6589 H   0  0  0  0  0  0  0  0  0  0  0  0
    7.3801   13.5374   25.8647 H   0  0  0  0  0  0  0  0  0  0  0  0
    8.4202   10.1076   25.7537 H   0  0  0  0  0  0  0  0  0  0  0  0
    6.8515    9.8711   24.9934 H   0  0  0  0  0  0  0  0  0  0  0  0
   11.3422   13.3479   24.6778 H   0  0  0  0  0  0  0  0  0  0  0  0
   10.6755   14.8883   25.1712 H   0  0  0  0  0  0  0  0  0  0  0  0
  1  2  1  0  0  0  0
  1  3  2  0  0  0  0
  2  4  2  0  0  0  0
  3 18  1  0  0  0  0
  4 13  1  0  0  0  0
  4 18  1  0  0  0  0
  5 13  1  0  0  0  0
  5 14  1  0  0  0  0
  5 15  2  0  0  0  0
  6  8  1  0  0  0  0
  6 12  1  0  0  0  0
  7  9  1  0  0  0  0
  7 14  1  0  0  0  0
  8 16  1  0  0  0  0
  9 17  1  0  0  0  0
 10 12  1  0  0  0  0
 10 16  1  0  0  0  0
 11 12  1  0  0  0  0
 11 17  1  0  0  0  0
 12 14  1  0  0  0  0
  1 19  1  0  0  0  0
  2 20  1  0  0  0  0
  3 21  1  0  0  0  0
  6 22  1  0  0  0  0
  6 23  1  0  0  0  0
  7 24  1  0  0  0  0
  7 25  1  0  0  0  0
  8 26  1  0  0  0  0
  8 27  1  0  0  0  0
  9 28  1  0  0  0  0
  9 29  1  0  0  0  0
 10 30  1  0  0  0  0
 10 31  1  0  0  0  0
 11 32  1  0  0  0  0
 11 33  1  0  0  0  0
 13 34  1  0  0  0  0
 13 35  1  0  0  0  0
M  END
> <Catalog ID>
Z1995557148

> <PlateID>
1337959-R-14

> <Well>
H10

> <MW (desalted)>
267.344

> <CLogP>
0.751

> <HBD>
0

> <TPSA>
38.770

> <RotBonds>
2

> <ROCS_ShapeQuery>
x0446_0A_x1080_0A_x0929_0A_x0812_0A_x0719_0A_x1140_0A_x0528_0A_x0310_0A

> <ROCS_TanimotoCombo>
0.357 

> <ROCS_ShapeTanimoto>
0.219 

> <ROCS_ColorTanimoto>
0.138 

> <ROCS_RefTversky>
0.201 

> <ROCS_RefColorTversky>
0.147 

> <ROCS_RefTverskyCombo>
0.348 

> <ROCS_FitTversky>
1.723 

> <ROCS_FitColorTversky>
0.694 

> <ROCS_FitTverskyCombo>
2.417 

> <ROCS_ColorScore>
-5.248

> <ROCS_Overlap>
2368.297

> <ROCS_Rank>
32                  

$$$$
untitled-dbase-572_32
  -OEChem-02082415003D

 34 36  0     0  0  0  0  0  0999 V2000
    7.9177   10.2054   23.6450 C   0  0  0  0  0  0  0  0  0  0  0  0
    9.1646   10.4006   23.0392 C   0  0  0  0  0  0  0  0  0  0  0  0
    9.2131   12.7199   23.7639 C   0  0  0  0  0  0  0  0  0  0  0  0
    7.3257   11.2640   24.3174 C   0  0  0  0  0  0  0  0  0  0  0  0
    9.8075   11.6483   23.1004 C   0  0  0  0  0  0  0  0  0  0  0  0
    7.9800   12.4954   24.3419 C   0  0  0  0  0  0  0  0  0  0  0  0
    5.9767   11.2433   24.9797 C   0  0  0  0  0  0  0  0  0  0  0  0
   11.9116   16.2316   22.1020 C   0  0  0  0  0  0  0  0  0  0  0  0
   12.9249   15.0745   21.9630 C   0  0  0  0  0  0  0  0  0  0  0  0
   10.9496   15.2143   22.7535 C   0  0  0  0  0  0  0  0  0  0  0  0
    5.9481   12.4355   25.9458 C   0  0  0  0  0  0  0  0  0  0  0  0
   11.7112   14.1188   21.9749 C   0  0  0  0  0  0  0  0  0  0  0  0
   11.9654   12.8718   22.8315 C   0  0  0  0  0  0  0  0  0  0  0  0
   11.0669   11.8157   22.4844 N   0  0  0  0  0  0  0  0  0  0  0  0
    6.3629   14.5065   24.3247 O   0  0  0  0  0  0  0  0  0  0  0  0
    7.9230   14.1762   26.3142 O   0  0  0  0  0  0  0  0  0  0  0  0
    7.0729   13.6639   25.2620 S   0  0  0  0  0  0  0  0  0  0  0  0
    7.4273    9.2391   23.5845 H   0  0  0  0  0  0  0  0  0  0  0  0
    9.6327    9.5703   22.5151 H   0  0  0  0  0  0  0  0  0  0  0  0
    9.6974   13.6885   23.8248 H   0  0  0  0  0  0  0  0  0  0  0  0
    5.2053   11.3628   24.2104 H   0  0  0  0  0  0  0  0  0  0  0  0
    5.7969   10.3074   25.5170 H   0  0  0  0  0  0  0  0  0  0  0  0
   12.2249   17.0648   22.7356 H   0  0  0  0  0  0  0  0  0  0  0  0
   11.5559   16.6242   21.1425 H   0  0  0  0  0  0  0  0  0  0  0  0
   13.5205   15.0755   21.0467 H   0  0  0  0  0  0  0  0  0  0  0  0
   13.5952   14.9732   22.8245 H   0  0  0  0  0  0  0  0  0  0  0  0
   11.0490   15.1544   23.8437 H   0  0  0  0  0  0  0  0  0  0  0  0
    9.8931   15.3314   22.4988 H   0  0  0  0  0  0  0  0  0  0  0  0
    4.9509   12.8646   26.0627 H   0  0  0  0  0  0  0  0  0  0  0  0
    6.3459   12.1478   26.9249 H   0  0  0  0  0  0  0  0  0  0  0  0
   11.3192   13.8759   21.0354 H   0  0  0  0  0  0  0  0  0  0  0  0
   12.9990   12.5309   22.6716 H   0  0  0  0  0  0  0  0  0  0  0  0
   11.8242   13.1295   23.8915 H   0  0  0  0  0  0  0  0  0  0  0  0
   11.3162   11.1527   21.7759 H   0  0  0  0  0  0  0  0  0  0  0  0
  1  2  1  0  0  0  0
  1  4  2  0  0  0  0
  2  5  2  0  0  0  0
  3  5  1  0  0  0  0
  3  6  2  0  0  0  0
  4  6  1  0  0  0  0
  4  7  1  0  0  0  0
  5 14  1  0  0  0  0
  6 17  1  0  0  0  0
  7 11  1  0  0  0  0
  8  9  1  0  0  0  0
  8 10  1  0  0  0  0
  9 12  1  0  0  0  0
 10 12  1  0  0  0  0
 11 17  1  0  0  0  0
 12 13  1  0  0  0  0
 13 14  1  0  0  0  0
 15 17  2  0  0  0  0
 16 17  2  0  0  0  0
  1 18  1  0  0  0  0
  2 19  1  0  0  0  0
  3 20  1  0  0  0  0
  7 21  1  0  0  0  0
  7 22  1  0  0  0  0
  8 23  1  0  0  0  0
  8 24  1  0  0  0  0
  9 25  1  0  0  0  0
  9 26  1  0  0  0  0
 10 27  1  0  0  0  0
 10 28  1  0  0  0  0
 11 29  1  0  0  0  0
 11 30  1  0  0  0  0
 12 31  1  0  0  0  0
 13 32  1  0  0  0  0
 13 33  1  0  0  0  0
 14 34  1  0  0  0  0
M  END
> <Catalog ID>
Z1507416588

> <PlateID>
1337959-R-13

> <Well>
D06

> <MW (desalted)>
251.345

> <CLogP>
2.423

> <HBD>
1

> <TPSA>
46.170

> <RotBonds>
3

> <ROCS_ShapeQuery>
x0446_0A_x1080_0A_x0929_0A_x0812_0A_x0719_0A_x1140_0A_x0528_0A_x0310_0A

> <ROCS_TanimotoCombo>
0.357 

> <ROCS_ShapeTanimoto>
0.223 

> <ROCS_ColorTanimoto>
0.134 

> <ROCS_RefTversky>
0.203 

> <ROCS_RefColorTversky>
0.143 

> <ROCS_RefTverskyCombo>
0.346 

> <ROCS_FitTversky>
1.818 

> <ROCS_FitColorTversky>
0.674 

> <ROCS_FitTverskyCombo>
2.492 

> <ROCS_ColorScore>
-5.107

> <ROCS_Overlap>
2392.604

> <ROCS_Rank>
33                  

$$$$
untitled-dbase-632_2
  -OEChem-02082415003D

 23 25  0     0  0  0  0  0  0999 V2000
    8.5979   13.6792   22.4014 C   0  0  0  0  0  0  0  0  0  0  0  0
    7.7678   15.2379   21.2624 C   0  0  0  0  0  0  0  0  0  0  0  0
    8.5167   12.3676   24.7275 C   0  0  0  0  0  0  0  0  0  0  0  0
    7.6678   11.2868   23.1422 C   0  0  0  0  0  0  0  0  0  0  0  0
    9.8001   10.5060   23.9171 C   0  0  0  0  0  0  0  0  0  0  0  0
    8.4156   10.8459   24.4303 C   0  0  0  0  0  0  0  0  0  0  0  0
    8.7710   12.4004   23.1805 C   0  0  0  0  0  0  0  0  0  0  0  0
    6.7153   15.9572   20.5341 C   0  0  0  0  0  0  0  0  0  0  0  0
    9.5695   14.5404   22.2085 N   0  0  0  0  0  0  0  0  0  0  0  0
    9.0233   15.5658   21.4593 N   0  0  0  0  0  0  0  0  0  0  0  0
   10.0420   11.6465   23.0250 N   0  0  0  0  0  0  0  0  0  0  0  0
    7.4195   14.0511   21.8307 O   0  0  0  0  0  0  0  0  0  0  0  0
    7.5929   12.8456   25.0759 H   0  0  0  0  0  0  0  0  0  0  0  0
    9.3376   12.6893   25.3775 H   0  0  0  0  0  0  0  0  0  0  0  0
    7.6888   10.5906   22.2969 H   0  0  0  0  0  0  0  0  0  0  0  0
    6.6342   11.6255   23.2855 H   0  0  0  0  0  0  0  0  0  0  0  0
   10.5377   10.4640   24.7254 H   0  0  0  0  0  0  0  0  0  0  0  0
    9.8185    9.5621   23.3635 H   0  0  0  0  0  0  0  0  0  0  0  0
    7.9123   10.1955   25.1427 H   0  0  0  0  0  0  0  0  0  0  0  0
    6.6885   15.6659   19.4684 H   0  0  0  0  0  0  0  0  0  0  0  0
    5.7085   15.7678   20.9518 H   0  0  0  0  0  0  0  0  0  0  0  0
    6.8516   17.0547   20.5713 H   0  0  0  0  0  0  0  0  0  0  0  0
   10.8664   12.1576   23.3397 H   0  0  0  0  0  0  0  0  0  0  0  0
  1  7  1  0  0  0  0
  1  9  2  0  0  0  0
  1 12  1  0  0  0  0
  2  8  1  0  0  0  0
  2 10  2  0  0  0  0
  2 12  1  0  0  0  0
  3  6  1  0  0  0  0
  3  7  1  0  0  0  0
  4  6  1  0  0  0  0
  4  7  1  0  0  0  0
  5  6  1  0  0  0  0
  5 11  1  0  0  0  0
  7 11  1  0  0  0  0
  9 10  1  0  0  0  0
  3 13  1  0  0  0  0
  3 14  1  0  0  0  0
  4 15  1  0  0  0  0
  4 16  1  0  0  0  0
  5 17  1  0  0  0  0
  5 18  1  0  0  0  0
  6 19  1  0  0  0  0
  8 20  1  0  0  0  0
  8 21  1  0  0  0  0
  8 22  1  0  0  0  0
 11 23  1  0  0  0  0
M  END
> <Catalog ID>
Z2583442268

> <PlateID>
1337959-R-14

> <Well>
H09

> <MW (desalted)>
165.192

> <CLogP>
-1.590

> <HBD>
1

> <TPSA>
50.950

> <RotBonds>
1

> <ROCS_ShapeQuery>
x0446_0A_x1080_0A_x0929_0A_x0812_0A_x0719_0A_x1140_0A_x0528_0A_x0310_0A

> <ROCS_TanimotoCombo>
0.357 

> <ROCS_ShapeTanimoto>
0.169 

> <ROCS_ColorTanimoto>
0.188 

> <ROCS_RefTversky>
0.159 

> <ROCS_RefColorTversky>
0.217 

> <ROCS_RefTverskyCombo>
0.376 

> <ROCS_FitTversky>
1.626 

> <ROCS_FitColorTversky>
0.582 

> <ROCS_FitTverskyCombo>
2.208 

> <ROCS_ColorScore>
-7.795

> <ROCS_Overlap>
1870.951

> <ROCS_Rank>
34                  

$$$$
untitled-dbase-414_14
  -OEChem-02082415003D

 29 30  0     0  0  0  0  0  0999 V2000
   13.1274   15.0302   21.3147 C   0  0  0  0  0  0  0  0  0  0  0  0
   11.8528   15.1417   20.7592 C   0  0  0  0  0  0  0  0  0  0  0  0
   13.2753   14.6723   22.6547 C   0  0  0  0  0  0  0  0  0  0  0  0
    8.3991   10.4251   23.7848 C   0  0  0  0  0  0  0  0  0  0  0  0
    7.4825   11.4577   23.6218 C   0  0  0  0  0  0  0  0  0  0  0  0
   10.7261   14.8955   21.5437 C   0  0  0  0  0  0  0  0  0  0  0  0
   12.1486   14.4260   23.4393 C   0  0  0  0  0  0  0  0  0  0  0  0
    9.7394   10.7588   23.8942 C   0  0  0  0  0  0  0  0  0  0  0  0
    7.9279   12.7741   23.5739 C   0  0  0  0  0  0  0  0  0  0  0  0
   10.8740   14.5376   22.8838 C   0  0  0  0  0  0  0  0  0  0  0  0
    9.2892   13.0027   23.6929 C   0  0  0  0  0  0  0  0  0  0  0  0
    6.9747   13.8596   23.4027 C   0  0  0  0  0  0  0  0  0  0  0  0
    5.7753   15.3219   21.7576 C   0  0  0  0  0  0  0  0  0  0  0  0
   10.2098   12.0255   23.8524 N   0  0  0  0  0  0  0  0  0  0  0  0
    6.6821   14.2467   22.0899 N   0  0  0  0  0  0  0  0  0  0  0  0
    6.4705   14.4185   24.3926 O   0  0  0  0  0  0  0  0  0  0  0  0
    9.7750   14.2988   23.6502 O   0  0  0  0  0  0  0  0  0  0  0  0
   14.0049   15.2212   20.7039 H   0  0  0  0  0  0  0  0  0  0  0  0
   11.7375   15.4206   19.7157 H   0  0  0  0  0  0  0  0  0  0  0  0
   14.2682   14.5854   23.0865 H   0  0  0  0  0  0  0  0  0  0  0  0
    8.0753    9.3914   23.8264 H   0  0  0  0  0  0  0  0  0  0  0  0
    6.4245   11.2256   23.5331 H   0  0  0  0  0  0  0  0  0  0  0  0
    9.7360   14.9856   21.1054 H   0  0  0  0  0  0  0  0  0  0  0  0
   12.2699   14.1493   24.4831 H   0  0  0  0  0  0  0  0  0  0  0  0
   10.4948    9.9906   24.0236 H   0  0  0  0  0  0  0  0  0  0  0  0
    4.7700   14.9125   21.5792 H   0  0  0  0  0  0  0  0  0  0  0  0
    5.7364   16.0392   22.5906 H   0  0  0  0  0  0  0  0  0  0  0  0
    6.1294   15.8327   20.8500 H   0  0  0  0  0  0  0  0  0  0  0  0
    7.1694   13.7994   21.3204 H   0  0  0  0  0  0  0  0  0  0  0  0
  1  2  2  0  0  0  0
  1  3  1  0  0  0  0
  2  6  1  0  0  0  0
  3  7  2  0  0  0  0
  4  5  1  0  0  0  0
  4  8  2  0  0  0  0
  5  9  2  0  0  0  0
  6 10  2  0  0  0  0
  7 10  1  0  0  0  0
  8 14  1  0  0  0  0
  9 11  1  0  0  0  0
  9 12  1  0  0  0  0
 10 17  1  0  0  0  0
 11 14  2  0  0  0  0
 11 17  1  0  0  0  0
 12 15  1  0  0  0  0
 12 16  2  0  0  0  0
 13 15  1  0  0  0  0
  1 18  1  0  0  0  0
  2 19  1  0  0  0  0
  3 20  1  0  0  0  0
  4 21  1  0  0  0  0
  5 22  1  0  0  0  0
  6 23  1  0  0  0  0
  7 24  1  0  0  0  0
  8 25  1  0  0  0  0
 13 26  1  0  0  0  0
 13 27  1  0  0  0  0
 13 28  1  0  0  0  0
 15 29  1  0  0  0  0
M  END
> <Catalog ID>
Z51983110

> <PlateID>
1337959-R-09

> <Well>
G09

> <MW (desalted)>
228.247

> <CLogP>
2.136

> <HBD>
1

> <TPSA>
51.220

> <RotBonds>
3

> <ROCS_ShapeQuery>
x0446_0A_x1080_0A_x0929_0A_x0812_0A_x0719_0A_x1140_0A_x0528_0A_x0310_0A

> <ROCS_TanimotoCombo>
0.356 

> <ROCS_ShapeTanimoto>
0.214 

> <ROCS_ColorTanimoto>
0.142 

> <ROCS_RefTversky>
0.196 

> <ROCS_RefColorTversky>
0.151 

> <ROCS_RefTverskyCombo>
0.348 

> <ROCS_FitTversky>
1.714 

> <ROCS_FitColorTversky>
0.712 

> <ROCS_FitTverskyCombo>
2.425 

> <ROCS_ColorScore>
-5.386

> <ROCS_Overlap>
2318.586

> <ROCS_Rank>
35                  

$$$$
untitled-dbase-646_4
  -OEChem-02082415003D

 29 31  0     1  0  0  0  0  0999 V2000
    8.3119   14.0678   21.8754 C   0  0  0  0  0  0  0  0  0  0  0  0
    8.5751   15.7066   20.6406 C   0  0  0  0  0  0  0  0  0  0  0  0
    8.2668   11.1512   25.2682 C   0  0  0  0  0  0  0  0  0  0  0  0
    9.7766   11.3487   25.1122 C   0  0  0  0  0  0  0  0  0  0  0  0
    7.4009   12.0432   23.0300 C   0  0  0  0  0  0  0  0  0  0  0  0
    9.9195   12.3718   22.7699 C   0  0  0  0  0  0  0  0  0  0  0  0
    8.5525   13.0707   22.9470 C   0  0  0  0  0  0  0  0  0  0  0  0
    7.7761   10.8039   23.8634 C   0  0  1  0  0  0  0  0  0  0  0  0
   10.0468   11.1002   23.6289 C   0  0  2  0  0  0  0  0  0  0  0  0
    8.9852   16.9089   19.9026 C   0  0  0  0  0  0  0  0  0  0  0  0
    9.1659   15.1064   21.6427 N   0  0  0  0  0  0  0  0  0  0  0  0
    7.2431   14.0042   21.0757 N   0  0  0  0  0  0  0  0  0  0  0  0
    8.9649   10.1711   23.2767 N   0  0  0  0  0  0  0  0  0  0  0  0
    7.4203   15.1135   20.2392 O   0  0  0  0  0  0  0  0  0  0  0  0
    8.0805   10.3189   25.9581 H   0  0  0  0  0  0  0  0  0  0  0  0
    7.7780   12.0396   25.6808 H   0  0  0  0  0  0  0  0  0  0  0  0
   10.0957   12.3431   25.4409 H   0  0  0  0  0  0  0  0  0  0  0  0
   10.3035   10.6099   25.7285 H   0  0  0  0  0  0  0  0  0  0  0  0
    6.5119   12.5240   23.4581 H   0  0  0  0  0  0  0  0  0  0  0  0
    7.1184   11.7164   22.0195 H   0  0  0  0  0  0  0  0  0  0  0  0
   10.0666   12.1011   21.7150 H   0  0  0  0  0  0  0  0  0  0  0  0
   10.7245   13.0738   23.0228 H   0  0  0  0  0  0  0  0  0  0  0  0
    8.5775   13.6276   23.8927 H   0  0  0  0  0  0  0  0  0  0  0  0
    6.9299   10.1099   23.8929 H   0  0  0  0  0  0  0  0  0  0  0  0
   11.0296   10.6447   23.4697 H   0  0  0  0  0  0  0  0  0  0  0  0
    9.6247   16.6543   19.0384 H   0  0  0  0  0  0  0  0  0  0  0  0
    8.1209   17.4803   19.5156 H   0  0  0  0  0  0  0  0  0  0  0  0
    9.5526   17.6174   20.5348 H   0  0  0  0  0  0  0  0  0  0  0  0
    9.1297    9.2785   23.7442 H   0  0  0  0  0  0  0  0  0  0  0  0
  1  7  1  0  0  0  0
  1 11  1  0  0  0  0
  1 12  2  0  0  0  0
  2 10  1  0  0  0  0
  2 11  2  0  0  0  0
  2 14  1  0  0  0  0
  3  4  1  0  0  0  0
  3  8  1  0  0  0  0
  4  9  1  0  0  0  0
  5  7  1  0  0  0  0
  5  8  1  0  0  0  0
  6  7  1  0  0  0  0
  6  9  1  0  0  0  0
  8 13  1  0  0  0  0
  9 13  1  0  0  0  0
 12 14  1  0  0  0  0
  3 15  1  0  0  0  0
  3 16  1  0  0  0  0
  4 17  1  0  0  0  0
  4 18  1  0  0  0  0
  5 19  1  0  0  0  0
  5 20  1  0  0  0  0
  6 21  1  0  0  0  0
  6 22  1  0  0  0  0
  7 23  1  0  0  0  0
  8 24  1  0  0  0  0
  9 25  1  0  0  0  0
 10 26  1  0  0  0  0
 10 27  1  0  0  0  0
 10 28  1  0  0  0  0
 13 29  1  0  0  0  0
M  END
> <Catalog ID>
Z2313092136

> <PlateID>
1337959-R-15

> <Well>
B06

> <MW (desalted)>
193.246

> <CLogP>
0.048

> <HBD>
1

> <TPSA>
50.950

> <RotBonds>
1

> <ROCS_ShapeQuery>
x0446_0A_x1080_0A_x0929_0A_x0812_0A_x0719_0A_x1140_0A_x0528_0A_x0310_0A

> <ROCS_TanimotoCombo>
0.356 

> <ROCS_ShapeTanimoto>
0.169 

> <ROCS_ColorTanimoto>
0.187 

> <ROCS_RefTversky>
0.160 

> <ROCS_RefColorTversky>
0.211 

> <ROCS_RefTverskyCombo>
0.371 

> <ROCS_FitTversky>
1.539 

> <ROCS_FitColorTversky>
0.623 

> <ROCS_FitTverskyCombo>
2.162 

> <ROCS_ColorScore>
-7.560

> <ROCS_Overlap>
1886.883

> <ROCS_Rank>
36                  

$$$$
untitled-dbase-30_3
  -OEChem-02082415003D

 24 25  0     0  0  0  0  0  0999 V2000
    5.7324   13.2533   25.0927 C   0  0  0  0  0  0  0  0  0  0  0  0
    5.9594   12.4023   26.1659 C   0  0  0  0  0  0  0  0  0  0  0  0
    6.5375   13.1748   23.9532 C   0  0  0  0  0  0  0  0  0  0  0  0
    6.9911   11.4707   26.0994 C   0  0  0  0  0  0  0  0  0  0  0  0
    7.5801   12.2340   23.8565 C   0  0  0  0  0  0  0  0  0  0  0  0
    7.7957   11.3785   24.9528 C   0  0  0  0  0  0  0  0  0  0  0  0
    9.3132   11.1360   22.4230 C   0  0  0  0  0  0  0  0  0  0  0  0
    9.2308   14.4286   22.3356 C   0  0  0  0  0  0  0  0  0  0  0  0
    9.1207    9.8646   23.2073 C   0  0  0  0  0  0  0  0  0  0  0  0
    8.3980   13.3206   21.7672 C   0  0  0  0  0  0  0  0  0  0  0  0
    8.4292   12.1890   22.6942 N   0  0  0  0  0  0  0  0  0  0  0  0
   10.1575   11.1572   21.5222 O   0  0  0  0  0  0  0  0  0  0  0  0
    9.8551   14.4025   23.3856 O   0  0  0  0  0  0  0  0  0  0  0  0
    9.2020   15.5025   21.5045 O   0  0  0  0  0  0  0  0  0  0  0  0
    9.1237   10.1940   24.9655 S   0  0  0  0  0  0  0  0  0  0  0  0
    4.9255   13.9794   25.1360 H   0  0  0  0  0  0  0  0  0  0  0  0
    5.3329   12.4600   27.0508 H   0  0  0  0  0  0  0  0  0  0  0  0
    6.3276   13.8781   23.1519 H   0  0  0  0  0  0  0  0  0  0  0  0
    7.1588   10.8174   26.9530 H   0  0  0  0  0  0  0  0  0  0  0  0
    8.1587    9.4183   22.9370 H   0  0  0  0  0  0  0  0  0  0  0  0
    9.9104    9.1540   22.9416 H   0  0  0  0  0  0  0  0  0  0  0  0
    7.3645   13.6586   21.6542 H   0  0  0  0  0  0  0  0  0  0  0  0
    8.8065   13.0050   20.8037 H   0  0  0  0  0  0  0  0  0  0  0  0
    9.7400   16.2466   21.8499 H   0  0  0  0  0  0  0  0  0  0  0  0
  1  2  2  0  0  0  0
  1  3  1  0  0  0  0
  2  4  1  0  0  0  0
  3  5  2  0  0  0  0
  4  6  2  0  0  0  0
  5  6  1  0  0  0  0
  5 11  1  0  0  0  0
  6 15  1  0  0  0  0
  7  9  1  0  0  0  0
  7 11  1  0  0  0  0
  7 12  2  0  0  0  0
  8 10  1  0  0  0  0
  8 13  2  0  0  0  0
  8 14  1  0  0  0  0
  9 15  1  0  0  0  0
 10 11  1  0  0  0  0
  1 16  1  0  0  0  0
  2 17  1  0  0  0  0
  3 18  1  0  0  0  0
  4 19  1  0  0  0  0
  9 20  1  0  0  0  0
  9 21  1  0  0  0  0
 10 22  1  0  0  0  0
 10 23  1  0  0  0  0
 14 24  1  0  0  0  0
M  END
> <Catalog ID>
Z89270869

> <PlateID>
1337959-R-01

> <Well>
E05

> <MW (desalted)>
223.248

> <CLogP>
1.313

> <HBD>
1

> <TPSA>
57.610

> <RotBonds>
2

> <ROCS_ShapeQuery>
x0446_0A_x1080_0A_x0929_0A_x0812_0A_x0719_0A_x1140_0A_x0528_0A_x0310_0A

> <ROCS_TanimotoCombo>
0.356 

> <ROCS_ShapeTanimoto>
0.184 

> <ROCS_ColorTanimoto>
0.172 

> <ROCS_RefTversky>
0.172 

> <ROCS_RefColorTversky>
0.178 

> <ROCS_RefTverskyCombo>
0.350 

> <ROCS_FitTversky>
1.632 

> <ROCS_FitColorTversky>
0.836 

> <ROCS_FitTverskyCombo>
2.468 

> <ROCS_ColorScore>
-6.329

> <ROCS_Overlap>
2030.930

> <ROCS_Rank>
37                  

$$$$
untitled-dbase-356_1
  -OEChem-02082415003D

 32 33  0     1  0  0  0  0  0999 V2000
    8.6810   15.2661   22.5296 C   0  0  0  0  0  0  0  0  0  0  0  0
    9.9159   10.0635   24.1068 C   0  0  0  0  0  0  0  0  0  0  0  0
   10.5309   11.3053   24.0256 C   0  0  0  0  0  0  0  0  0  0  0  0
    7.7455   11.1469   23.9863 C   0  0  0  0  0  0  0  0  0  0  0  0
    8.5281    9.9836   24.0902 C   0  0  0  0  0  0  0  0  0  0  0  0
    8.3503   12.4262   23.9239 C   0  0  0  0  0  0  0  0  0  0  0  0
    9.7585   12.4677   23.9346 C   0  0  0  0  0  0  0  0  0  0  0  0
    6.2432   10.9987   23.9892 C   0  0  0  0  0  0  0  0  0  0  0  0
    5.5677   12.2300   23.4026 C   0  0  0  0  0  0  0  0  0  0  0  0
    6.1288   13.4839   24.0565 C   0  0  0  0  0  0  0  0  0  0  0  0
    7.9083    8.6261   24.1962 C   0  0  0  0  0  0  0  0  0  0  0  0
   11.8950   13.5114   23.8903 C   0  0  0  0  0  0  0  0  0  0  0  0
    8.1751   14.9049   23.8526 C   0  0  0  0  0  0  0  0  0  0  0  0
    9.0833   15.5562   21.4806 N   0  0  0  0  0  0  0  0  0  0  0  0
    7.5705   13.5807   23.8330 N   0  0  3  0  0  0  0  0  0  0  0  0
   10.4757   13.6291   23.8696 O   0  0  0  0  0  0  0  0  0  0  0  0
   10.5247    9.1669   24.1844 H   0  0  0  0  0  0  0  0  0  0  0  0
   11.6163   11.3655   24.0374 H   0  0  0  0  0  0  0  0  0  0  0  0
    5.9326   10.1299   23.3979 H   0  0  0  0  0  0  0  0  0  0  0  0
    5.9081   10.8453   25.0223 H   0  0  0  0  0  0  0  0  0  0  0  0
    5.7273   12.2743   22.3174 H   0  0  0  0  0  0  0  0  0  0  0  0
    4.4855   12.1711   23.5647 H   0  0  0  0  0  0  0  0  0  0  0  0
    5.6085   14.3521   23.6350 H   0  0  0  0  0  0  0  0  0  0  0  0
    5.9268   13.4794   25.1349 H   0  0  0  0  0  0  0  0  0  0  0  0
    7.7347    8.3716   25.2472 H   0  0  0  0  0  0  0  0  0  0  0  0
    6.9519    8.5871   23.6622 H   0  0  0  0  0  0  0  0  0  0  0  0
    8.5561    7.8617   23.7514 H   0  0  0  0  0  0  0  0  0  0  0  0
   12.3447   14.5056   23.8331 H   0  0  0  0  0  0  0  0  0  0  0  0
   12.2233   12.9020   23.0445 H   0  0  0  0  0  0  0  0  0  0  0  0
   12.1982   13.0300   24.8230 H   0  0  0  0  0  0  0  0  0  0  0  0
    8.9808   14.8897   24.5921 H   0  0  0  0  0  0  0  0  0  0  0  0
    7.4115   15.6120   24.1890 H   0  0  0  0  0  0  0  0  0  0  0  0
  1 13  1  0  0  0  0
  1 14  3  0  0  0  0
  2  3  1  0  0  0  0
  2  5  2  0  0  0  0
  3  7  2  0  0  0  0
  4  5  1  0  0  0  0
  4  6  2  0  0  0  0
  4  8  1  0  0  0  0
  5 11  1  0  0  0  0
  6  7  1  0  0  0  0
  6 15  1  0  0  0  0
  7 16  1  0  0  0  0
  8  9  1  0  0  0  0
  9 10  1  0  0  0  0
 10 15  1  0  0  0  0
 12 16  1  0  0  0  0
 13 15  1  0  0  0  0
  2 17  1  0  0  0  0
  3 18  1  0  0  0  0
  8 19  1  0  0  0  0
  8 20  1  0  0  0  0
  9 21  1  0  0  0  0
  9 22  1  0  0  0  0
 10 23  1  0  0  0  0
 10 24  1  0  0  0  0
 11 25  1  0  0  0  0
 11 26  1  0  0  0  0
 11 27  1  0  0  0  0
 12 28  1  0  0  0  0
 12 29  1  0  0  0  0
 12 30  1  0  0  0  0
 13 31  1  0  0  0  0
 13 32  1  0  0  0  0
M  END
> <Catalog ID>
Z1084264978

> <PlateID>
1337959-R-08

> <Well>
G03

> <MW (desalted)>
216.279

> <CLogP>
2.640

> <HBD>
0

> <TPSA>
36.260

> <RotBonds>
2

> <ROCS_ShapeQuery>
x0446_0A_x1080_0A_x0929_0A_x0812_0A_x0719_0A_x1140_0A_x0528_0A_x0310_0A

> <ROCS_TanimotoCombo>
0.356 

> <ROCS_ShapeTanimoto>
0.202 

> <ROCS_ColorTanimoto>
0.154 

> <ROCS_RefTversky>
0.187 

> <ROCS_RefColorTversky>
0.155 

> <ROCS_RefTverskyCombo>
0.341 

> <ROCS_FitTversky>
1.701 

> <ROCS_FitColorTversky>
0.971 

> <ROCS_FitTverskyCombo>
2.672 

> <ROCS_ColorScore>
-5.497

> <ROCS_Overlap>
2200.896

> <ROCS_Rank>
38                  

$$$$
untitled-dbase-517_34
  -OEChem-02082415003D

 42 44  0     0  0  0  0  0  0999 V2000
   11.2621   14.3482   21.9887 C   0  0  0  0  0  0  0  0  0  0  0  0
    9.9302   14.5620   22.3838 C   0  0  0  0  0  0  0  0  0  0  0  0
   11.3775   15.0683   20.8293 C   0  0  0  0  0  0  0  0  0  0  0  0
    9.2460   14.0259   23.5713 C   0  0  0  0  0  0  0  0  0  0  0  0
    9.4226   10.3652   23.1109 C   0  0  0  0  0  0  0  0  0  0  0  0
    8.4675   10.4497   24.2926 C   0  0  0  0  0  0  0  0  0  0  0  0
    6.7279   12.1189   23.4547 C   0  0  0  0  0  0  0  0  0  0  0  0
    7.7277   12.3859   25.7519 C   0  0  0  0  0  0  0  0  0  0  0  0
   10.1458   11.6954   23.1692 C   0  0  0  0  0  0  0  0  0  0  0  0
    5.4917   11.5386   24.1409 C   0  0  0  0  0  0  0  0  0  0  0  0
    6.4538   11.7461   26.2963 C   0  0  0  0  0  0  0  0  0  0  0  0
    8.0063   11.9316   24.3042 C   0  0  0  0  0  0  0  0  0  0  0  0
   11.9883   15.5938   18.4409 C   0  0  0  0  0  0  0  0  0  0  0  0
   13.5012   14.1400   19.8382 C   0  0  0  0  0  0  0  0  0  0  0  0
   12.4752   15.3003   19.8823 C   0  0  0  0  0  0  0  0  0  0  0  0
    9.2701   15.3542   21.5344 N   0  0  0  0  0  0  0  0  0  0  0  0
    9.1598   12.6402   23.6944 N   0  0  0  0  0  0  0  0  0  0  0  0
    8.7998   14.8534   24.3628 O   0  0  0  0  0  0  0  0  0  0  0  0
   10.1952   15.6733   20.5476 O   0  0  0  0  0  0  0  0  0  0  0  0
    5.3420   12.0611   25.4595 O   0  0  0  0  0  0  0  0  0  0  0  0
   12.0269   13.7588   22.4730 H   0  0  0  0  0  0  0  0  0  0  0  0
   10.1059    9.5149   23.1906 H   0  0  0  0  0  0  0  0  0  0  0  0
    8.8640   10.2727   22.1726 H   0  0  0  0  0  0  0  0  0  0  0  0
    7.6531    9.7274   24.1912 H   0  0  0  0  0  0  0  0  0  0  0  0
    9.0175   10.2035   25.2099 H   0  0  0  0  0  0  0  0  0  0  0  0
    6.8402   11.6733   22.4598 H   0  0  0  0  0  0  0  0  0  0  0  0
    6.5459   13.1905   23.3085 H   0  0  0  0  0  0  0  0  0  0  0  0
    7.5823   13.4711   25.7832 H   0  0  0  0  0  0  0  0  0  0  0  0
    8.5734   12.1539   26.4095 H   0  0  0  0  0  0  0  0  0  0  0  0
   10.9825   11.6635   23.8761 H   0  0  0  0  0  0  0  0  0  0  0  0
   10.5183   12.0047   22.1884 H   0  0  0  0  0  0  0  0  0  0  0  0
    4.5965   11.8136   23.5735 H   0  0  0  0  0  0  0  0  0  0  0  0
    5.5205   10.4446   24.1837 H   0  0  0  0  0  0  0  0  0  0  0  0
    6.5489   10.6583   26.3900 H   0  0  0  0  0  0  0  0  0  0  0  0
    6.2399   12.1424   27.2941 H   0  0  0  0  0  0  0  0  0  0  0  0
   11.3859   14.7669   18.0492 H   0  0  0  0  0  0  0  0  0  0  0  0
   12.8203   15.7565   17.7472 H   0  0  0  0  0  0  0  0  0  0  0  0
   11.3641   16.4944   18.4329 H   0  0  0  0  0  0  0  0  0  0  0  0
   12.9995   13.2072   19.5575 H   0  0  0  0  0  0  0  0  0  0  0  0
   13.9884   13.9803   20.8063 H   0  0  0  0  0  0  0  0  0  0  0  0
   14.2866   14.3324   19.0991 H   0  0  0  0  0  0  0  0  0  0  0  0
   13.0693   16.1977   20.1730 H   0  0  0  0  0  0  0  0  0  0  0  0
  1  2  1  0  0  0  0
  1  3  2  0  0  0  0
  2  4  1  0  0  0  0
  2 16  2  0  0  0  0
  3 15  1  0  0  0  0
  3 19  1  0  0  0  0
  4 17  1  0  0  0  0
  4 18  2  0  0  0  0
  5  6  1  0  0  0  0
  5  9  1  0  0  0  0
  6 12  1  0  0  0  0
  7 10  1  0  0  0  0
  7 12  1  0  0  0  0
  8 11  1  0  0  0  0
  8 12  1  0  0  0  0
  9 17  1  0  0  0  0
 10 20  1  0  0  0  0
 11 20  1  0  0  0  0
 12 17  1  0  0  0  0
 13 15  1  0  0  0  0
 14 15  1  0  0  0  0
 16 19  1  0  0  0  0
  1 21  1  0  0  0  0
  5 22  1  0  0  0  0
  5 23  1  0  0  0  0
  6 24  1  0  0  0  0
  6 25  1  0  0  0  0
  7 26  1  0  0  0  0
  7 27  1  0  0  0  0
  8 28  1  0  0  0  0
  8 29  1  0  0  0  0
  9 30  1  0  0  0  0
  9 31  1  0  0  0  0
 10 32  1  0  0  0  0
 10 33  1  0  0  0  0
 11 34  1  0  0  0  0
 11 35  1  0  0  0  0
 13 36  1  0  0  0  0
 13 37  1  0  0  0  0
 13 38  1  0  0  0  0
 14 39  1  0  0  0  0
 14 40  1  0  0  0  0
 14 41  1  0  0  0  0
 15 42  1  0  0  0  0
M  END
> <Catalog ID>
Z1556902364

> <PlateID>
1337959-R-12

> <Well>
B11

> <MW (desalted)>
278.347

> <CLogP>
0.527

> <HBD>
0

> <TPSA>
55.570

> <RotBonds>
2

> <ROCS_ShapeQuery>
x0446_0A_x1080_0A_x0929_0A_x0812_0A_x0719_0A_x1140_0A_x0528_0A_x0310_0A

> <ROCS_TanimotoCombo>
0.354 

> <ROCS_ShapeTanimoto>
0.213 

> <ROCS_ColorTanimoto>
0.142 

> <ROCS_RefTversky>
0.197 

> <ROCS_RefColorTversky>
0.154 

> <ROCS_RefTverskyCombo>
0.351 

> <ROCS_FitTversky>
1.584 

> <ROCS_FitColorTversky>
0.645 

> <ROCS_FitTverskyCombo>
2.229 

> <ROCS_ColorScore>
-5.490

> <ROCS_Overlap>
2327.461

> <ROCS_Rank>
39                  

$$$$
untitled-dbase-548_37
  -OEChem-02082415003D

 38 40  0     1  0  0  0  0  0999 V2000
   11.5168   15.6319   21.9198 C   0  0  0  0  0  0  0  0  0  0  0  0
   11.1769   14.3275   22.3513 C   0  0  0  0  0  0  0  0  0  0  0  0
   10.3521   16.1955   21.4533 C   0  0  0  0  0  0  0  0  0  0  0  0
    9.8286   14.1871   22.1179 C   0  0  0  0  0  0  0  0  0  0  0  0
    5.7839   12.4896   25.2454 C   0  0  0  0  0  0  0  0  0  0  0  0
    7.2468   12.1658   25.6117 C   0  0  0  0  0  0  0  0  0  0  0  0
    6.3016   12.9340   23.8621 C   0  0  0  0  0  0  0  0  0  0  0  0
    9.9120   11.8116   24.1371 C   0  0  0  0  0  0  0  0  0  0  0  0
    9.7896   10.3952   23.5769 C   0  0  0  0  0  0  0  0  0  0  0  0
    7.4344   10.5627   23.5434 C   0  0  0  0  0  0  0  0  0  0  0  0
    7.5184   11.9844   24.0820 C   0  0  0  0  0  0  0  0  0  0  0  0
    9.9341   18.6214   21.9297 C   0  0  0  0  0  0  0  0  0  0  0  0
   10.0305   17.5087   20.8769 C   0  0  0  0  0  0  0  0  0  0  0  0
    8.8587   13.0638   22.3451 C   0  0  0  0  0  0  0  0  0  0  0  0
    8.7839   12.6811   23.7576 N   0  0  2  0  0  0  0  0  0  0  0  0
    9.3183   15.3214   21.5706 O   0  0  0  0  0  0  0  0  0  0  0  0
    8.5599    9.8046   23.9969 O   0  0  0  0  0  0  0  0  0  0  0  0
   12.4902   16.1005   21.9466 H   0  0  0  0  0  0  0  0  0  0  0  0
   11.8352   13.5848   22.7789 H   0  0  0  0  0  0  0  0  0  0  0  0
    5.1280   11.6123   25.2149 H   0  0  0  0  0  0  0  0  0  0  0  0
    5.3055   13.2680   25.8453 H   0  0  0  0  0  0  0  0  0  0  0  0
    7.7502   13.0124   26.0923 H   0  0  0  0  0  0  0  0  0  0  0  0
    7.3856   11.2767   26.2311 H   0  0  0  0  0  0  0  0  0  0  0  0
    5.6400   12.6954   23.0220 H   0  0  0  0  0  0  0  0  0  0  0  0
    6.5314   14.0082   23.8231 H   0  0  0  0  0  0  0  0  0  0  0  0
   10.0216   11.7789   25.2276 H   0  0  0  0  0  0  0  0  0  0  0  0
   10.8363   12.2637   23.7556 H   0  0  0  0  0  0  0  0  0  0  0  0
    9.7791   10.4329   22.4827 H   0  0  0  0  0  0  0  0  0  0  0  0
   10.6270    9.7532   23.8721 H   0  0  0  0  0  0  0  0  0  0  0  0
    6.5099   10.0583   23.8471 H   0  0  0  0  0  0  0  0  0  0  0  0
    7.4560   10.5504   22.4486 H   0  0  0  0  0  0  0  0  0  0  0  0
    9.2002   18.3614   22.7001 H   0  0  0  0  0  0  0  0  0  0  0  0
    9.6319   19.5728   21.4809 H   0  0  0  0  0  0  0  0  0  0  0  0
   10.9005   18.7708   22.4230 H   0  0  0  0  0  0  0  0  0  0  0  0
   10.7824   17.8150   20.1206 H   0  0  0  0  0  0  0  0  0  0  0  0
    9.0734   17.4821   20.3158 H   0  0  0  0  0  0  0  0  0  0  0  0
    7.8527   13.3506   22.0196 H   0  0  0  0  0  0  0  0  0  0  0  0
    9.1450   12.1755   21.7723 H   0  0  0  0  0  0  0  0  0  0  0  0
  1  2  1  0  0  0  0
  1  3  2  0  0  0  0
  2  4  2  0  0  0  0
  3 13  1  0  0  0  0
  3 16  1  0  0  0  0
  4 14  1  0  0  0  0
  4 16  1  0  0  0  0
  5  6  1  0  0  0  0
  5  7  1  0  0  0  0
  6 11  1  0  0  0  0
  7 11  1  0  0  0  0
  8  9  1  0  0  0  0
  8 15  1  0  0  0  0
  9 17  1  0  0  0  0
 10 11  1  0  0  0  0
 10 17  1  0  0  0  0
 11 15  1  0  0  0  0
 12 13  1  0  0  0  0
 14 15  1  0  0  0  0
  1 18  1  0  0  0  0
  2 19  1  0  0  0  0
  5 20  1  0  0  0  0
  5 21  1  0  0  0  0
  6 22  1  0  0  0  0
  6 23  1  0  0  0  0
  7 24  1  0  0  0  0
  7 25  1  0  0  0  0
  8 26  1  0  0  0  0
  8 27  1  0  0  0  0
  9 28  1  0  0  0  0
  9 29  1  0  0  0  0
 10 30  1  0  0  0  0
 10 31  1  0  0  0  0
 12 32  1  0  0  0  0
 12 33  1  0  0  0  0
 12 34  1  0  0  0  0
 13 35  1  0  0  0  0
 13 36  1  0  0  0  0
 14 37  1  0  0  0  0
 14 38  1  0  0  0  0
M  END
> <Catalog ID>
Z1569171170

> <PlateID>
1337959-R-12

> <Well>
H07

> <MW (desalted)>
235.322

> <CLogP>
2.966

> <HBD>
0

> <TPSA>
25.610

> <RotBonds>
3

> <ROCS_ShapeQuery>
x0446_0A_x1080_0A_x0929_0A_x0812_0A_x0719_0A_x1140_0A_x0528_0A_x0310_0A

> <ROCS_TanimotoCombo>
0.354 

> <ROCS_ShapeTanimoto>
0.210 

> <ROCS_ColorTanimoto>
0.144 

> <ROCS_RefTversky>
0.193 

> <ROCS_RefColorTversky>
0.156 

> <ROCS_RefTverskyCombo>
0.349 

> <ROCS_FitTversky>
1.702 

> <ROCS_FitColorTversky>
0.653 

> <ROCS_FitTverskyCombo>
2.355 

> <ROCS_ColorScore>
-5.562

> <ROCS_Overlap>
2277.731

> <ROCS_Rank>
40                  

$$$$
untitled-dbase-630_1
  -OEChem-02082415003D

 44 46  0     0  0  0  0  0  0999 V2000
    7.6843   14.0337   23.2831 C   0  0  0  0  0  0  0  0  0  0  0  0
    6.2443   14.2348   20.0532 C   0  0  0  0  0  0  0  0  0  0  0  0
    5.5442   15.1435   21.0483 C   0  0  0  0  0  0  0  0  0  0  0  0
    7.4078   13.6405   20.8445 C   0  0  0  0  0  0  0  0  0  0  0  0
    6.7032   15.7916   21.7915 C   0  0  0  0  0  0  0  0  0  0  0  0
   10.9843   10.5236   21.7172 C   0  0  0  0  0  0  0  0  0  0  0  0
   11.1857   10.6005   23.1985 C   0  0  0  0  0  0  0  0  0  0  0  0
    8.5270   12.2945   24.8146 C   0  0  0  0  0  0  0  0  0  0  0  0
    9.5270   12.4862   22.5091 C   0  0  0  0  0  0  0  0  0  0  0  0
    7.6940   11.0178   24.7725 C   0  0  0  0  0  0  0  0  0  0  0  0
    8.6740   10.0913   22.7962 C   0  0  0  0  0  0  0  0  0  0  0  0
    7.7460   14.6829   21.9122 C   0  0  0  0  0  0  0  0  0  0  0  0
    9.8543   11.0125   22.6015 C   0  0  0  0  0  0  0  0  0  0  0  0
   10.8044   16.6464   22.4647 C   0  0  0  0  0  0  0  0  0  0  0  0
    9.3963   16.1525   22.7193 C   0  0  0  0  0  0  0  0  0  0  0  0
    8.5534   12.9582   23.5065 N   0  0  0  0  0  0  0  0  0  0  0  0
    6.8884   14.4668   24.1206 O   0  0  0  0  0  0  0  0  0  0  0  0
    8.3961    9.9261   24.1869 O   0  0  0  0  0  0  0  0  0  0  0  0
    9.0575   15.1866   21.7293 O   0  0  0  0  0  0  0  0  0  0  0  0
    5.5801   13.4642   19.6512 H   0  0  0  0  0  0  0  0  0  0  0  0
    6.6287   14.8242   19.2120 H   0  0  0  0  0  0  0  0  0  0  0  0
    4.9004   15.8799   20.5593 H   0  0  0  0  0  0  0  0  0  0  0  0
    4.9306   14.5526   21.7384 H   0  0  0  0  0  0  0  0  0  0  0  0
    7.0844   12.6928   21.2936 H   0  0  0  0  0  0  0  0  0  0  0  0
    8.2530   13.4193   20.1832 H   0  0  0  0  0  0  0  0  0  0  0  0
    7.1006   16.6302   21.2065 H   0  0  0  0  0  0  0  0  0  0  0  0
    6.3775   16.1954   22.7559 H   0  0  0  0  0  0  0  0  0  0  0  0
   11.5110   11.2441   21.1022 H   0  0  0  0  0  0  0  0  0  0  0  0
   10.9121    9.5393   21.2698 H   0  0  0  0  0  0  0  0  0  0  0  0
   11.2404    9.6675   23.7470 H   0  0  0  0  0  0  0  0  0  0  0  0
   11.8451   11.3715   23.5788 H   0  0  0  0  0  0  0  0  0  0  0  0
    8.0850   12.9775   25.5482 H   0  0  0  0  0  0  0  0  0  0  0  0
    9.5580   12.1004   25.1290 H   0  0  0  0  0  0  0  0  0  0  0  0
   10.4263   13.1003   22.6404 H   0  0  0  0  0  0  0  0  0  0  0  0
    9.1461   12.6847   21.5029 H   0  0  0  0  0  0  0  0  0  0  0  0
    7.4649   10.7179   25.8009 H   0  0  0  0  0  0  0  0  0  0  0  0
    6.7330   11.1672   24.2659 H   0  0  0  0  0  0  0  0  0  0  0  0
    7.7842   10.4429   22.2601 H   0  0  0  0  0  0  0  0  0  0  0  0
    8.8998    9.0925   22.4063 H   0  0  0  0  0  0  0  0  0  0  0  0
   11.5225   15.8235   22.5199 H   0  0  0  0  0  0  0  0  0  0  0  0
   10.8771   17.1134   21.4770 H   0  0  0  0  0  0  0  0  0  0  0  0
   11.0843   17.4093   23.1988 H   0  0  0  0  0  0  0  0  0  0  0  0
    8.6831   16.9803   22.6626 H   0  0  0  0  0  0  0  0  0  0  0  0
    9.3256   15.6855   23.7062 H   0  0  0  0  0  0  0  0  0  0  0  0
  1 12  1  0  0  0  0
  1 16  1  0  0  0  0
  1 17  2  0  0  0  0
  2  3  1  0  0  0  0
  2  4  1  0  0  0  0
  3  5  1  0  0  0  0
  4 12  1  0  0  0  0
  5 12  1  0  0  0  0
  6  7  1  0  0  0  0
  6 13  1  0  0  0  0
  7 13  1  0  0  0  0
  8 10  1  0  0  0  0
  8 16  1  0  0  0  0
  9 13  1  0  0  0  0
  9 16  1  0  0  0  0
 10 18  1  0  0  0  0
 11 13  1  0  0  0  0
 11 18  1  0  0  0  0
 12 19  1  0  0  0  0
 14 15  1  0  0  0  0
 15 19  1  0  0  0  0
  2 20  1  0  0  0  0
  2 21  1  0  0  0  0
  3 22  1  0  0  0  0
  3 23  1  0  0  0  0
  4 24  1  0  0  0  0
  4 25  1  0  0  0  0
  5 26  1  0  0  0  0
  5 27  1  0  0  0  0
  6 28  1  0  0  0  0
  6 29  1  0  0  0  0
  7 30  1  0  0  0  0
  7 31  1  0  0  0  0
  8 32  1  0  0  0  0
  8 33  1  0  0  0  0
  9 34  1  0  0  0  0
  9 35  1  0  0  0  0
 10 36  1  0  0  0  0
 10 37  1  0  0  0  0
 11 38  1  0  0  0  0
 11 39  1  0  0  0  0
 14 40  1  0  0  0  0
 14 41  1  0  0  0  0
 14 42  1  0  0  0  0
 15 43  1  0  0  0  0
 15 44  1  0  0  0  0
M  END
> <Catalog ID>
Z2044225367

> <PlateID>
1337959-R-14

> <Well>
H06

> <MW (desalted)>
267.364

> <CLogP>
2.017

> <HBD>
0

> <TPSA>
38.770

> <RotBonds>
3

> <ROCS_ShapeQuery>
x0446_0A_x1080_0A_x0929_0A_x0812_0A_x0719_0A_x1140_0A_x0528_0A_x0310_0A

> <ROCS_TanimotoCombo>
0.352 

> <ROCS_ShapeTanimoto>
0.214 

> <ROCS_ColorTanimoto>
0.138 

> <ROCS_RefTversky>
0.197 

> <ROCS_RefColorTversky>
0.144 

> <ROCS_RefTverskyCombo>
0.341 

> <ROCS_FitTversky>
1.648 

> <ROCS_FitColorTversky>
0.775 

> <ROCS_FitTverskyCombo>
2.423 

> <ROCS_ColorScore>
-5.122

> <ROCS_Overlap>
2329.544

> <ROCS_Rank>
41                  

$$$$
untitled-dbase-191_5
  -OEChem-02082415003D

 40 41  0     1  0  0  0  0  0999 V2000
    8.4717   10.2352   24.5545 C   0  0  0  0  0  0  0  0  0  0  0  0
    9.6508   14.3929   22.3796 C   0  0  0  0  0  0  0  0  0  0  0  0
    6.3287   13.2810   23.7177 C   0  0  0  0  0  0  0  0  0  0  0  0
    6.6237   11.8547   24.1484 C   0  0  0  0  0  0  0  0  0  0  0  0
    7.2253   13.6979   22.5601 C   0  0  0  0  0  0  0  0  0  0  0  0
    9.3098   11.1506   22.5366 C   0  0  0  0  0  0  0  0  0  0  0  0
    8.0886   11.7051   24.5420 C   0  0  2  0  0  0  0  0  0  0  0  0
    9.0710   12.2944   23.5168 C   0  0  2  0  0  0  0  0  0  0  0  0
   13.5080   14.6279   22.6550 C   0  0  0  0  0  0  0  0  0  0  0  0
   12.0722   15.0642   20.6506 C   0  0  0  0  0  0  0  0  0  0  0  0
    9.6127    8.6763   22.9305 C   0  0  0  0  0  0  0  0  0  0  0  0
   11.0696   14.0800   22.7849 C   0  0  0  0  0  0  0  0  0  0  0  0
   12.1088   15.0351   22.1802 C   0  0  0  0  0  0  0  0  0  0  0  0
    9.1655    9.9793   23.3724 N   0  0  0  0  0  0  0  0  0  0  0  0
    8.6532   13.5360   22.8634 N   0  0  0  0  0  0  0  0  0  0  0  0
    8.1614    9.4434   25.4326 O   0  0  0  0  0  0  0  0  0  0  0  0
    9.4328   15.3663   21.6530 O   0  0  0  0  0  0  0  0  0  0  0  0
   11.8637   16.3652   22.6450 O   0  0  0  0  0  0  0  0  0  0  0  0
    5.2786   13.3625   23.4151 H   0  0  0  0  0  0  0  0  0  0  0  0
    6.4721   13.9655   24.5628 H   0  0  0  0  0  0  0  0  0  0  0  0
    5.9832   11.5800   24.9951 H   0  0  0  0  0  0  0  0  0  0  0  0
    6.3638   11.1650   23.3348 H   0  0  0  0  0  0  0  0  0  0  0  0
    7.0157   13.0860   21.6748 H   0  0  0  0  0  0  0  0  0  0  0  0
    6.9941   14.7321   22.2956 H   0  0  0  0  0  0  0  0  0  0  0  0
    8.5555   11.0958   21.7449 H   0  0  0  0  0  0  0  0  0  0  0  0
   10.3115   11.1844   22.0979 H   0  0  0  0  0  0  0  0  0  0  0  0
    8.2701   12.1440   25.5295 H   0  0  0  0  0  0  0  0  0  0  0  0
   10.0204   12.4862   24.0375 H   0  0  0  0  0  0  0  0  0  0  0  0
   13.5563   14.6007   23.7497 H   0  0  0  0  0  0  0  0  0  0  0  0
   13.7598   13.6180   22.3106 H   0  0  0  0  0  0  0  0  0  0  0  0
   14.2747   15.3192   22.2900 H   0  0  0  0  0  0  0  0  0  0  0  0
   11.0843   15.3522   20.2770 H   0  0  0  0  0  0  0  0  0  0  0  0
   12.8167   15.7574   20.2443 H   0  0  0  0  0  0  0  0  0  0  0  0
   12.3230   14.0797   20.2385 H   0  0  0  0  0  0  0  0  0  0  0  0
    8.8272    8.2056   22.3211 H   0  0  0  0  0  0  0  0  0  0  0  0
   10.5267    8.7871   22.3285 H   0  0  0  0  0  0  0  0  0  0  0  0
    9.8248    8.0452   23.8062 H   0  0  0  0  0  0  0  0  0  0  0  0
   11.0993   14.1262   23.8767 H   0  0  0  0  0  0  0  0  0  0  0  0
   11.2773   13.0480   22.4934 H   0  0  0  0  0  0  0  0  0  0  0  0
   10.9774   16.6019   22.3349 H   0  0  0  0  0  0  0  0  0  0  0  0
  1  7  1  6  0  0  0
  1 14  1  0  0  0  0
  1 16  2  0  0  0  0
  2 12  1  0  0  0  0
  2 15  1  0  0  0  0
  2 17  2  0  0  0  0
  3  4  1  0  0  0  0
  3  5  1  0  0  0  0
  4  7  1  0  0  0  0
  5 15  1  0  0  0  0
  6  8  1  6  0  0  0
  6 14  1  0  0  0  0
  7  8  1  0  0  0  0
  8 15  1  0  0  0  0
  9 13  1  0  0  0  0
 10 13  1  0  0  0  0
 11 14  1  0  0  0  0
 12 13  1  0  0  0  0
 13 18  1  0  0  0  0
  3 19  1  0  0  0  0
  3 20  1  0  0  0  0
  4 21  1  0  0  0  0
  4 22  1  0  0  0  0
  5 23  1  0  0  0  0
  5 24  1  0  0  0  0
  6 25  1  0  0  0  0
  6 26  1  0  0  0  0
  7 27  1  0  0  0  0
  8 28  1  0  0  0  0
  9 29  1  0  0  0  0
  9 30  1  0  0  0  0
  9 31  1  0  0  0  0
 10 32  1  0  0  0  0
 10 33  1  0  0  0  0
 10 34  1  0  0  0  0
 11 35  1  0  0  0  0
 11 36  1  0  0  0  0
 11 37  1  0  0  0  0
 12 38  1  0  0  0  0
 12 39  1  0  0  0  0
 18 40  1  0  0  0  0
M  END
> <Catalog ID>
Z4772960027

> <PlateID>
1337959-R-04

> <Well>
H03

> <MW (desalted)>
254.325

> <CLogP>
0.212

> <HBD>
1

> <TPSA>
60.850

> <RotBonds>
2

> <ROCS_ShapeQuery>
x0446_0A_x1080_0A_x0929_0A_x0812_0A_x0719_0A_x1140_0A_x0528_0A_x0310_0A

> <ROCS_TanimotoCombo>
0.351 

> <ROCS_ShapeTanimoto>
0.229 

> <ROCS_ColorTanimoto>
0.122 

> <ROCS_RefTversky>
0.208 

> <ROCS_RefColorTversky>
0.135 

> <ROCS_RefTverskyCombo>
0.343 

> <ROCS_FitTversky>
1.797 

> <ROCS_FitColorTversky>
0.563 

> <ROCS_FitTverskyCombo>
2.361 

> <ROCS_ColorScore>
-4.810

> <ROCS_Overlap>
2457.811

> <ROCS_Rank>
42                  

$$$$
untitled-dbase-303_1
  -OEChem-02082415003D

 24 25  0     1  0  0  0  0  0999 V2000
    7.5035   11.7101   24.6784 C   0  0  0  0  0  0  0  0  0  0  0  0
    9.6980   13.9844   22.8447 C   0  0  0  0  0  0  0  0  0  0  0  0
    8.9088   12.0596   25.1275 C   0  0  0  0  0  0  0  0  0  0  0  0
    8.2974    9.8872   23.2479 C   0  0  0  0  0  0  0  0  0  0  0  0
    9.7448   10.2315   23.6413 C   0  0  0  0  0  0  0  0  0  0  0  0
    7.9840   12.2205   22.3345 C   0  0  0  0  0  0  0  0  0  0  0  0
    7.4174   11.1443   23.2717 C   0  0  2  0  0  0  0  0  0  0  0  0
    9.4555   12.5115   22.6860 C   0  0  2  0  0  0  0  0  0  0  0  0
    9.8653   11.7358   23.9595 C   0  0  1  0  0  0  0  0  0  0  0  0
    6.5203   11.8714   25.3946 O   0  0  0  0  0  0  0  0  0  0  0  0
   10.1334   14.5193   23.8536 O   0  0  0  0  0  0  0  0  0  0  0  0
    9.3646   14.6493   21.7116 O   0  0  0  0  0  0  0  0  0  0  0  0
    8.9454   13.1216   25.3874 H   0  0  0  0  0  0  0  0  0  0  0  0
    9.1574   11.4607   26.0095 H   0  0  0  0  0  0  0  0  0  0  0  0
    8.2829    9.4338   22.2498 H   0  0  0  0  0  0  0  0  0  0  0  0
    7.9023    9.1369   23.9438 H   0  0  0  0  0  0  0  0  0  0  0  0
   10.0449    9.6343   24.5108 H   0  0  0  0  0  0  0  0  0  0  0  0
   10.4257    9.9595   22.8259 H   0  0  0  0  0  0  0  0  0  0  0  0
    7.9208   11.8724   21.2962 H   0  0  0  0  0  0  0  0  0  0  0  0
    7.3705   13.1279   22.3999 H   0  0  0  0  0  0  0  0  0  0  0  0
    6.3782   10.9080   23.0240 H   0  0  0  0  0  0  0  0  0  0  0  0
   10.0923   12.1972   21.8488 H   0  0  0  0  0  0  0  0  0  0  0  0
   10.8948   11.9762   24.2485 H   0  0  0  0  0  0  0  0  0  0  0  0
    9.5143   15.6151   21.7960 H   0  0  0  0  0  0  0  0  0  0  0  0
  1  3  1  0  0  0  0
  1  7  1  6  0  0  0
  1 10  2  0  0  0  0
  2  8  1  6  0  0  0
  2 11  2  0  0  0  0
  2 12  1  0  0  0  0
  3  9  1  1  0  0  0
  4  5  1  0  0  0  0
  4  7  1  0  0  0  0
  5  9  1  0  0  0  0
  6  7  1  0  0  0  0
  6  8  1  0  0  0  0
  8  9  1  0  0  0  0
  3 13  1  0  0  0  0
  3 14  1  0  0  0  0
  4 15  1  0  0  0  0
  4 16  1  0  0  0  0
  5 17  1  0  0  0  0
  5 18  1  0  0  0  0
  6 19  1  0  0  0  0
  6 20  1  0  0  0  0
  7 21  1  0  0  0  0
  8 22  1  0  0  0  0
  9 23  1  0  0  0  0
 12 24  1  0  0  0  0
M  END
> <Catalog ID>
Z4414515229

> <PlateID>
1337959-R-07

> <Well>
D03

> <MW (desalted)>
168.190

> <CLogP>
0.618

> <HBD>
1

> <TPSA>
54.370

> <RotBonds>
1

> <ROCS_ShapeQuery>
x0446_0A_x1080_0A_x0929_0A_x0812_0A_x0719_0A_x1140_0A_x0528_0A_x0310_0A

> <ROCS_TanimotoCombo>
0.351 

> <ROCS_ShapeTanimoto>
0.183 

> <ROCS_ColorTanimoto>
0.168 

> <ROCS_RefTversky>
0.169 

> <ROCS_RefColorTversky>
0.190 

> <ROCS_RefTverskyCombo>
0.359 

> <ROCS_FitTversky>
1.779 

> <ROCS_FitColorTversky>
0.598 

> <ROCS_FitTverskyCombo>
2.377 

> <ROCS_ColorScore>
-6.808

> <ROCS_Overlap>
1992.443

> <ROCS_Rank>
43                  

$$$$
untitled-dbase-615_17
  -OEChem-02082415003D

 43 45  0     0  0  0  0  0  0999 V2000
    9.6386   16.1677   22.5479 C   0  0  0  0  0  0  0  0  0  0  0  0
   10.4117   15.4529   23.4360 C   0  0  0  0  0  0  0  0  0  0  0  0
    9.0918   14.2297   21.4640 C   0  0  0  0  0  0  0  0  0  0  0  0
    9.8655   13.5149   22.3516 C   0  0  0  0  0  0  0  0  0  0  0  0
    9.9956   12.0561   22.2515 C   0  0  0  0  0  0  0  0  0  0  0  0
    4.7134   13.3368   24.5844 C   0  0  0  0  0  0  0  0  0  0  0  0
    5.1667   13.5782   26.0199 C   0  0  0  0  0  0  0  0  0  0  0  0
    5.1542   12.0062   23.9754 C   0  0  0  0  0  0  0  0  0  0  0  0
    6.6682   13.4330   26.2638 C   0  0  0  0  0  0  0  0  0  0  0  0
    8.2697    9.2313   23.6757 C   0  0  0  0  0  0  0  0  0  0  0  0
    6.6512   11.9722   23.6605 C   0  0  0  0  0  0  0  0  0  0  0  0
    7.1336   11.9774   26.2028 C   0  0  0  0  0  0  0  0  0  0  0  0
    7.5745    9.9041   24.8638 C   0  0  0  0  0  0  0  0  0  0  0  0
    9.6521    9.8206   23.4230 C   0  0  0  0  0  0  0  0  0  0  0  0
    9.0258   11.9355   24.5239 C   0  0  0  0  0  0  0  0  0  0  0  0
    7.5714   11.4623   24.8050 C   0  0  0  0  0  0  0  0  0  0  0  0
    8.9647   15.5690   21.5459 N   0  0  0  0  0  0  0  0  0  0  0  0
   10.5391   14.1136   23.3538 N   0  0  0  0  0  0  0  0  0  0  0  0
    9.5811   11.2822   23.3379 N   0  0  0  0  0  0  0  0  0  0  0  0
   10.4810   11.6246   21.2069 O   0  0  0  0  0  0  0  0  0  0  0  0
    9.5369   17.2439   22.6139 H   0  0  0  0  0  0  0  0  0  0  0  0
   10.9514   15.9347   24.2422 H   0  0  0  0  0  0  0  0  0  0  0  0
    8.5464   13.7557   20.6562 H   0  0  0  0  0  0  0  0  0  0  0  0
    3.6172   13.3811   24.5640 H   0  0  0  0  0  0  0  0  0  0  0  0
    5.0602   14.1634   23.9517 H   0  0  0  0  0  0  0  0  0  0  0  0
    4.8664   14.5947   26.3036 H   0  0  0  0  0  0  0  0  0  0  0  0
    4.6191   12.9038   26.6902 H   0  0  0  0  0  0  0  0  0  0  0  0
    4.8506   11.1652   24.6076 H   0  0  0  0  0  0  0  0  0  0  0  0
    4.6122   11.8899   23.0280 H   0  0  0  0  0  0  0  0  0  0  0  0
    7.2401   14.0729   25.5836 H   0  0  0  0  0  0  0  0  0  0  0  0
    6.8680   13.8040   27.2774 H   0  0  0  0  0  0  0  0  0  0  0  0
    8.3623    8.1569   23.8737 H   0  0  0  0  0  0  0  0  0  0  0  0
    7.6559    9.3267   22.7731 H   0  0  0  0  0  0  0  0  0  0  0  0
    6.7901   11.3476   22.7709 H   0  0  0  0  0  0  0  0  0  0  0  0
    6.9673   12.9759   23.3465 H   0  0  0  0  0  0  0  0  0  0  0  0
    7.9767   11.8611   26.8977 H   0  0  0  0  0  0  0  0  0  0  0  0
    6.3428   11.3329   26.6096 H   0  0  0  0  0  0  0  0  0  0  0  0
    6.5503    9.5204   24.9427 H   0  0  0  0  0  0  0  0  0  0  0  0
    8.0927    9.5833   25.7783 H   0  0  0  0  0  0  0  0  0  0  0  0
   10.3273    9.5758   24.2517 H   0  0  0  0  0  0  0  0  0  0  0  0
   10.0793    9.3807   22.5184 H   0  0  0  0  0  0  0  0  0  0  0  0
    9.0651   13.0244   24.4110 H   0  0  0  0  0  0  0  0  0  0  0  0
    9.6878   11.6808   25.3614 H   0  0  0  0  0  0  0  0  0  0  0  0
  1  2  1  0  0  0  0
  1 17  2  0  0  0  0
  2 18  2  0  0  0  0
  3  4  2  0  0  0  0
  3 17  1  0  0  0  0
  4  5  1  0  0  0  0
  4 18  1  0  0  0  0
  5 19  1  0  0  0  0
  5 20  2  0  0  0  0
  6  7  1  0  0  0  0
  6  8  1  0  0  0  0
  7  9  1  0  0  0  0
  8 11  1  0  0  0  0
  9 12  1  0  0  0  0
 10 13  1  0  0  0  0
 10 14  1  0  0  0  0
 11 16  1  0  0  0  0
 12 16  1  0  0  0  0
 13 16  1  0  0  0  0
 14 19  1  0  0  0  0
 15 16  1  0  0  0  0
 15 19  1  0  0  0  0
  1 21  1  0  0  0  0
  2 22  1  0  0  0  0
  3 23  1  0  0  0  0
  6 24  1  0  0  0  0
  6 25  1  0  0  0  0
  7 26  1  0  0  0  0
  7 27  1  0  0  0  0
  8 28  1  0  0  0  0
  8 29  1  0  0  0  0
  9 30  1  0  0  0  0
  9 31  1  0  0  0  0
 10 32  1  0  0  0  0
 10 33  1  0  0  0  0
 11 34  1  0  0  0  0
 11 35  1  0  0  0  0
 12 36  1  0  0  0  0
 12 37  1  0  0  0  0
 13 38  1  0  0  0  0
 13 39  1  0  0  0  0
 14 40  1  0  0  0  0
 14 41  1  0  0  0  0
 15 42  1  0  0  0  0
 15 43  1  0  0  0  0
M  END
> <Catalog ID>
Z1275601601

> <PlateID>
1337959-R-14

> <Well>
D08

> <MW (desalted)>
273.373

> <CLogP>
2.294

> <HBD>
0

> <TPSA>
46.090

> <RotBonds>
1

> <ROCS_ShapeQuery>
x0446_0A_x1080_0A_x0929_0A_x0812_0A_x0719_0A_x1140_0A_x0528_0A_x0310_0A

> <ROCS_TanimotoCombo>
0.351 

> <ROCS_ShapeTanimoto>
0.213 

> <ROCS_ColorTanimoto>
0.137 

> <ROCS_RefTversky>
0.198 

> <ROCS_RefColorTversky>
0.146 

> <ROCS_RefTverskyCombo>
0.344 

> <ROCS_FitTversky>
1.599 

> <ROCS_FitColorTversky>
0.690 

> <ROCS_FitTverskyCombo>
2.289 

> <ROCS_ColorScore>
-5.215

> <ROCS_Overlap>
2332.415

> <ROCS_Rank>
44                  

$$$$
untitled-dbase-392_5
  -OEChem-02082415003D

 33 34  0     0  0  0  0  0  0999 V2000
    5.7337   12.9257   24.1854 C   0  0  0  0  0  0  0  0  0  0  0  0
    5.6162   11.5593   24.4609 C   0  0  0  0  0  0  0  0  0  0  0  0
    6.9789   13.5031   23.8995 C   0  0  0  0  0  0  0  0  0  0  0  0
    6.7345   10.7192   24.4615 C   0  0  0  0  0  0  0  0  0  0  0  0
    8.1091   12.6724   23.8969 C   0  0  0  0  0  0  0  0  0  0  0  0
    7.9538   11.3254   24.1740 C   0  0  0  0  0  0  0  0  0  0  0  0
    9.4935   12.8071   23.6762 C   0  0  0  0  0  0  0  0  0  0  0  0
   10.1071   14.4743   21.8814 C   0  0  0  0  0  0  0  0  0  0  0  0
   12.2746   13.2606   19.0613 C   0  0  0  0  0  0  0  0  0  0  0  0
    9.7989   13.6558   19.0086 C   0  0  0  0  0  0  0  0  0  0  0  0
   11.3699   15.5744   19.3816 C   0  0  0  0  0  0  0  0  0  0  0  0
   10.2592   14.0569   23.3316 C   0  0  0  0  0  0  0  0  0  0  0  0
   11.1233   14.0851   19.6485 C   0  0  0  0  0  0  0  0  0  0  0  0
   10.1447   11.6472   23.8046 N   0  0  0  0  0  0  0  0  0  0  0  0
   11.0534   13.8594   21.0808 N   0  0  0  0  0  0  0  0  0  0  0  0
    9.2453   15.2559   21.4877 O   0  0  0  0  0  0  0  0  0  0  0  0
    9.1673   10.7112   24.1199 O   0  0  0  0  0  0  0  0  0  0  0  0
    4.8442   13.5509   24.1932 H   0  0  0  0  0  0  0  0  0  0  0  0
    4.6362   11.1417   24.6788 H   0  0  0  0  0  0  0  0  0  0  0  0
    7.0554   14.5648   23.6879 H   0  0  0  0  0  0  0  0  0  0  0  0
    6.6538    9.6602   24.6745 H   0  0  0  0  0  0  0  0  0  0  0  0
   13.2350   13.5496   19.5040 H   0  0  0  0  0  0  0  0  0  0  0  0
   12.1303   12.1895   19.2408 H   0  0  0  0  0  0  0  0  0  0  0  0
   12.3579   13.4134   17.9789 H   0  0  0  0  0  0  0  0  0  0  0  0
    8.9590   14.2325   19.4134 H   0  0  0  0  0  0  0  0  0  0  0  0
    9.5895   12.5978   19.2051 H   0  0  0  0  0  0  0  0  0  0  0  0
    9.8150   13.8004   17.9227 H   0  0  0  0  0  0  0  0  0  0  0  0
   10.5600   16.1887   19.7918 H   0  0  0  0  0  0  0  0  0  0  0  0
   12.3101   15.9102   19.8329 H   0  0  0  0  0  0  0  0  0  0  0  0
   11.4202   15.7810   18.3061 H   0  0  0  0  0  0  0  0  0  0  0  0
    9.9250   14.8817   23.9738 H   0  0  0  0  0  0  0  0  0  0  0  0
   11.3257   13.9086   23.5435 H   0  0  0  0  0  0  0  0  0  0  0  0
   11.7206   13.2300   21.5090 H   0  0  0  0  0  0  0  0  0  0  0  0
  1  2  2  0  0  0  0
  1  3  1  0  0  0  0
  2  4  1  0  0  0  0
  3  5  2  0  0  0  0
  4  6  2  0  0  0  0
  5  6  1  0  0  0  0
  5  7  1  0  0  0  0
  6 17  1  0  0  0  0
  7 12  1  0  0  0  0
  7 14  2  0  0  0  0
  8 12  1  0  0  0  0
  8 15  1  0  0  0  0
  8 16  2  0  0  0  0
  9 13  1  0  0  0  0
 10 13  1  0  0  0  0
 11 13  1  0  0  0  0
 13 15  1  0  0  0  0
 14 17  1  0  0  0  0
  1 18  1  0  0  0  0
  2 19  1  0  0  0  0
  3 20  1  0  0  0  0
  4 21  1  0  0  0  0
  9 22  1  0  0  0  0
  9 23  1  0  0  0  0
  9 24  1  0  0  0  0
 10 25  1  0  0  0  0
 10 26  1  0  0  0  0
 10 27  1  0  0  0  0
 11 28  1  0  0  0  0
 11 29  1  0  0  0  0
 11 30  1  0  0  0  0
 12 31  1  0  0  0  0
 12 32  1  0  0  0  0
 15 33  1  0  0  0  0
M  END
> <Catalog ID>
Z99095183

> <PlateID>
1337959-R-09

> <Well>
D06

> <MW (desalted)>
232.278

> <CLogP>
1.290

> <HBD>
1

> <TPSA>
55.130

> <RotBonds>
3

> <ROCS_ShapeQuery>
x0446_0A_x1080_0A_x0929_0A_x0812_0A_x0719_0A_x1140_0A_x0528_0A_x0310_0A

> <ROCS_TanimotoCombo>
0.350 

> <ROCS_ShapeTanimoto>
0.191 

> <ROCS_ColorTanimoto>
0.159 

> <ROCS_RefTversky>
0.179 

> <ROCS_RefColorTversky>
0.166 

> <ROCS_RefTverskyCombo>
0.345 

> <ROCS_FitTversky>
1.573 

> <ROCS_FitColorTversky>
0.781 

> <ROCS_FitTverskyCombo>
2.354 

> <ROCS_ColorScore>
-5.919

> <ROCS_Overlap>
2111.291

> <ROCS_Rank>
45                  

$$$$
untitled-dbase-407_73
  -OEChem-02082415003D

 40 42  0     1  0  0  0  0  0999 V2000
   10.4859   14.8245   23.2933 C   0  0  0  0  0  0  0  0  0  0  0  0
   10.6289   16.0978   21.5003 C   0  0  0  0  0  0  0  0  0  0  0  0
    9.3184   14.8037   22.5673 C   0  0  0  0  0  0  0  0  0  0  0  0
    5.7910   11.5465   25.1167 C   0  0  0  0  0  0  0  0  0  0  0  0
    7.1791   11.5219   25.7992 C   0  0  0  0  0  0  0  0  0  0  0  0
    6.4498   10.9015   23.8747 C   0  0  0  0  0  0  0  0  0  0  0  0
    8.9776   10.5245   24.2316 C   0  0  0  0  0  0  0  0  0  0  0  0
    9.4815   11.5761   23.2188 C   0  0  0  0  0  0  0  0  0  0  0  0
    7.7755   11.4441   24.4022 C   0  0  0  0  0  0  0  0  0  0  0  0
   13.4175   13.6008   23.3130 C   0  0  0  0  0  0  0  0  0  0  0  0
   15.1079   15.4144   22.9680 C   0  0  0  0  0  0  0  0  0  0  0  0
   12.6694   16.0073   22.9533 C   0  0  0  0  0  0  0  0  0  0  0  0
   13.7054   14.9248   22.6018 C   0  0  0  0  0  0  0  0  0  0  0  0
    9.4140   15.5981   21.4522 N   0  0  0  0  0  0  0  0  0  0  0  0
   11.3159   15.6574   22.5972 N   0  0  0  0  0  0  0  0  0  0  0  0
    8.5027   12.5714   23.7735 N   0  0  2  0  0  0  0  0  0  0  0  0
    7.0732   14.7136   23.8803 O   0  0  0  0  0  0  0  0  0  0  0  0
    7.2599   13.4633   21.7009 O   0  0  0  0  0  0  0  0  0  0  0  0
    7.8483   13.8999   22.9572 S   0  0  0  0  0  0  0  0  0  0  0  0
   10.7880   14.3379   24.2103 H   0  0  0  0  0  0  0  0  0  0  0  0
   11.0622   16.7754   20.7770 H   0  0  0  0  0  0  0  0  0  0  0  0
    5.0505   10.9032   25.6049 H   0  0  0  0  0  0  0  0  0  0  0  0
    5.3568   12.5371   24.9620 H   0  0  0  0  0  0  0  0  0  0  0  0
    7.4103   12.4485   26.3373 H   0  0  0  0  0  0  0  0  0  0  0  0
    7.3563   10.6764   26.4697 H   0  0  0  0  0  0  0  0  0  0  0  0
    6.3512    9.8183   23.8015 H   0  0  0  0  0  0  0  0  0  0  0  0
    6.1366   11.3542   22.9297 H   0  0  0  0  0  0  0  0  0  0  0  0
    8.7591    9.5512   23.7752 H   0  0  0  0  0  0  0  0  0  0  0  0
    9.6262   10.3722   25.1004 H   0  0  0  0  0  0  0  0  0  0  0  0
   10.5187   11.8933   23.3671 H   0  0  0  0  0  0  0  0  0  0  0  0
    9.3043   11.3450   22.1661 H   0  0  0  0  0  0  0  0  0  0  0  0
   13.4263   13.7349   24.4000 H   0  0  0  0  0  0  0  0  0  0  0  0
   12.4373   13.2024   23.0302 H   0  0  0  0  0  0  0  0  0  0  0  0
   14.1745   12.8480   23.0722 H   0  0  0  0  0  0  0  0  0  0  0  0
   15.1822   15.6154   24.0420 H   0  0  0  0  0  0  0  0  0  0  0  0
   15.8609   14.6597   22.7179 H   0  0  0  0  0  0  0  0  0  0  0  0
   15.3601   16.3361   22.4325 H   0  0  0  0  0  0  0  0  0  0  0  0
   12.6922   16.2384   24.0254 H   0  0  0  0  0  0  0  0  0  0  0  0
   12.8952   16.9426   22.4250 H   0  0  0  0  0  0  0  0  0  0  0  0
   13.6858   14.7394   21.5204 H   0  0  0  0  0  0  0  0  0  0  0  0
  1  3  2  0  0  0  0
  1 15  1  0  0  0  0
  2 14  2  0  0  0  0
  2 15  1  0  0  0  0
  3 14  1  0  0  0  0
  3 19  1  0  0  0  0
  4  5  1  0  0  0  0
  4  6  1  0  0  0  0
  5  9  1  0  0  0  0
  6  9  1  0  0  0  0
  7  8  1  0  0  0  0
  7  9  1  0  0  0  0
  8 16  1  0  0  0  0
  9 16  1  0  0  0  0
 10 13  1  0  0  0  0
 11 13  1  0  0  0  0
 12 13  1  0  0  0  0
 12 15  1  0  0  0  0
 16 19  1  0  0  0  0
 17 19  2  0  0  0  0
 18 19  2  0  0  0  0
  1 20  1  0  0  0  0
  2 21  1  0  0  0  0
  4 22  1  0  0  0  0
  4 23  1  0  0  0  0
  5 24  1  0  0  0  0
  5 25  1  0  0  0  0
  6 26  1  0  0  0  0
  6 27  1  0  0  0  0
  7 28  1  0  0  0  0
  7 29  1  0  0  0  0
  8 30  1  0  0  0  0
  8 31  1  0  0  0  0
 10 32  1  0  0  0  0
 10 33  1  0  0  0  0
 10 34  1  0  0  0  0
 11 35  1  0  0  0  0
 11 36  1  0  0  0  0
 11 37  1  0  0  0  0
 12 38  1  0  0  0  0
 12 39  1  0  0  0  0
 13 40  1  0  0  0  0
M  END
> <Catalog ID>
Z1343420001

> <PlateID>
1337959-R-09

> <Well>
F06

> <MW (desalted)>
283.390

> <CLogP>
1.789

> <HBD>
0

> <TPSA>
55.200

> <RotBonds>
3

> <ROCS_ShapeQuery>
x0446_0A_x1080_0A_x0929_0A_x0812_0A_x0719_0A_x1140_0A_x0528_0A_x0310_0A

> <ROCS_TanimotoCombo>
0.350 

> <ROCS_ShapeTanimoto>
0.206 

> <ROCS_ColorTanimoto>
0.144 

> <ROCS_RefTversky>
0.191 

> <ROCS_RefColorTversky>
0.159 

> <ROCS_RefTverskyCombo>
0.350 

> <ROCS_FitTversky>
1.613 

> <ROCS_FitColorTversky>
0.598 

> <ROCS_FitTverskyCombo>
2.212 

> <ROCS_ColorScore>
-5.679

> <ROCS_Overlap>
2258.152

> <ROCS_Rank>
46                  

$$$$
untitled-dbase-256_12
  -OEChem-02082415003D

 40 43  0     0  0  0  0  0  0999 V2000
    5.6603   11.8239   25.4621 C   0  0  0  0  0  0  0  0  0  0  0  0
    5.9047   13.0697   24.8663 C   0  0  0  0  0  0  0  0  0  0  0  0
    6.5722   10.7781   25.3156 C   0  0  0  0  0  0  0  0  0  0  0  0
    7.0633   13.2878   24.1153 C   0  0  0  0  0  0  0  0  0  0  0  0
    7.7149   11.0005   24.5634 C   0  0  0  0  0  0  0  0  0  0  0  0
    7.9619   12.2405   23.9721 C   0  0  0  0  0  0  0  0  0  0  0  0
    9.8807   13.3424   22.8378 C   0  0  0  0  0  0  0  0  0  0  0  0
    8.8455   10.0512   24.3309 C   0  0  0  0  0  0  0  0  0  0  0  0
   12.6991   16.0817   22.2786 C   0  0  0  0  0  0  0  0  0  0  0  0
   11.6585   15.5491   21.2733 C   0  0  0  0  0  0  0  0  0  0  0  0
   12.6377   14.7229   23.0046 C   0  0  0  0  0  0  0  0  0  0  0  0
    9.6817   10.8121   23.2939 C   0  0  0  0  0  0  0  0  0  0  0  0
   10.8392   12.0902   20.8750 C   0  0  0  0  0  0  0  0  0  0  0  0
   12.1444   11.3067   20.8081 C   0  0  0  0  0  0  0  0  0  0  0  0
   13.1201   13.4753   20.7868 C   0  0  0  0  0  0  0  0  0  0  0  0
   12.0545   14.1092   21.6980 C   0  0  0  0  0  0  0  0  0  0  0  0
    9.1819   12.2077   23.2598 N   0  0  0  0  0  0  0  0  0  0  0  0
   10.9134   13.1341   21.9037 N   0  0  0  0  0  0  0  0  0  0  0  0
    9.6555   14.4622   23.3102 O   0  0  0  0  0  0  0  0  0  0  0  0
   13.2870   12.1023   21.1405 O   0  0  0  0  0  0  0  0  0  0  0  0
    4.7521   11.6724   26.0393 H   0  0  0  0  0  0  0  0  0  0  0  0
    5.1859   13.8748   24.9931 H   0  0  0  0  0  0  0  0  0  0  0  0
    6.3827    9.8142   25.7755 H   0  0  0  0  0  0  0  0  0  0  0  0
    7.2366   14.2672   23.6858 H   0  0  0  0  0  0  0  0  0  0  0  0
    9.4137    9.8657   25.2463 H   0  0  0  0  0  0  0  0  0  0  0  0
    8.4716    9.1098   23.9177 H   0  0  0  0  0  0  0  0  0  0  0  0
   13.6775   16.3037   21.8311 H   0  0  0  0  0  0  0  0  0  0  0  0
   12.3845   16.9494   22.8699 H   0  0  0  0  0  0  0  0  0  0  0  0
   10.6282   15.8358   21.5288 H   0  0  0  0  0  0  0  0  0  0  0  0
   11.8398   15.8239   20.2277 H   0  0  0  0  0  0  0  0  0  0  0  0
   13.6026   14.3285   23.3361 H   0  0  0  0  0  0  0  0  0  0  0  0
   11.9532   14.7405   23.8616 H   0  0  0  0  0  0  0  0  0  0  0  0
   10.7290   10.8194   23.6096 H   0  0  0  0  0  0  0  0  0  0  0  0
    9.6231   10.3631   22.2972 H   0  0  0  0  0  0  0  0  0  0  0  0
   10.6346   12.5908   19.9180 H   0  0  0  0  0  0  0  0  0  0  0  0
   10.0320   11.3792   21.0869 H   0  0  0  0  0  0  0  0  0  0  0  0
   12.1149   10.4242   21.4708 H   0  0  0  0  0  0  0  0  0  0  0  0
   12.2964   10.9249   19.7861 H   0  0  0  0  0  0  0  0  0  0  0  0
   12.8141   13.5102   19.7381 H   0  0  0  0  0  0  0  0  0  0  0  0
   14.0770   14.0016   20.8682 H   0  0  0  0  0  0  0  0  0  0  0  0
  1  2  2  0  0  0  0
  1  3  1  0  0  0  0
  2  4  1  0  0  0  0
  3  5  2  0  0  0  0
  4  6  2  0  0  0  0
  5  6  1  0  0  0  0
  5  8  1  0  0  0  0
  6 17  1  0  0  0  0
  7 17  1  0  0  0  0
  7 18  1  0  0  0  0
  7 19  2  0  0  0  0
  8 12  1  0  0  0  0
  9 10  1  0  0  0  0
  9 11  1  0  0  0  0
 10 16  1  0  0  0  0
 11 16  1  0  0  0  0
 12 17  1  0  0  0  0
 13 14  1  0  0  0  0
 13 18  1  0  0  0  0
 14 20  1  0  0  0  0
 15 16  1  0  0  0  0
 15 20  1  0  0  0  0
 16 18  1  0  0  0  0
  1 21  1  0  0  0  0
  2 22  1  0  0  0  0
  3 23  1  0  0  0  0
  4 24  1  0  0  0  0
  8 25  1  0  0  0  0
  8 26  1  0  0  0  0
  9 27  1  0  0  0  0
  9 28  1  0  0  0  0
 10 29  1  0  0  0  0
 10 30  1  0  0  0  0
 11 31  1  0  0  0  0
 11 32  1  0  0  0  0
 12 33  1  0  0  0  0
 12 34  1  0  0  0  0
 13 35  1  0  0  0  0
 13 36  1  0  0  0  0
 14 37  1  0  0  0  0
 14 38  1  0  0  0  0
 15 39  1  0  0  0  0
 15 40  1  0  0  0  0
M  END
> <Catalog ID>
Z1888799121

> <PlateID>
1337959-R-06

> <Well>
A11

> <MW (desalted)>
272.342

> <CLogP>
2.690

> <HBD>
0

> <TPSA>
32.780

> <RotBonds>
0

> <ROCS_ShapeQuery>
x0446_0A_x1080_0A_x0929_0A_x0812_0A_x0719_0A_x1140_0A_x0528_0A_x0310_0A

> <ROCS_TanimotoCombo>
0.350 

> <ROCS_ShapeTanimoto>
0.228 

> <ROCS_ColorTanimoto>
0.122 

> <ROCS_RefTversky>
0.209 

> <ROCS_RefColorTversky>
0.131 

> <ROCS_RefTverskyCombo>
0.341 

> <ROCS_FitTversky>
1.656 

> <ROCS_FitColorTversky>
0.618 

> <ROCS_FitTverskyCombo>
2.274 

> <ROCS_ColorScore>
-4.683

> <ROCS_Overlap>
2472.541

> <ROCS_Rank>
47                  

$$$$
untitled-dbase-574_17
  -OEChem-02082415003D

 32 33  0     0  0  0  0  0  0999 V2000
   12.3208   14.4095   21.7837 C   0  0  0  0  0  0  0  0  0  0  0  0
   11.0920   14.8707   22.1755 C   0  0  0  0  0  0  0  0  0  0  0  0
   13.2042   15.4238   22.1914 C   0  0  0  0  0  0  0  0  0  0  0  0
   10.0019   10.6218   22.5722 C   0  0  0  0  0  0  0  0  0  0  0  0
    9.7403   14.3013   22.0550 C   0  0  0  0  0  0  0  0  0  0  0  0
   10.5206   12.0255   22.8046 C   0  0  0  0  0  0  0  0  0  0  0  0
    8.1028   11.3861   23.9156 C   0  0  0  0  0  0  0  0  0  0  0  0
    8.1092   12.7505   23.1924 C   0  0  0  0  0  0  0  0  0  0  0  0
   14.6660   15.4657   22.0278 C   0  0  0  0  0  0  0  0  0  0  0  0
    7.0902   12.6939   22.0342 C   0  0  0  0  0  0  0  0  0  0  0  0
    7.6622   13.8083   24.2208 C   0  0  0  0  0  0  0  0  0  0  0  0
   12.5717   16.4368   22.7904 N   0  0  0  0  0  0  0  0  0  0  0  0
    8.7708   10.3754   23.1348 N   0  0  0  0  0  0  0  0  0  0  0  0
    9.4780   13.0574   22.6643 N   0  0  0  0  0  0  0  0  0  0  0  0
   10.6923    9.7509   22.0462 O   0  0  0  0  0  0  0  0  0  0  0  0
    8.9322   14.9906   21.4346 O   0  0  0  0  0  0  0  0  0  0  0  0
   11.2286   16.0798   22.7776 O   0  0  0  0  0  0  0  0  0  0  0  0
   12.5439   13.4805   21.2795 H   0  0  0  0  0  0  0  0  0  0  0  0
   10.9724   12.0485   23.7995 H   0  0  0  0  0  0  0  0  0  0  0  0
   11.2997   12.2411   22.0647 H   0  0  0  0  0  0  0  0  0  0  0  0
    8.6018   11.4383   24.8898 H   0  0  0  0  0  0  0  0  0  0  0  0
    7.0777   11.0343   24.0866 H   0  0  0  0  0  0  0  0  0  0  0  0
   14.9500   15.9430   21.0737 H   0  0  0  0  0  0  0  0  0  0  0  0
   15.1619   16.0277   22.8399 H   0  0  0  0  0  0  0  0  0  0  0  0
   15.1174   14.4570   22.0410 H   0  0  0  0  0  0  0  0  0  0  0  0
    7.0865   13.6475   21.5192 H   0  0  0  0  0  0  0  0  0  0  0  0
    6.1057   12.4899   22.4387 H   0  0  0  0  0  0  0  0  0  0  0  0
    7.3775   11.9057   21.3482 H   0  0  0  0  0  0  0  0  0  0  0  0
    7.6551   14.7820   23.7456 H   0  0  0  0  0  0  0  0  0  0  0  0
    8.3571   13.8084   25.0520 H   0  0  0  0  0  0  0  0  0  0  0  0
    6.6671   13.5614   24.5715 H   0  0  0  0  0  0  0  0  0  0  0  0
    8.3280    9.4719   22.9984 H   0  0  0  0  0  0  0  0  0  0  0  0
  1  2  2  0  0  0  0
  1  3  1  0  0  0  0
  2  5  1  0  0  0  0
  2 17  1  0  0  0  0
  3  9  1  0  0  0  0
  3 12  2  0  0  0  0
  4  6  1  0  0  0  0
  4 13  1  0  0  0  0
  4 15  2  0  0  0  0
  5 14  1  0  0  0  0
  5 16  2  0  0  0  0
  6 14  1  0  0  0  0
  7  8  1  0  0  0  0
  7 13  1  0  0  0  0
  8 10  1  0  0  0  0
  8 11  1  0  0  0  0
  8 14  1  0  0  0  0
 12 17  1  0  0  0  0
  1 18  1  0  0  0  0
  6 19  1  0  0  0  0
  6 20  1  0  0  0  0
  7 21  1  0  0  0  0
  7 22  1  0  0  0  0
  9 23  1  0  0  0  0
  9 24  1  0  0  0  0
  9 25  1  0  0  0  0
 10 26  1  0  0  0  0
 10 27  1  0  0  0  0
 10 28  1  0  0  0  0
 11 29  1  0  0  0  0
 11 30  1  0  0  0  0
 11 31  1  0  0  0  0
 13 32  1  0  0  0  0
M  END
> <Catalog ID>
Z2001735784

> <PlateID>
1337959-R-13

> <Well>
D09

> <MW (desalted)>
237.255

> <CLogP>
0.365

> <HBD>
1

> <TPSA>
75.440

> <RotBonds>
1

> <ROCS_ShapeQuery>
x0446_0A_x1080_0A_x0929_0A_x0812_0A_x0719_0A_x1140_0A_x0528_0A_x0310_0A

> <ROCS_TanimotoCombo>
0.349 

> <ROCS_ShapeTanimoto>
0.204 

> <ROCS_ColorTanimoto>
0.145 

> <ROCS_RefTversky>
0.189 

> <ROCS_RefColorTversky>
0.157 

> <ROCS_RefTverskyCombo>
0.346 

> <ROCS_FitTversky>
1.657 

> <ROCS_FitColorTversky>
0.657 

> <ROCS_FitTverskyCombo>
2.313 

> <ROCS_ColorScore>
-5.589

> <ROCS_Overlap>
2229.089

> <ROCS_Rank>
48                  

$$$$
untitled-dbase-582_0
  -OEChem-02082415003D

 32 33  0     0  0  0  0  0  0999 V2000
    5.0948   12.4128   25.0966 C   0  0  0  0  0  0  0  0  0  0  0  0
    5.8008   12.2916   26.3032 C   0  0  0  0  0  0  0  0  0  0  0  0
    5.7607   12.3296   23.8722 C   0  0  0  0  0  0  0  0  0  0  0  0
    7.1818   12.0859   26.3007 C   0  0  0  0  0  0  0  0  0  0  0  0
    7.1299   12.1161   23.8797 C   0  0  0  0  0  0  0  0  0  0  0  0
    7.8326   11.9957   25.0807 C   0  0  0  0  0  0  0  0  0  0  0  0
    9.3798    9.9722   23.1921 C   0  0  0  0  0  0  0  0  0  0  0  0
   10.7577   13.4465   22.6672 C   0  0  0  0  0  0  0  0  0  0  0  0
    8.0452   12.0204   22.6983 C   0  0  0  0  0  0  0  0  0  0  0  0
    9.2990   11.8071   24.8400 C   0  0  0  0  0  0  0  0  0  0  0  0
    9.3523   11.4946   23.3279 C   0  0  0  0  0  0  0  0  0  0  0  0
   12.3214   15.2611   21.8673 C   0  0  0  0  0  0  0  0  0  0  0  0
   12.0532   13.7692   21.9457 C   0  0  0  0  0  0  0  0  0  0  0  0
   10.5131   12.0775   22.7012 N   0  0  0  0  0  0  0  0  0  0  0  0
    8.5495    9.2103   23.6649 O   0  0  0  0  0  0  0  0  0  0  0  0
   10.0294   14.3056   23.1568 O   0  0  0  0  0  0  0  0  0  0  0  0
   10.4583    9.5751   22.4736 O   0  0  0  0  0  0  0  0  0  0  0  0
    4.0209   12.5771   25.1168 H   0  0  0  0  0  0  0  0  0  0  0  0
    5.2675   12.3634   27.2472 H   0  0  0  0  0  0  0  0  0  0  0  0
    5.2137   12.4309   22.9409 H   0  0  0  0  0  0  0  0  0  0  0  0
    7.7267   12.0012   27.2349 H   0  0  0  0  0  0  0  0  0  0  0  0
    7.6406   11.3519   21.9316 H   0  0  0  0  0  0  0  0  0  0  0  0
    8.1764   13.0237   22.2761 H   0  0  0  0  0  0  0  0  0  0  0  0
    9.8174   12.7435   25.0770 H   0  0  0  0  0  0  0  0  0  0  0  0
    9.7026   10.9971   25.4564 H   0  0  0  0  0  0  0  0  0  0  0  0
   11.5118   15.7794   21.3428 H   0  0  0  0  0  0  0  0  0  0  0  0
   12.4056   15.6866   22.8719 H   0  0  0  0  0  0  0  0  0  0  0  0
   13.2539   15.4654   21.3306 H   0  0  0  0  0  0  0  0  0  0  0  0
   12.8767   13.2753   22.4741 H   0  0  0  0  0  0  0  0  0  0  0  0
   12.0008   13.3519   20.9338 H   0  0  0  0  0  0  0  0  0  0  0  0
   11.1887   11.4547   22.2607 H   0  0  0  0  0  0  0  0  0  0  0  0
   10.4951    8.5996   22.3767 H   0  0  0  0  0  0  0  0  0  0  0  0
  1  2  2  0  0  0  0
  1  3  1  0  0  0  0
  2  4  1  0  0  0  0
  3  5  2  0  0  0  0
  4  6  2  0  0  0  0
  5  6  1  0  0  0  0
  5  9  1  0  0  0  0
  6 10  1  0  0  0  0
  7 11  1  0  0  0  0
  7 15  2  0  0  0  0
  7 17  1  0  0  0  0
  8 13  1  0  0  0  0
  8 14  1  0  0  0  0
  8 16  2  0  0  0  0
  9 11  1  0  0  0  0
 10 11  1  0  0  0  0
 11 14  1  0  0  0  0
 12 13  1  0  0  0  0
  1 18  1  0  0  0  0
  2 19  1  0  0  0  0
  3 20  1  0  0  0  0
  4 21  1  0  0  0  0
  9 22  1  0  0  0  0
  9 23  1  0  0  0  0
 10 24  1  0  0  0  0
 10 25  1  0  0  0  0
 12 26  1  0  0  0  0
 12 27  1  0  0  0  0
 12 28  1  0  0  0  0
 13 29  1  0  0  0  0
 13 30  1  0  0  0  0
 14 31  1  0  0  0  0
 17 32  1  0  0  0  0
M  END
> <Catalog ID>
Z1444397255

> <PlateID>
1337959-R-13

> <Well>
F03

> <MW (desalted)>
233.263

> <CLogP>
1.354

> <HBD>
2

> <TPSA>
66.400

> <RotBonds>
3

> <ROCS_ShapeQuery>
x0446_0A_x1080_0A_x0929_0A_x0812_0A_x0719_0A_x1140_0A_x0528_0A_x0310_0A

> <ROCS_TanimotoCombo>
0.349 

> <ROCS_ShapeTanimoto>
0.222 

> <ROCS_ColorTanimoto>
0.126 

> <ROCS_RefTversky>
0.203 

> <ROCS_RefColorTversky>
0.142 

> <ROCS_RefTverskyCombo>
0.344 

> <ROCS_FitTversky>
1.783 

> <ROCS_FitColorTversky>
0.534 

> <ROCS_FitTverskyCombo>
2.317 

> <ROCS_ColorScore>
-5.065

> <ROCS_Overlap>
2391.352

> <ROCS_Rank>
49                  

$$$$
untitled-dbase-454_8
  -OEChem-02082415003D

 38 40  0     1  0  0  0  0  0999 V2000
   10.6134   14.3236   21.8329 C   0  0  0  0  0  0  0  0  0  0  0  0
   10.8762   15.6215   21.3948 C   0  0  0  0  0  0  0  0  0  0  0  0
   12.9331   15.6327   22.6622 C   0  0  0  0  0  0  0  0  0  0  0  0
   11.5104   13.6802   22.6857 C   0  0  0  0  0  0  0  0  0  0  0  0
   12.6703   14.3348   23.1003 C   0  0  0  0  0  0  0  0  0  0  0  0
   12.0361   16.2761   21.8095 C   0  0  0  0  0  0  0  0  0  0  0  0
    8.0731   10.5206   23.8948 C   0  0  0  0  0  0  0  0  0  0  0  0
    6.7975   12.6826   23.5846 C   0  0  0  0  0  0  0  0  0  0  0  0
    9.4431   10.6143   23.2182 C   0  0  0  0  0  0  0  0  0  0  0  0
    9.1933   12.5598   24.4753 C   0  0  0  0  0  0  0  0  0  0  0  0
    5.4689   12.1910   24.1269 C   0  0  0  0  0  0  0  0  0  0  0  0
    7.0836   11.9348   25.7872 C   0  0  0  0  0  0  0  0  0  0  0  0
    7.8052   11.9327   24.4495 C   0  0  2  0  0  0  0  0  0  0  0  0
   13.6445   13.6672   24.0145 C   0  0  0  0  0  0  0  0  0  0  0  0
   11.2053   12.2836   23.1445 C   0  0  0  0  0  0  0  0  0  0  0  0
    9.7737   12.0411   23.2360 N   0  0  1  0  0  0  0  0  0  0  0  0
    5.6813   11.8308   25.4989 O   0  0  0  0  0  0  0  0  0  0  0  0
   12.2890   17.5222   21.3884 F   0  0  0  0  0  0  0  0  0  0  0  0
    9.7063   13.8222   21.5053 H   0  0  0  0  0  0  0  0  0  0  0  0
   10.1768   16.1222   20.7322 H   0  0  0  0  0  0  0  0  0  0  0  0
   13.8334   16.1519   22.9800 H   0  0  0  0  0  0  0  0  0  0  0  0
    7.3211   10.2346   23.1495 H   0  0  0  0  0  0  0  0  0  0  0  0
    8.0710    9.7554   24.6792 H   0  0  0  0  0  0  0  0  0  0  0  0
    6.9045   12.5061   22.5115 H   0  0  0  0  0  0  0  0  0  0  0  0
    6.8881   13.7613   23.7587 H   0  0  0  0  0  0  0  0  0  0  0  0
   10.1953   10.0298   23.7567 H   0  0  0  0  0  0  0  0  0  0  0  0
    9.3673   10.2204   22.1973 H   0  0  0  0  0  0  0  0  0  0  0  0
    9.1250   13.6558   24.4634 H   0  0  0  0  0  0  0  0  0  0  0  0
    9.7744   12.2558   25.3526 H   0  0  0  0  0  0  0  0  0  0  0  0
    4.6855   12.9524   24.0638 H   0  0  0  0  0  0  0  0  0  0  0  0
    5.1273   11.2965   23.5945 H   0  0  0  0  0  0  0  0  0  0  0  0
    7.3723   11.1141   26.4557 H   0  0  0  0  0  0  0  0  0  0  0  0
    7.2304   12.8782   26.3304 H   0  0  0  0  0  0  0  0  0  0  0  0
   13.3875   13.8739   25.0599 H   0  0  0  0  0  0  0  0  0  0  0  0
   13.6489   12.5806   23.8639 H   0  0  0  0  0  0  0  0  0  0  0  0
   14.6669   14.0193   23.8295 H   0  0  0  0  0  0  0  0  0  0  0  0
   11.6284   11.5484   22.4513 H   0  0  0  0  0  0  0  0  0  0  0  0
   11.6413   12.0898   24.1302 H   0  0  0  0  0  0  0  0  0  0  0  0
  1  2  1  0  0  0  0
  1  4  2  0  0  0  0
  2  6  2  0  0  0  0
  3  5  2  0  0  0  0
  3  6  1  0  0  0  0
  4  5  1  0  0  0  0
  4 15  1  0  0  0  0
  5 14  1  0  0  0  0
  6 18  1  0  0  0  0
  7  9  1  0  0  0  0
  7 13  1  0  0  0  0
  8 11  1  0  0  0  0
  8 13  1  0  0  0  0
  9 16  1  0  0  0  0
 10 13  1  0  0  0  0
 10 16  1  0  0  0  0
 11 17  1  0  0  0  0
 12 13  1  0  0  0  0
 12 17  1  0  0  0  0
 15 16  1  0  0  0  0
  1 19  1  0  0  0  0
  2 20  1  0  0  0  0
  3 21  1  0  0  0  0
  7 22  1  0  0  0  0
  7 23  1  0  0  0  0
  8 24  1  0  0  0  0
  8 25  1  0  0  0  0
  9 26  1  0  0  0  0
  9 27  1  0  0  0  0
 10 28  1  0  0  0  0
 10 29  1  0  0  0  0
 11 30  1  0  0  0  0
 11 31  1  0  0  0  0
 12 32  1  0  0  0  0
 12 33  1  0  0  0  0
 14 34  1  0  0  0  0
 14 35  1  0  0  0  0
 14 36  1  0  0  0  0
 15 37  1  0  0  0  0
 15 38  1  0  0  0  0
M  END
> <Catalog ID>
Z1569665932

> <PlateID>
1337959-R-10

> <Well>
G07

> <MW (desalted)>
249.324

> <CLogP>
2.738

> <HBD>
0

> <TPSA>
12.470

> <RotBonds>
2

> <ROCS_ShapeQuery>
x0446_0A_x1080_0A_x0929_0A_x0812_0A_x0719_0A_x1140_0A_x0528_0A_x0310_0A

> <ROCS_TanimotoCombo>
0.348 

> <ROCS_ShapeTanimoto>
0.221 

> <ROCS_ColorTanimoto>
0.128 

> <ROCS_RefTversky>
0.202 

> <ROCS_RefColorTversky>
0.134 

> <ROCS_RefTverskyCombo>
0.336 

> <ROCS_FitTversky>
1.723 

> <ROCS_FitColorTversky>
0.722 

> <ROCS_FitTverskyCombo>
2.445 

> <ROCS_ColorScore>
-4.773

> <ROCS_Overlap>
2385.702

> <ROCS_Rank>
50                  

$$$$
untitled-dbase-605_101
  -OEChem-02082415003D

 44 46  0     0  0  0  0  0  0999 V2000
   10.4518   16.0839   21.7440 C   0  0  0  0  0  0  0  0  0  0  0  0
   10.5466   13.9843   21.8205 C   0  0  0  0  0  0  0  0  0  0  0  0
   11.8140   14.4621   22.0445 C   0  0  0  0  0  0  0  0  0  0  0  0
   10.1260   12.5765   21.7813 C   0  0  0  0  0  0  0  0  0  0  0  0
    5.7082   12.2658   26.0935 C   0  0  0  0  0  0  0  0  0  0  0  0
    5.7873   13.2427   24.9220 C   0  0  0  0  0  0  0  0  0  0  0  0
    6.5071   11.0346   25.6720 C   0  0  0  0  0  0  0  0  0  0  0  0
    6.5943   12.5321   23.8387 C   0  0  0  0  0  0  0  0  0  0  0  0
    8.7156   12.2275   25.2429 C   0  0  0  0  0  0  0  0  0  0  0  0
    7.9671   10.3732   23.6936 C   0  0  0  0  0  0  0  0  0  0  0  0
    9.6878   12.7768   24.1947 C   0  0  0  0  0  0  0  0  0  0  0  0
    9.3827   10.5612   23.1421 C   0  0  0  0  0  0  0  0  0  0  0  0
    7.4913   11.5338   24.5999 C   0  0  0  0  0  0  0  0  0  0  0  0
   13.7109   14.2344   23.6887 C   0  0  0  0  0  0  0  0  0  0  0  0
   14.1746   14.1651   21.2117 C   0  0  0  0  0  0  0  0  0  0  0  0
   13.1228   13.8529   22.3064 C   0  0  0  0  0  0  0  0  0  0  0  0
    9.6781   15.0283   21.6289 N   0  0  0  0  0  0  0  0  0  0  0  0
    9.7101   11.9762   22.9722 N   0  0  0  0  0  0  0  0  0  0  0  0
   10.1897   12.0141   20.6887 O   0  0  0  0  0  0  0  0  0  0  0  0
   11.7635   15.8225   21.9969 O   0  0  0  0  0  0  0  0  0  0  0  0
   10.1749   17.1242   21.6630 H   0  0  0  0  0  0  0  0  0  0  0  0
    6.1115   12.7023   27.0127 H   0  0  0  0  0  0  0  0  0  0  0  0
    4.6635   11.9997   26.2890 H   0  0  0  0  0  0  0  0  0  0  0  0
    4.7797   13.4750   24.5600 H   0  0  0  0  0  0  0  0  0  0  0  0
    6.2567   14.1877   25.2116 H   0  0  0  0  0  0  0  0  0  0  0  0
    7.0536   10.6520   26.5447 H   0  0  0  0  0  0  0  0  0  0  0  0
    5.8488   10.2295   25.3302 H   0  0  0  0  0  0  0  0  0  0  0  0
    5.9479   12.0492   23.1006 H   0  0  0  0  0  0  0  0  0  0  0  0
    7.2088   13.2690   23.3077 H   0  0  0  0  0  0  0  0  0  0  0  0
    9.2502   11.5308   25.8975 H   0  0  0  0  0  0  0  0  0  0  0  0
    8.3745   13.0535   25.8784 H   0  0  0  0  0  0  0  0  0  0  0  0
    7.2777   10.2781   22.8402 H   0  0  0  0  0  0  0  0  0  0  0  0
    7.9218    9.4109   24.2223 H   0  0  0  0  0  0  0  0  0  0  0  0
    9.4240   13.8209   23.9692 H   0  0  0  0  0  0  0  0  0  0  0  0
   10.7147   12.7958   24.5919 H   0  0  0  0  0  0  0  0  0  0  0  0
   10.1255   10.1372   23.8284 H   0  0  0  0  0  0  0  0  0  0  0  0
    9.4721   10.0084   22.2021 H   0  0  0  0  0  0  0  0  0  0  0  0
   13.8282   15.3194   23.7842 H   0  0  0  0  0  0  0  0  0  0  0  0
   14.6912   13.7777   23.8633 H   0  0  0  0  0  0  0  0  0  0  0  0
   13.0383   13.8999   24.4864 H   0  0  0  0  0  0  0  0  0  0  0  0
   14.3130   15.2486   21.1243 H   0  0  0  0  0  0  0  0  0  0  0  0
   13.8760   13.7851   20.2287 H   0  0  0  0  0  0  0  0  0  0  0  0
   15.1463   13.7230   21.4575 H   0  0  0  0  0  0  0  0  0  0  0  0
   13.0493   12.7404   22.3236 H   0  0  0  0  0  0  0  0  0  0  0  0
  1 17  2  0  0  0  0
  1 20  1  0  0  0  0
  2  3  2  0  0  0  0
  2  4  1  0  0  0  0
  2 17  1  0  0  0  0
  3 16  1  0  0  0  0
  3 20  1  0  0  0  0
  4 18  1  0  0  0  0
  4 19  2  0  0  0  0
  5  6  1  0  0  0  0
  5  7  1  0  0  0  0
  6  8  1  0  0  0  0
  7 13  1  0  0  0  0
  8 13  1  0  0  0  0
  9 11  1  0  0  0  0
  9 13  1  0  0  0  0
 10 12  1  0  0  0  0
 10 13  1  0  0  0  0
 11 18  1  0  0  0  0
 12 18  1  0  0  0  0
 14 16  1  0  0  0  0
 15 16  1  0  0  0  0
  1 21  1  0  0  0  0
  5 22  1  0  0  0  0
  5 23  1  0  0  0  0
  6 24  1  0  0  0  0
  6 25  1  0  0  0  0
  7 26  1  0  0  0  0
  7 27  1  0  0  0  0
  8 28  1  0  0  0  0
  8 29  1  0  0  0  0
  9 30  1  0  0  0  0
  9 31  1  0  0  0  0
 10 32  1  0  0  0  0
 10 33  1  0  0  0  0
 11 34  1  0  0  0  0
 11 35  1  0  0  0  0
 12 36  1  0  0  0  0
 12 37  1  0  0  0  0
 14 38  1  0  0  0  0
 14 39  1  0  0  0  0
 14 40  1  0  0  0  0
 15 41  1  0  0  0  0
 15 42  1  0  0  0  0
 15 43  1  0  0  0  0
 16 44  1  0  0  0  0
M  END
> <Catalog ID>
Z1240877747

> <PlateID>
1337959-R-14

> <Well>
B04

> <MW (desalted)>
276.374

> <CLogP>
2.504

> <HBD>
0

> <TPSA>
46.340

> <RotBonds>
2

> <ROCS_ShapeQuery>
x0446_0A_x1080_0A_x0929_0A_x0812_0A_x0719_0A_x1140_0A_x0528_0A_x0310_0A

> <ROCS_TanimotoCombo>
0.348 

> <ROCS_ShapeTanimoto>
0.225 

> <ROCS_ColorTanimoto>
0.123 

> <ROCS_RefTversky>
0.207 

> <ROCS_RefColorTversky>
0.133 

> <ROCS_RefTverskyCombo>
0.339 

> <ROCS_FitTversky>
1.667 

> <ROCS_FitColorTversky>
0.625 

> <ROCS_FitTverskyCombo>
2.293 

> <ROCS_ColorScore>
-4.728

> <ROCS_Overlap>
2441.604

> <ROCS_Rank>
51                  

$$$$
untitled-dbase-504_12
  -OEChem-02082415003D

 34 34  0     0  0  0  0  0  0999 V2000
    7.5755   11.0590   24.0211 C   0  0  0  0  0  0  0  0  0  0  0  0
    9.2701   12.4073   23.7904 C   0  0  0  0  0  0  0  0  0  0  0  0
    6.8106   14.0596   22.5900 C   0  0  0  0  0  0  0  0  0  0  0  0
    6.1618   10.6126   24.1856 C   0  0  0  0  0  0  0  0  0  0  0  0
   11.9873   11.7231   23.5363 C   0  0  0  0  0  0  0  0  0  0  0  0
   11.3509    9.7477   24.9438 C   0  0  0  0  0  0  0  0  0  0  0  0
   11.0991    9.6477   22.4508 C   0  0  0  0  0  0  0  0  0  0  0  0
    5.5995   15.8823   21.3963 C   0  0  0  0  0  0  0  0  0  0  0  0
    6.9865   13.4967   23.9772 C   0  0  0  0  0  0  0  0  0  0  0  0
   11.0091   10.5522   23.6853 C   0  0  0  0  0  0  0  0  0  0  0  0
    8.5849   10.2416   23.9480 N   0  0  0  0  0  0  0  0  0  0  0  0
    7.8958   12.3672   23.9325 N   0  0  0  0  0  0  0  0  0  0  0  0
    9.6705   11.0633   23.8034 N   0  0  0  0  0  0  0  0  0  0  0  0
    5.9473   15.1458   22.5902 N   0  0  0  0  0  0  0  0  0  0  0  0
    9.9894   13.3897   23.6768 O   0  0  0  0  0  0  0  0  0  0  0  0
    7.3720   13.6011   21.5985 O   0  0  0  0  0  0  0  0  0  0  0  0
    5.9160   10.5414   25.2456 H   0  0  0  0  0  0  0  0  0  0  0  0
    6.0236    9.6361   23.7196 H   0  0  0  0  0  0  0  0  0  0  0  0
    5.4890   11.3266   23.7090 H   0  0  0  0  0  0  0  0  0  0  0  0
   11.7632   12.3152   22.6414 H   0  0  0  0  0  0  0  0  0  0  0  0
   11.9428   12.3927   24.4024 H   0  0  0  0  0  0  0  0  0  0  0  0
   13.0191   11.3659   23.4383 H   0  0  0  0  0  0  0  0  0  0  0  0
   10.6636    8.9033   25.0720 H   0  0  0  0  0  0  0  0  0  0  0  0
   11.2718   10.3688   25.8437 H   0  0  0  0  0  0  0  0  0  0  0  0
   12.3703    9.3488   24.8978 H   0  0  0  0  0  0  0  0  0  0  0  0
   10.4085    8.8001   22.5309 H   0  0  0  0  0  0  0  0  0  0  0  0
   10.8545   10.1971   21.5350 H   0  0  0  0  0  0  0  0  0  0  0  0
   12.1077    9.2339   22.3358 H   0  0  0  0  0  0  0  0  0  0  0  0
    6.3133   16.7068   21.2525 H   0  0  0  0  0  0  0  0  0  0  0  0
    5.6366   15.2095   20.5268 H   0  0  0  0  0  0  0  0  0  0  0  0
    4.5836   16.2909   21.5006 H   0  0  0  0  0  0  0  0  0  0  0  0
    7.3992   14.2654   24.6372 H   0  0  0  0  0  0  0  0  0  0  0  0
    6.0202   13.1646   24.3680 H   0  0  0  0  0  0  0  0  0  0  0  0
    5.5395   15.4381   23.4735 H   0  0  0  0  0  0  0  0  0  0  0  0
  1  4  1  0  0  0  0
  1 11  2  0  0  0  0
  1 12  1  0  0  0  0
  2 12  1  0  0  0  0
  2 13  1  0  0  0  0
  2 15  2  0  0  0  0
  3  9  1  0  0  0  0
  3 14  1  0  0  0  0
  3 16  2  0  0  0  0
  5 10  1  0  0  0  0
  6 10  1  0  0  0  0
  7 10  1  0  0  0  0
  8 14  1  0  0  0  0
  9 12  1  0  0  0  0
 10 13  1  0  0  0  0
 11 13  1  0  0  0  0
  4 17  1  0  0  0  0
  4 18  1  0  0  0  0
  4 19  1  0  0  0  0
  5 20  1  0  0  0  0
  5 21  1  0  0  0  0
  5 22  1  0  0  0  0
  6 23  1  0  0  0  0
  6 24  1  0  0  0  0
  6 25  1  0  0  0  0
  7 26  1  0  0  0  0
  7 27  1  0  0  0  0
  7 28  1  0  0  0  0
  8 29  1  0  0  0  0
  8 30  1  0  0  0  0
  8 31  1  0  0  0  0
  9 32  1  0  0  0  0
  9 33  1  0  0  0  0
 14 34  1  0  0  0  0
M  END
> <Catalog ID>
Z1624949930

> <PlateID>
1337959-R-11

> <Well>
H09

> <MW (desalted)>
226.276

> <CLogP>
0.368

> <HBD>
1

> <TPSA>
65.010

> <RotBonds>
3

> <ROCS_ShapeQuery>
x0446_0A_x1080_0A_x0929_0A_x0812_0A_x0719_0A_x1140_0A_x0528_0A_x0310_0A

> <ROCS_TanimotoCombo>
0.348 

> <ROCS_ShapeTanimoto>
0.210 

> <ROCS_ColorTanimoto>
0.138 

> <ROCS_RefTversky>
0.193 

> <ROCS_RefColorTversky>
0.147 

> <ROCS_RefTverskyCombo>
0.339 

> <ROCS_FitTversky>
1.763 

> <ROCS_FitColorTversky>
0.691 

> <ROCS_FitTverskyCombo>
2.455 

> <ROCS_ColorScore>
-5.225

> <ROCS_Overlap>
2274.402

> <ROCS_Rank>
52                  

$$$$
untitled-dbase-236_2
  -OEChem-02082415003D

 37 38  0     0  0  0  0  0  0999 V2000
    7.6896   12.0157   24.4970 C   0  0  0  0  0  0  0  0  0  0  0  0
    8.1898   12.9134   23.5539 C   0  0  0  0  0  0  0  0  0  0  0  0
    8.2327   10.7348   24.5973 C   0  0  0  0  0  0  0  0  0  0  0  0
    9.2759   10.3517   23.7545 C   0  0  0  0  0  0  0  0  0  0  0  0
    9.7761   11.2493   22.8113 C   0  0  0  0  0  0  0  0  0  0  0  0
    9.2330   12.5303   22.7110 C   0  0  0  0  0  0  0  0  0  0  0  0
   11.5669   14.4465   23.5065 C   0  0  0  0  0  0  0  0  0  0  0  0
   12.4105   14.5513   21.1976 C   0  0  0  0  0  0  0  0  0  0  0  0
   11.4832   15.9657   23.4918 C   0  0  0  0  0  0  0  0  0  0  0  0
   12.2929   16.0662   21.2764 C   0  0  0  0  0  0  0  0  0  0  0  0
    7.6776    9.7927   25.6150 C   0  0  0  0  0  0  0  0  0  0  0  0
    9.8552    8.9764   23.8639 C   0  0  0  0  0  0  0  0  0  0  0  0
   10.8944   10.8312   21.9090 C   0  0  0  0  0  0  0  0  0  0  0  0
   11.4235   13.9218   22.1194 N   0  0  0  0  0  0  0  0  0  0  0  0
    9.9013   13.0296   20.2457 O   0  0  0  0  0  0  0  0  0  0  0  0
    9.0934   14.9249   21.6959 O   0  0  0  0  0  0  0  0  0  0  0  0
   12.4805   16.5090   22.6230 O   0  0  0  0  0  0  0  0  0  0  0  0
    9.8376   13.6947   21.5297 S   0  0  0  0  0  0  0  0  0  0  0  0
    6.8765   12.3242   25.1490 H   0  0  0  0  0  0  0  0  0  0  0  0
    7.7591   13.9090   23.4858 H   0  0  0  0  0  0  0  0  0  0  0  0
   12.5370   14.1212   23.9118 H   0  0  0  0  0  0  0  0  0  0  0  0
   10.7680   14.0404   24.1426 H   0  0  0  0  0  0  0  0  0  0  0  0
   12.2205   14.2208   20.1668 H   0  0  0  0  0  0  0  0  0  0  0  0
   13.4228   14.2311   21.4872 H   0  0  0  0  0  0  0  0  0  0  0  0
   10.4941   16.3119   23.1690 H   0  0  0  0  0  0  0  0  0  0  0  0
   11.6642   16.3607   24.4963 H   0  0  0  0  0  0  0  0  0  0  0  0
   13.0665   16.5346   20.6602 H   0  0  0  0  0  0  0  0  0  0  0  0
   11.3187   16.4146   20.9131 H   0  0  0  0  0  0  0  0  0  0  0  0
    6.8550    9.2104   25.1843 H   0  0  0  0  0  0  0  0  0  0  0  0
    8.4474    9.0986   25.9737 H   0  0  0  0  0  0  0  0  0  0  0  0
    7.3016   10.3338   26.4921 H   0  0  0  0  0  0  0  0  0  0  0  0
    9.3189    8.2876   23.2026 H   0  0  0  0  0  0  0  0  0  0  0  0
   10.9162    8.9733   23.5895 H   0  0  0  0  0  0  0  0  0  0  0  0
    9.7878    8.6017   24.8918 H   0  0  0  0  0  0  0  0  0  0  0  0
   10.4929   10.3836   20.9937 H   0  0  0  0  0  0  0  0  0  0  0  0
   11.5212   11.6878   21.6364 H   0  0  0  0  0  0  0  0  0  0  0  0
   11.5454   10.1003   22.4022 H   0  0  0  0  0  0  0  0  0  0  0  0
  1  2  1  0  0  0  0
  1  3  2  0  0  0  0
  2  6  2  0  0  0  0
  3  4  1  0  0  0  0
  3 11  1  0  0  0  0
  4  5  2  0  0  0  0
  4 12  1  0  0  0  0
  5  6  1  0  0  0  0
  5 13  1  0  0  0  0
  6 18  1  0  0  0  0
  7  9  1  0  0  0  0
  7 14  1  0  0  0  0
  8 10  1  0  0  0  0
  8 14  1  0  0  0  0
  9 17  1  0  0  0  0
 10 17  1  0  0  0  0
 14 18  1  0  0  0  0
 15 18  2  0  0  0  0
 16 18  2  0  0  0  0
  1 19  1  0  0  0  0
  2 20  1  0  0  0  0
  7 21  1  0  0  0  0
  7 22  1  0  0  0  0
  8 23  1  0  0  0  0
  8 24  1  0  0  0  0
  9 25  1  0  0  0  0
  9 26  1  0  0  0  0
 10 27  1  0  0  0  0
 10 28  1  0  0  0  0
 11 29  1  0  0  0  0
 11 30  1  0  0  0  0
 11 31  1  0  0  0  0
 12 32  1  0  0  0  0
 12 33  1  0  0  0  0
 12 34  1  0  0  0  0
 13 35  1  0  0  0  0
 13 36  1  0  0  0  0
 13 37  1  0  0  0  0
M  END
> <Catalog ID>
Z1171222256

> <PlateID>
1337959-R-05

> <Well>
F11

> <MW (desalted)>
269.360

> <CLogP>
2.680

> <HBD>
0

> <TPSA>
46.610

> <RotBonds>
1

> <ROCS_ShapeQuery>
x0446_0A_x1080_0A_x0929_0A_x0812_0A_x0719_0A_x1140_0A_x0528_0A_x0310_0A

> <ROCS_TanimotoCombo>
0.348 

> <ROCS_ShapeTanimoto>
0.215 

> <ROCS_ColorTanimoto>
0.133 

> <ROCS_RefTversky>
0.197 

> <ROCS_RefColorTversky>
0.139 

> <ROCS_RefTverskyCombo>
0.336 

> <ROCS_FitTversky>
1.725 

> <ROCS_FitColorTversky>
0.747 

> <ROCS_FitTverskyCombo>
2.472 

> <ROCS_ColorScore>
-4.942

> <ROCS_Overlap>
2329.715

> <ROCS_Rank>
53                  

$$$$
untitled-dbase-364_32
  -OEChem-02082415003D

 39 40  0     1  0  0  0  0  0999 V2000
   11.6291    9.9169   22.9332 C   0  0  0  0  0  0  0  0  0  0  0  0
   12.2576   11.1181   23.2535 C   0  0  0  0  0  0  0  0  0  0  0  0
   10.2525    9.7806   23.1098 C   0  0  0  0  0  0  0  0  0  0  0  0
   11.5103   12.1872   23.7472 C   0  0  0  0  0  0  0  0  0  0  0  0
    9.4948   10.8456   23.6140 C   0  0  0  0  0  0  0  0  0  0  0  0
   10.1247   12.0648   23.9179 C   0  0  0  0  0  0  0  0  0  0  0  0
    6.4458   14.7544   21.9661 C   0  0  0  0  0  0  0  0  0  0  0  0
    8.0027   10.7040   23.7674 C   0  0  0  0  0  0  0  0  0  0  0  0
    9.3313   13.2168   24.4909 C   0  0  0  0  0  0  0  0  0  0  0  0
    7.3900   11.7932   24.6537 C   0  0  0  0  0  0  0  0  0  0  0  0
    7.9684   15.4832   24.8275 C   0  0  0  0  0  0  0  0  0  0  0  0
    7.0294   13.7971   26.4145 C   0  0  0  0  0  0  0  0  0  0  0  0
    5.7580   14.3398   24.3275 C   0  0  0  0  0  0  0  0  0  0  0  0
    7.1654   14.1785   24.9327 C   0  0  0  0  0  0  0  0  0  0  0  0
    7.8835   13.1114   24.2367 N   0  0  1  0  0  0  0  0  0  0  0  0
    6.2660   15.6647   20.9400 N   0  0  0  0  0  0  0  0  0  0  0  0
    5.7447   15.1124   23.1130 N   0  0  0  0  0  0  0  0  0  0  0  0
    7.1497   13.7524   21.8524 O   0  0  0  0  0  0  0  0  0  0  0  0
   12.2114    9.0859   22.5458 H   0  0  0  0  0  0  0  0  0  0  0  0
   13.3304   11.2219   23.1197 H   0  0  0  0  0  0  0  0  0  0  0  0
    9.7729    8.8400   22.8508 H   0  0  0  0  0  0  0  0  0  0  0  0
   12.0142   13.1170   23.9992 H   0  0  0  0  0  0  0  0  0  0  0  0
    7.5521   10.7494   22.7678 H   0  0  0  0  0  0  0  0  0  0  0  0
    7.7647    9.7239   24.1975 H   0  0  0  0  0  0  0  0  0  0  0  0
    9.5350   13.2608   25.5693 H   0  0  0  0  0  0  0  0  0  0  0  0
    9.6953   14.1480   24.0388 H   0  0  0  0  0  0  0  0  0  0  0  0
    6.2988   11.7402   24.5531 H   0  0  0  0  0  0  0  0  0  0  0  0
    7.6282   11.6030   25.7091 H   0  0  0  0  0  0  0  0  0  0  0  0
    8.0867   15.7885   23.7811 H   0  0  0  0  0  0  0  0  0  0  0  0
    8.9685   15.3701   25.2601 H   0  0  0  0  0  0  0  0  0  0  0  0
    7.4677   16.3098   25.3440 H   0  0  0  0  0  0  0  0  0  0  0  0
    6.4610   12.8684   26.5365 H   0  0  0  0  0  0  0  0  0  0  0  0
    6.5167   14.5838   26.9804 H   0  0  0  0  0  0  0  0  0  0  0  0
    8.0122   13.6539   26.8786 H   0  0  0  0  0  0  0  0  0  0  0  0
    5.3264   13.3633   24.0798 H   0  0  0  0  0  0  0  0  0  0  0  0
    5.0815   14.8367   25.0316 H   0  0  0  0  0  0  0  0  0  0  0  0
    5.6821   16.4864   21.0528 H   0  0  0  0  0  0  0  0  0  0  0  0
    6.7166   15.5371   20.0400 H   0  0  0  0  0  0  0  0  0  0  0  0
    5.1922   15.9668   23.0923 H   0  0  0  0  0  0  0  0  0  0  0  0
  1  2  2  0  0  0  0
  1  3  1  0  0  0  0
  2  4  1  0  0  0  0
  3  5  2  0  0  0  0
  4  6  2  0  0  0  0
  5  6  1  0  0  0  0
  5  8  1  0  0  0  0
  6  9  1  0  0  0  0
  7 16  1  0  0  0  0
  7 17  1  0  0  0  0
  7 18  2  0  0  0  0
  8 10  1  0  0  0  0
  9 15  1  0  0  0  0
 10 15  1  0  0  0  0
 11 14  1  0  0  0  0
 12 14  1  0  0  0  0
 13 14  1  0  0  0  0
 13 17  1  0  0  0  0
 14 15  1  0  0  0  0
  1 19  1  0  0  0  0
  2 20  1  0  0  0  0
  3 21  1  0  0  0  0
  4 22  1  0  0  0  0
  8 23  1  0  0  0  0
  8 24  1  0  0  0  0
  9 25  1  0  0  0  0
  9 26  1  0  0  0  0
 10 27  1  0  0  0  0
 10 28  1  0  0  0  0
 11 29  1  0  0  0  0
 11 30  1  0  0  0  0
 11 31  1  0  0  0  0
 12 32  1  0  0  0  0
 12 33  1  0  0  0  0
 12 34  1  0  0  0  0
 13 35  1  0  0  0  0
 13 36  1  0  0  0  0
 16 37  1  0  0  0  0
 16 38  1  0  0  0  0
 17 39  1  0  0  0  0
M  END
> <Catalog ID>
Z432838040

> <PlateID>
1337959-R-08

> <Well>
H05

> <MW (desalted)>
247.336

> <CLogP>
1.758

> <HBD>
2

> <TPSA>
58.360

> <RotBonds>
3

> <ROCS_ShapeQuery>
x0446_0A_x1080_0A_x0929_0A_x0812_0A_x0719_0A_x1140_0A_x0528_0A_x0310_0A

> <ROCS_TanimotoCombo>
0.348 

> <ROCS_ShapeTanimoto>
0.213 

> <ROCS_ColorTanimoto>
0.134 

> <ROCS_RefTversky>
0.196 

> <ROCS_RefColorTversky>
0.147 

> <ROCS_RefTverskyCombo>
0.343 

> <ROCS_FitTversky>
1.690 

> <ROCS_FitColorTversky>
0.615 

> <ROCS_FitTverskyCombo>
2.305 

> <ROCS_ColorScore>
-5.241

> <ROCS_Overlap>
2314.066

> <ROCS_Rank>
54                  

$$$$
untitled-dbase-597_25
  -OEChem-02082415003D

 38 38  0     0  0  0  0  0  0999 V2000
    8.8333   12.3423   23.6729 C   0  0  0  0  0  0  0  0  0  0  0  0
    7.9532   11.4514   24.3159 C   0  0  0  0  0  0  0  0  0  0  0  0
    9.7891   11.5332   23.1085 C   0  0  0  0  0  0  0  0  0  0  0  0
    6.7387   11.7757   25.0857 C   0  0  0  0  0  0  0  0  0  0  0  0
   10.9833   11.8518   22.3029 C   0  0  0  0  0  0  0  0  0  0  0  0
    9.6877    8.5163   21.7058 C   0  0  0  0  0  0  0  0  0  0  0  0
   10.0171    7.9709   24.1554 C   0  0  0  0  0  0  0  0  0  0  0  0
    5.6398   14.8570   23.2669 C   0  0  0  0  0  0  0  0  0  0  0  0
    6.6269   16.7488   21.9370 C   0  0  0  0  0  0  0  0  0  0  0  0
   10.1326    9.0441   23.0712 C   0  0  0  0  0  0  0  0  0  0  0  0
    6.9121   15.6073   22.9018 C   0  0  0  0  0  0  0  0  0  0  0  0
    8.3173   10.1742   24.1738 N   0  0  0  0  0  0  0  0  0  0  0  0
    9.4368   10.2567   23.4348 N   0  0  0  0  0  0  0  0  0  0  0  0
    8.7346   13.7770   23.6292 N   0  0  0  0  0  0  0  0  0  0  0  0
    9.1487   15.3077   21.6075 O   0  0  0  0  0  0  0  0  0  0  0  0
    7.3884   13.5180   21.3999 O   0  0  0  0  0  0  0  0  0  0  0  0
    8.1021   14.4944   22.2020 S   0  0  0  0  0  0  0  0  0  0  0  0
    5.8480   11.7984   24.4354 H   0  0  0  0  0  0  0  0  0  0  0  0
    6.5468   11.0421   25.8883 H   0  0  0  0  0  0  0  0  0  0  0  0
    6.8125   12.7581   25.5846 H   0  0  0  0  0  0  0  0  0  0  0  0
   11.8674   12.0025   22.9443 H   0  0  0  0  0  0  0  0  0  0  0  0
   11.2244   11.0498   21.5840 H   0  0  0  0  0  0  0  0  0  0  0  0
   10.8458   12.7674   21.7021 H   0  0  0  0  0  0  0  0  0  0  0  0
    8.6307    8.2295   21.7032 H   0  0  0  0  0  0  0  0  0  0  0  0
   10.2727    7.6339   21.4254 H   0  0  0  0  0  0  0  0  0  0  0  0
    9.8293    9.2757   20.9287 H   0  0  0  0  0  0  0  0  0  0  0  0
    8.9744    7.6629   24.2903 H   0  0  0  0  0  0  0  0  0  0  0  0
   10.3827    8.3526   25.1146 H   0  0  0  0  0  0  0  0  0  0  0  0
   10.5996    7.0767   23.9091 H   0  0  0  0  0  0  0  0  0  0  0  0
    5.1571   14.4479   22.3734 H   0  0  0  0  0  0  0  0  0  0  0  0
    5.8490   14.0284   23.9525 H   0  0  0  0  0  0  0  0  0  0  0  0
    4.9244   15.5220   23.7627 H   0  0  0  0  0  0  0  0  0  0  0  0
    6.1636   16.3769   21.0174 H   0  0  0  0  0  0  0  0  0  0  0  0
    7.5459   17.2803   21.6664 H   0  0  0  0  0  0  0  0  0  0  0  0
    5.9453   17.4781   22.3877 H   0  0  0  0  0  0  0  0  0  0  0  0
   11.1951    9.3064   22.9867 H   0  0  0  0  0  0  0  0  0  0  0  0
    7.3744   16.0057   23.8115 H   0  0  0  0  0  0  0  0  0  0  0  0
    9.5456   14.2596   24.0394 H   0  0  0  0  0  0  0  0  0  0  0  0
  1  2  1  0  0  0  0
  1  3  2  0  0  0  0
  1 14  1  0  0  0  0
  2  4  1  0  0  0  0
  2 12  2  0  0  0  0
  3  5  1  0  0  0  0
  3 13  1  0  0  0  0
  6 10  1  0  0  0  0
  7 10  1  0  0  0  0
  8 11  1  0  0  0  0
  9 11  1  0  0  0  0
 10 13  1  0  0  0  0
 11 17  1  0  0  0  0
 12 13  1  0  0  0  0
 14 17  1  0  0  0  0
 15 17  2  0  0  0  0
 16 17  2  0  0  0  0
  4 18  1  0  0  0  0
  4 19  1  0  0  0  0
  4 20  1  0  0  0  0
  5 21  1  0  0  0  0
  5 22  1  0  0  0  0
  5 23  1  0  0  0  0
  6 24  1  0  0  0  0
  6 25  1  0  0  0  0
  6 26  1  0  0  0  0
  7 27  1  0  0  0  0
  7 28  1  0  0  0  0
  7 29  1  0  0  0  0
  8 30  1  0  0  0  0
  8 31  1  0  0  0  0
  8 32  1  0  0  0  0
  9 33  1  0  0  0  0
  9 34  1  0  0  0  0
  9 35  1  0  0  0  0
 10 36  1  0  0  0  0
 11 37  1  0  0  0  0
 14 38  1  0  0  0  0
M  END
> <Catalog ID>
Z1065887986

> <PlateID>
1337959-R-13

> <Well>
H06

> <MW (desalted)>
259.368

> <CLogP>
0.469

> <HBD>
1

> <TPSA>
63.990

> <RotBonds>
3

> <ROCS_ShapeQuery>
x0446_0A_x1080_0A_x0929_0A_x0812_0A_x0719_0A_x1140_0A_x0528_0A_x0310_0A

> <ROCS_TanimotoCombo>
0.347 

> <ROCS_ShapeTanimoto>
0.215 

> <ROCS_ColorTanimoto>
0.133 

> <ROCS_RefTversky>
0.196 

> <ROCS_RefColorTversky>
0.145 

> <ROCS_RefTverskyCombo>
0.341 

> <ROCS_FitTversky>
1.789 

> <ROCS_FitColorTversky>
0.608 

> <ROCS_FitTverskyCombo>
2.398 

> <ROCS_ColorScore>
-5.178

> <ROCS_Overlap>
2313.797

> <ROCS_Rank>
55                  

$$$$
untitled-dbase-41_8
  -OEChem-02082415003D

 25 26  0     0  0  0  0  0  0999 V2000
   13.2072   14.8710   22.6501 C   0  0  0  0  0  0  0  0  0  0  0  0
   12.4214   13.7394   22.4620 C   0  0  0  0  0  0  0  0  0  0  0  0
    8.4976   12.7812   23.6070 C   0  0  0  0  0  0  0  0  0  0  0  0
    9.7438   10.7296   23.3341 C   0  0  0  0  0  0  0  0  0  0  0  0
    8.0169   10.8792   25.0171 C   0  0  0  0  0  0  0  0  0  0  0  0
   12.6191   16.1095   22.4499 C   0  0  0  0  0  0  0  0  0  0  0  0
   11.0904   13.8789   22.0849 C   0  0  0  0  0  0  0  0  0  0  0  0
    9.4887   12.0475   22.9551 C   0  0  0  0  0  0  0  0  0  0  0  0
    7.7617   12.1971   24.6381 C   0  0  0  0  0  0  0  0  0  0  0  0
    9.0080   10.1454   24.3651 C   0  0  0  0  0  0  0  0  0  0  0  0
   10.5970   15.1619   21.9102 C   0  0  0  0  0  0  0  0  0  0  0  0
   10.2559   12.6565   21.8802 C   0  0  0  0  0  0  0  0  0  0  0  0
   11.3297   16.2847   22.0834 N   0  0  0  0  0  0  0  0  0  0  0  0
    9.2415   15.3124   21.5231 N   0  0  0  0  0  0  0  0  0  0  0  0
   10.2356   12.1654   20.7418 O   0  0  0  0  0  0  0  0  0  0  0  0
    6.8100   12.9016   25.2643 F   0  0  0  0  0  0  0  0  0  0  0  0
    9.2529    8.8798   24.7292 F   0  0  0  0  0  0  0  0  0  0  0  0
   14.2475   14.7859   22.9424 H   0  0  0  0  0  0  0  0  0  0  0  0
   12.8571   12.7551   22.6118 H   0  0  0  0  0  0  0  0  0  0  0  0
    8.2901   13.8088   23.3202 H   0  0  0  0  0  0  0  0  0  0  0  0
   10.5136   10.1484   22.8332 H   0  0  0  0  0  0  0  0  0  0  0  0
    7.4440   10.4244   25.8197 H   0  0  0  0  0  0  0  0  0  0  0  0
   13.1894   17.0229   22.5836 H   0  0  0  0  0  0  0  0  0  0  0  0
    8.6997   14.4958   21.3430 H   0  0  0  0  0  0  0  0  0  0  0  0
    8.8906   16.2286   21.3492 H   0  0  0  0  0  0  0  0  0  0  0  0
  1  2  1  0  0  0  0
  1  6  2  0  0  0  0
  2  7  2  0  0  0  0
  3  8  2  0  0  0  0
  3  9  1  0  0  0  0
  4  8  1  0  0  0  0
  4 10  2  0  0  0  0
  5  9  2  0  0  0  0
  5 10  1  0  0  0  0
  6 13  1  0  0  0  0
  7 11  1  0  0  0  0
  7 12  1  0  0  0  0
  8 12  1  0  0  0  0
  9 16  1  0  0  0  0
 10 17  1  0  0  0  0
 11 13  2  0  0  0  0
 11 14  1  0  0  0  0
 12 15  2  0  0  0  0
  1 18  1  0  0  0  0
  2 19  1  0  0  0  0
  3 20  1  0  0  0  0
  4 21  1  0  0  0  0
  5 22  1  0  0  0  0
  6 23  1  0  0  0  0
 14 24  1  0  0  0  0
 14 25  1  0  0  0  0
M  END
> <Catalog ID>
Z1192043634

> <PlateID>
1337959-R-01

> <Well>
F11

> <MW (desalted)>
234.202

> <CLogP>
2.805

> <HBD>
1

> <TPSA>
55.980

> <RotBonds>
2

> <ROCS_ShapeQuery>
x0446_0A_x1080_0A_x0929_0A_x0812_0A_x0719_0A_x1140_0A_x0528_0A_x0310_0A

> <ROCS_TanimotoCombo>
0.347 

> <ROCS_ShapeTanimoto>
0.217 

> <ROCS_ColorTanimoto>
0.130 

> <ROCS_RefTversky>
0.199 

> <ROCS_RefColorTversky>
0.139 

> <ROCS_RefTverskyCombo>
0.339 

> <ROCS_FitTversky>
1.736 

> <ROCS_FitColorTversky>
0.657 

> <ROCS_FitTverskyCombo>
2.392 

> <ROCS_ColorScore>
-4.968

> <ROCS_Overlap>
2349.502

> <ROCS_Rank>
56                  

$$$$
untitled-dbase-512_2
  -OEChem-02082415003D

 33 34  0     0  0  0  0  0  0999 V2000
    5.5428   11.9958   25.2495 C   0  0  0  0  0  0  0  0  0  0  0  0
    6.2564   10.9200   24.9023 C   0  0  0  0  0  0  0  0  0  0  0  0
    6.0806   13.3180   25.0918 C   0  0  0  0  0  0  0  0  0  0  0  0
    9.5635   10.2459   23.5045 C   0  0  0  0  0  0  0  0  0  0  0  0
    7.3104   13.4833   24.5922 C   0  0  0  0  0  0  0  0  0  0  0  0
   10.1415   11.4388   23.3245 C   0  0  0  0  0  0  0  0  0  0  0  0
    7.6306   11.0918   24.3435 C   0  0  0  0  0  0  0  0  0  0  0  0
    9.3834   12.6609   23.6969 C   0  0  0  0  0  0  0  0  0  0  0  0
   11.4956   11.4697   22.7671 C   0  0  0  0  0  0  0  0  0  0  0  0
   14.4851   10.0946   22.9675 C   0  0  0  0  0  0  0  0  0  0  0  0
   12.2895   12.6955   25.7191 C   0  0  0  0  0  0  0  0  0  0  0  0
   13.9596   11.4676   23.2149 C   0  0  0  0  0  0  0  0  0  0  0  0
   12.3752   11.3398   25.1047 C   0  0  0  0  0  0  0  0  0  0  0  0
    8.3110   10.0353   24.0111 N   0  0  0  0  0  0  0  0  0  0  0  0
    8.1052   12.4070   24.2118 N   0  0  0  0  0  0  0  0  0  0  0  0
   12.5698   11.4272   23.6633 N   0  0  0  0  0  0  0  0  0  0  0  0
    9.8934   13.7687   23.5411 O   0  0  0  0  0  0  0  0  0  0  0  0
   11.6249   11.5439   21.5382 O   0  0  0  0  0  0  0  0  0  0  0  0
    4.5435   11.8932   25.6570 H   0  0  0  0  0  0  0  0  0  0  0  0
    5.8644    9.9160   25.0153 H   0  0  0  0  0  0  0  0  0  0  0  0
    5.4726   14.1662   25.3839 H   0  0  0  0  0  0  0  0  0  0  0  0
   10.0912    9.3334   23.2421 H   0  0  0  0  0  0  0  0  0  0  0  0
    7.7239   14.4783   24.4701 H   0  0  0  0  0  0  0  0  0  0  0  0
   13.8771    9.6025   22.1941 H   0  0  0  0  0  0  0  0  0  0  0  0
   15.5294   10.1575   22.6277 H   0  0  0  0  0  0  0  0  0  0  0  0
   14.4370    9.5105   23.8984 H   0  0  0  0  0  0  0  0  0  0  0  0
   11.4440   13.2451   25.2797 H   0  0  0  0  0  0  0  0  0  0  0  0
   12.1385   12.5972   26.8043 H   0  0  0  0  0  0  0  0  0  0  0  0
   13.2231   13.2446   25.5271 H   0  0  0  0  0  0  0  0  0  0  0  0
   14.5726   11.9527   23.9888 H   0  0  0  0  0  0  0  0  0  0  0  0
   14.0193   12.0483   22.2825 H   0  0  0  0  0  0  0  0  0  0  0  0
   13.2225   10.7971   25.5491 H   0  0  0  0  0  0  0  0  0  0  0  0
   11.4424   10.7937   25.3086 H   0  0  0  0  0  0  0  0  0  0  0  0
  1  2  2  0  0  0  0
  1  3  1  0  0  0  0
  2  7  1  0  0  0  0
  3  5  2  0  0  0  0
  4  6  2  0  0  0  0
  4 14  1  0  0  0  0
  5 15  1  0  0  0  0
  6  8  1  0  0  0  0
  6  9  1  0  0  0  0
  7 14  2  0  0  0  0
  7 15  1  0  0  0  0
  8 15  1  0  0  0  0
  8 17  2  0  0  0  0
  9 16  1  0  0  0  0
  9 18  2  0  0  0  0
 10 12  1  0  0  0  0
 11 13  1  0  0  0  0
 12 16  1  0  0  0  0
 13 16  1  0  0  0  0
  1 19  1  0  0  0  0
  2 20  1  0  0  0  0
  3 21  1  0  0  0  0
  4 22  1  0  0  0  0
  5 23  1  0  0  0  0
 10 24  1  0  0  0  0
 10 25  1  0  0  0  0
 10 26  1  0  0  0  0
 11 27  1  0  0  0  0
 11 28  1  0  0  0  0
 11 29  1  0  0  0  0
 12 30  1  0  0  0  0
 12 31  1  0  0  0  0
 13 32  1  0  0  0  0
 13 33  1  0  0  0  0
M  END
> <Catalog ID>
Z240162048

> <PlateID>
1337959-R-12

> <Well>
B05

> <MW (desalted)>
245.277

> <CLogP>
0.059

> <HBD>
0

> <TPSA>
52.980

> <RotBonds>
3

> <ROCS_ShapeQuery>
x0446_0A_x1080_0A_x0929_0A_x0812_0A_x0719_0A_x1140_0A_x0528_0A_x0310_0A

> <ROCS_TanimotoCombo>
0.347 

> <ROCS_ShapeTanimoto>
0.214 

> <ROCS_ColorTanimoto>
0.133 

> <ROCS_RefTversky>
0.197 

> <ROCS_RefColorTversky>
0.139 

> <ROCS_RefTverskyCombo>
0.337 

> <ROCS_FitTversky>
1.672 

> <ROCS_FitColorTversky>
0.750 

> <ROCS_FitTverskyCombo>
2.421 

> <ROCS_ColorScore>
-4.960

> <ROCS_Overlap>
2327.066

> <ROCS_Rank>
57                  

$$$$
untitled-dbase-488_1
  -OEChem-02082415003D

 24 25  0     0  0  0  0  0  0999 V2000
    9.6405   10.5571   23.2592 C   0  0  0  0  0  0  0  0  0  0  0  0
   10.5028   11.6285   23.0263 C   0  0  0  0  0  0  0  0  0  0  0  0
    8.4104   10.7741   23.8801 C   0  0  0  0  0  0  0  0  0  0  0  0
    8.9050   13.1338   24.0353 C   0  0  0  0  0  0  0  0  0  0  0  0
   12.8681   15.0953   23.3809 C   0  0  0  0  0  0  0  0  0  0  0  0
   10.1351   12.9168   23.4144 C   0  0  0  0  0  0  0  0  0  0  0  0
    8.0427   12.0625   24.2682 C   0  0  0  0  0  0  0  0  0  0  0  0
   11.0280   14.0241   23.1747 C   0  0  0  0  0  0  0  0  0  0  0  0
   10.9747   15.2020   22.4717 C   0  0  0  0  0  0  0  0  0  0  0  0
    9.8792   15.6970   21.6959 C   0  0  0  0  0  0  0  0  0  0  0  0
    6.7282   12.2937   24.9337 C   0  0  0  0  0  0  0  0  0  0  0  0
   12.1566   15.8842   22.6078 N   0  0  0  0  0  0  0  0  0  0  0  0
    8.7773   15.1329   21.5279 O   0  0  0  0  0  0  0  0  0  0  0  0
   12.2517   13.9451   23.7680 O   0  0  0  0  0  0  0  0  0  0  0  0
   10.1313   16.9104   21.1107 O   0  0  0  0  0  0  0  0  0  0  0  0
    5.9902   11.1560   25.0982 F   0  0  0  0  0  0  0  0  0  0  0  0
    6.8358   12.8321   26.1844 F   0  0  0  0  0  0  0  0  0  0  0  0
    5.9288   13.1505   24.2338 F   0  0  0  0  0  0  0  0  0  0  0  0
    9.9260    9.5539   22.9568 H   0  0  0  0  0  0  0  0  0  0  0  0
   11.4579   11.4427   22.5408 H   0  0  0  0  0  0  0  0  0  0  0  0
    7.7451    9.9336   24.0575 H   0  0  0  0  0  0  0  0  0  0  0  0
    8.6125   14.1364   24.3413 H   0  0  0  0  0  0  0  0  0  0  0  0
   13.8740   15.2486   23.7428 H   0  0  0  0  0  0  0  0  0  0  0  0
    9.3857   17.2590   20.5770 H   0  0  0  0  0  0  0  0  0  0  0  0
  1  2  1  0  0  0  0
  1  3  2  0  0  0  0
  2  6  2  0  0  0  0
  3  7  1  0  0  0  0
  4  6  1  0  0  0  0
  4  7  2  0  0  0  0
  5 12  2  0  0  0  0
  5 14  1  0  0  0  0
  6  8  1  0  0  0  0
  7 11  1  0  0  0  0
  8  9  2  0  0  0  0
  8 14  1  0  0  0  0
  9 10  1  0  0  0  0
  9 12  1  0  0  0  0
 10 13  2  0  0  0  0
 10 15  1  0  0  0  0
 11 16  1  0  0  0  0
 11 17  1  0  0  0  0
 11 18  1  0  0  0  0
  1 19  1  0  0  0  0
  2 20  1  0  0  0  0
  3 21  1  0  0  0  0
  4 22  1  0  0  0  0
  5 23  1  0  0  0  0
 15 24  1  0  0  0  0
M  END
> <Catalog ID>
Z838909264

> <PlateID>
1337959-R-11

> <Well>
F08

> <MW (desalted)>
257.165

> <CLogP>
2.371

> <HBD>
1

> <TPSA>
63.330

> <RotBonds>
3

> <ROCS_ShapeQuery>
x0446_0A_x1080_0A_x0929_0A_x0812_0A_x0719_0A_x1140_0A_x0528_0A_x0310_0A

> <ROCS_TanimotoCombo>
0.347 

> <ROCS_ShapeTanimoto>
0.231 

> <ROCS_ColorTanimoto>
0.116 

> <ROCS_RefTversky>
0.210 

> <ROCS_RefColorTversky>
0.126 

> <ROCS_RefTverskyCombo>
0.336 

> <ROCS_FitTversky>
1.753 

> <ROCS_FitColorTversky>
0.595 

> <ROCS_FitTverskyCombo>
2.348 

> <ROCS_ColorScore>
-4.503

> <ROCS_Overlap>
2477.037

> <ROCS_Rank>
58                  

$$$$
untitled-dbase-594_94
  -OEChem-02082415003D

 39 40  0     1  0  0  0  0  0999 V2000
    8.6860   12.1965   24.0423 C   0  0  0  0  0  0  0  0  0  0  0  0
    8.6956   11.0880   24.9065 C   0  0  0  0  0  0  0  0  0  0  0  0
    8.5279   11.6401   22.8007 C   0  0  0  0  0  0  0  0  0  0  0  0
    9.3258   14.9211   22.2968 C   0  0  0  0  0  0  0  0  0  0  0  0
   13.0356   15.0180   23.2462 C   0  0  0  0  0  0  0  0  0  0  0  0
   13.5367   14.8006   21.8220 C   0  0  0  0  0  0  0  0  0  0  0  0
   11.5626   15.4146   23.2385 C   0  0  0  0  0  0  0  0  0  0  0  0
   12.6357   13.8310   21.0597 C   0  0  0  0  0  0  0  0  0  0  0  0
   10.7303   14.4221   22.4254 C   0  0  2  0  0  0  0  0  0  0  0  0
    8.8377   11.0806   26.3723 C   0  0  0  0  0  0  0  0  0  0  0  0
    8.4325   12.1893   21.4418 C   0  0  0  0  0  0  0  0  0  0  0  0
    7.0276   14.9297   23.2787 C   0  0  0  0  0  0  0  0  0  0  0  0
    8.8177   13.6507   24.3917 C   0  0  0  0  0  0  0  0  0  0  0  0
    8.5543    9.9325   24.2510 N   0  0  0  0  0  0  0  0  0  0  0  0
   11.2409   14.2759   21.0621 N   0  0  0  0  0  0  0  0  0  0  0  0
    8.4252   14.5170   23.2830 N   0  0  0  0  0  0  0  0  0  0  0  0
    9.0312   15.6512   21.3467 O   0  0  0  0  0  0  0  0  0  0  0  0
    8.4480   10.2895   22.9121 O   0  0  0  0  0  0  0  0  0  0  0  0
   13.1637   14.0947   23.8247 H   0  0  0  0  0  0  0  0  0  0  0  0
   13.6309   15.7934   23.7404 H   0  0  0  0  0  0  0  0  0  0  0  0
   13.5712   15.7629   21.2956 H   0  0  0  0  0  0  0  0  0  0  0  0
   14.5613   14.4130   21.8465 H   0  0  0  0  0  0  0  0  0  0  0  0
   11.1882   15.4643   24.2680 H   0  0  0  0  0  0  0  0  0  0  0  0
   11.4617   16.4275   22.8259 H   0  0  0  0  0  0  0  0  0  0  0  0
   12.9807   13.7495   20.0232 H   0  0  0  0  0  0  0  0  0  0  0  0
   12.7049   12.8263   21.4937 H   0  0  0  0  0  0  0  0  0  0  0  0
   10.6906   13.4509   22.9216 H   0  0  0  0  0  0  0  0  0  0  0  0
    7.8552   11.1472   26.8704 H   0  0  0  0  0  0  0  0  0  0  0  0
    9.3346   10.1646   26.7387 H   0  0  0  0  0  0  0  0  0  0  0  0
    9.4525   11.9234   26.7360 H   0  0  0  0  0  0  0  0  0  0  0  0
    9.4273   12.2721   20.9681 H   0  0  0  0  0  0  0  0  0  0  0  0
    7.8034   11.5661   20.7789 H   0  0  0  0  0  0  0  0  0  0  0  0
    7.9756   13.1967   21.4259 H   0  0  0  0  0  0  0  0  0  0  0  0
    6.4309   14.1995   22.7124 H   0  0  0  0  0  0  0  0  0  0  0  0
    6.6576   14.9818   24.3133 H   0  0  0  0  0  0  0  0  0  0  0  0
    6.9392   15.9196   22.8073 H   0  0  0  0  0  0  0  0  0  0  0  0
    8.1882   13.8994   25.2531 H   0  0  0  0  0  0  0  0  0  0  0  0
    9.8499   13.8983   24.6609 H   0  0  0  0  0  0  0  0  0  0  0  0
   11.1898   15.1775   20.5859 H   0  0  0  0  0  0  0  0  0  0  0  0
  1  2  1  0  0  0  0
  1  3  2  0  0  0  0
  1 13  1  0  0  0  0
  2 10  1  0  0  0  0
  2 14  2  0  0  0  0
  3 11  1  0  0  0  0
  3 18  1  0  0  0  0
  4  9  1  6  0  0  0
  4 16  1  0  0  0  0
  4 17  2  0  0  0  0
  5  6  1  0  0  0  0
  5  7  1  0  0  0  0
  6  8  1  0  0  0  0
  7  9  1  0  0  0  0
  8 15  1  0  0  0  0
  9 15  1  0  0  0  0
 12 16  1  0  0  0  0
 13 16  1  0  0  0  0
 14 18  1  0  0  0  0
  5 19  1  0  0  0  0
  5 20  1  0  0  0  0
  6 21  1  0  0  0  0
  6 22  1  0  0  0  0
  7 23  1  0  0  0  0
  7 24  1  0  0  0  0
  8 25  1  0  0  0  0
  8 26  1  0  0  0  0
  9 27  1  0  0  0  0
 10 28  1  0  0  0  0
 10 29  1  0  0  0  0
 10 30  1  0  0  0  0
 11 31  1  0  0  0  0
 11 32  1  0  0  0  0
 11 33  1  0  0  0  0
 12 34  1  0  0  0  0
 12 35  1  0  0  0  0
 12 36  1  0  0  0  0
 13 37  1  0  0  0  0
 13 38  1  0  0  0  0
 15 39  1  0  0  0  0
M  END
> <Catalog ID>
Z1455719873

> <PlateID>
1337959-R-13

> <Well>
G08

> <MW (desalted)>
251.325

> <CLogP>
0.518

> <HBD>
1

> <TPSA>
58.370

> <RotBonds>
3

> <ROCS_ShapeQuery>
x0446_0A_x1080_0A_x0929_0A_x0812_0A_x0719_0A_x1140_0A_x0528_0A_x0310_0A

> <ROCS_TanimotoCombo>
0.346 

> <ROCS_ShapeTanimoto>
0.196 

> <ROCS_ColorTanimoto>
0.150 

> <ROCS_RefTversky>
0.183 

> <ROCS_RefColorTversky>
0.158 

> <ROCS_RefTverskyCombo>
0.341 

> <ROCS_FitTversky>
1.578 

> <ROCS_FitColorTversky>
0.745 

> <ROCS_FitTverskyCombo>
2.323 

> <ROCS_ColorScore>
-5.633

> <ROCS_Overlap>
2159.049

> <ROCS_Rank>
59                  

$$$$
untitled-dbase-253_0
  -OEChem-02082415003D

 29 31  0     1  0  0  0  0  0999 V2000
    8.0241   10.3231   23.1715 C   0  0  0  0  0  0  0  0  0  0  0  0
    9.4914   10.0538   23.5308 C   0  0  0  0  0  0  0  0  0  0  0  0
    8.6484   11.6689   25.0362 C   0  0  0  0  0  0  0  0  0  0  0  0
    8.4623   12.7833   22.9361 C   0  0  0  0  0  0  0  0  0  0  0  0
   11.5756   14.5882   22.0137 C   0  0  0  0  0  0  0  0  0  0  0  0
   10.8413   12.3098   22.0065 C   0  0  0  0  0  0  0  0  0  0  0  0
   10.6885   14.8534   23.2186 C   0  0  0  0  0  0  0  0  0  0  0  0
    7.7643   11.7066   23.7928 C   0  0  1  0  0  0  0  0  0  0  0  0
    9.9169   11.3549   24.2308 C   0  0  2  0  0  0  0  0  0  0  0  0
    9.9682   12.5616   23.2461 C   0  0  2  0  0  0  0  0  0  0  0  0
   10.9944   13.5233   21.1997 N   0  0  0  0  0  0  0  0  0  0  0  0
   10.5120   13.6673   23.9933 O   0  0  0  0  0  0  0  0  0  0  0  0
    7.8556   10.3109   22.0901 H   0  0  0  0  0  0  0  0  0  0  0  0
    7.3798    9.5622   23.6259 H   0  0  0  0  0  0  0  0  0  0  0  0
    9.5519    9.2103   24.2294 H   0  0  0  0  0  0  0  0  0  0  0  0
   10.0979    9.7953   22.6599 H   0  0  0  0  0  0  0  0  0  0  0  0
    8.6897   12.6239   25.5699 H   0  0  0  0  0  0  0  0  0  0  0  0
    8.3739   10.8734   25.7375 H   0  0  0  0  0  0  0  0  0  0  0  0
    8.2187   12.6559   21.8762 H   0  0  0  0  0  0  0  0  0  0  0  0
    8.1188   13.7732   23.2543 H   0  0  0  0  0  0  0  0  0  0  0  0
   11.6787   15.4970   21.4121 H   0  0  0  0  0  0  0  0  0  0  0  0
   12.5813   14.2934   22.3357 H   0  0  0  0  0  0  0  0  0  0  0  0
   11.8354   11.9575   22.3090 H   0  0  0  0  0  0  0  0  0  0  0  0
   10.4090   11.5361   21.3643 H   0  0  0  0  0  0  0  0  0  0  0  0
   11.1609   15.5986   23.8669 H   0  0  0  0  0  0  0  0  0  0  0  0
    9.7160   15.2591   22.9200 H   0  0  0  0  0  0  0  0  0  0  0  0
    6.7070   11.9123   23.9709 H   0  0  0  0  0  0  0  0  0  0  0  0
   10.8123   11.2523   24.8495 H   0  0  0  0  0  0  0  0  0  0  0  0
   10.0786   13.8209   20.8635 H   0  0  0  0  0  0  0  0  0  0  0  0
  1  2  1  0  0  0  0
  1  8  1  0  0  0  0
  2  9  1  0  0  0  0
  3  8  1  0  0  0  0
  3  9  1  0  0  0  0
  4  8  1  0  0  0  0
  4 10  1  0  0  0  0
  5  7  1  0  0  0  0
  5 11  1  0  0  0  0
  6 10  1  0  0  0  0
  6 11  1  0  0  0  0
  7 12  1  0  0  0  0
  9 10  1  0  0  0  0
 10 12  1  0  0  0  0
  1 13  1  0  0  0  0
  1 14  1  0  0  0  0
  2 15  1  0  0  0  0
  2 16  1  0  0  0  0
  3 17  1  0  0  0  0
  3 18  1  0  0  0  0
  4 19  1  0  0  0  0
  4 20  1  0  0  0  0
  5 21  1  0  0  0  0
  5 22  1  0  0  0  0
  6 23  1  0  0  0  0
  6 24  1  0  0  0  0
  7 25  1  0  0  0  0
  7 26  1  0  0  0  0
  8 27  1  0  0  0  0
  9 28  1  0  0  0  0
 11 29  1  0  0  0  0
M  END
> <Catalog ID>
Z1460827472

> <PlateID>
1337959-R-06

> <Well>
A05

> <MW (desalted)>
167.248

> <CLogP>
1.338

> <HBD>
1

> <TPSA>
21.260

> <RotBonds>
0

> <ROCS_ShapeQuery>
x0446_0A_x1080_0A_x0929_0A_x0812_0A_x0719_0A_x1140_0A_x0528_0A_x0310_0A

> <ROCS_TanimotoCombo>
0.346 

> <ROCS_ShapeTanimoto>
0.185 

> <ROCS_ColorTanimoto>
0.161 

> <ROCS_RefTversky>
0.171 

> <ROCS_RefColorTversky>
0.184 

> <ROCS_RefTverskyCombo>
0.355 

> <ROCS_FitTversky>
1.780 

> <ROCS_FitColorTversky>
0.566 

> <ROCS_FitTverskyCombo>
2.346 

> <ROCS_ColorScore>
-6.586

> <ROCS_Overlap>
2015.737

> <ROCS_Rank>
60                  

$$$$
untitled-dbase-354_14
  -OEChem-02082415003D

 28 30  0     1  0  0  0  0  0999 V2000
    5.5717   12.1030   25.4859 C   0  0  0  0  0  0  0  0  0  0  0  0
    5.8238   13.2320   24.6904 C   0  0  0  0  0  0  0  0  0  0  0  0
    6.5060   11.0685   25.5686 C   0  0  0  0  0  0  0  0  0  0  0  0
    7.0087   13.3383   23.9586 C   0  0  0  0  0  0  0  0  0  0  0  0
    7.6735   11.1769   24.8317 C   0  0  0  0  0  0  0  0  0  0  0  0
    7.9081   12.2864   24.0207 C   0  0  0  0  0  0  0  0  0  0  0  0
   11.1073   14.8304   21.0948 C   0  0  0  0  0  0  0  0  0  0  0  0
   10.6389   14.0632   22.0687 C   0  0  0  0  0  0  0  0  0  0  0  0
    8.8399   10.2423   24.8163 C   0  0  0  0  0  0  0  0  0  0  0  0
   11.3581   14.4459   23.2917 C   0  0  0  0  0  0  0  0  0  0  0  0
    9.6800   10.7827   23.6459 C   0  0  0  0  0  0  0  0  0  0  0  0
   12.0715   15.6929   21.5456 N   0  0  0  0  0  0  0  0  0  0  0  0
   12.2583   15.5217   22.7881 N   0  0  0  0  0  0  0  0  0  0  0  0
    9.2062   12.1904   23.4194 N   0  0  1  0  0  0  0  0  0  0  0  0
    8.1767   13.5319   21.4969 O   0  0  0  0  0  0  0  0  0  0  0  0
    9.9471   11.8184   20.9949 O   0  0  0  0  0  0  0  0  0  0  0  0
    9.4109   12.8527   21.8699 S   0  0  0  0  0  0  0  0  0  0  0  0
    4.6345   12.0278   26.0306 H   0  0  0  0  0  0  0  0  0  0  0  0
    5.0832   14.0254   24.6364 H   0  0  0  0  0  0  0  0  0  0  0  0
    6.3112   10.1986   26.1866 H   0  0  0  0  0  0  0  0  0  0  0  0
    7.2014   14.2250   23.3655 H   0  0  0  0  0  0  0  0  0  0  0  0
   10.8099   14.8260   20.0571 H   0  0  0  0  0  0  0  0  0  0  0  0
    9.4043   10.2583   25.7530 H   0  0  0  0  0  0  0  0  0  0  0  0
    8.4974    9.2228   24.6098 H   0  0  0  0  0  0  0  0  0  0  0  0
   10.6900   14.8474   24.0591 H   0  0  0  0  0  0  0  0  0  0  0  0
   11.9517   13.6232   23.7007 H   0  0  0  0  0  0  0  0  0  0  0  0
   10.7421   10.7901   23.9202 H   0  0  0  0  0  0  0  0  0  0  0  0
    9.5494   10.1786   22.7433 H   0  0  0  0  0  0  0  0  0  0  0  0
  1  2  1  0  0  0  0
  1  3  2  0  0  0  0
  2  4  2  0  0  0  0
  3  5  1  0  0  0  0
  4  6  1  0  0  0  0
  5  6  2  0  0  0  0
  5  9  1  0  0  0  0
  6 14  1  0  0  0  0
  7  8  2  0  0  0  0
  7 12  1  0  0  0  0
  8 10  1  0  0  0  0
  8 17  1  0  0  0  0
  9 11  1  0  0  0  0
 10 13  1  0  0  0  0
 11 14  1  0  0  0  0
 12 13  2  0  0  0  0
 14 17  1  0  0  0  0
 15 17  2  0  0  0  0
 16 17  2  0  0  0  0
  1 18  1  0  0  0  0
  2 19  1  0  0  0  0
  3 20  1  0  0  0  0
  4 21  1  0  0  0  0
  7 22  1  0  0  0  0
  9 23  1  0  0  0  0
  9 24  1  0  0  0  0
 10 25  1  0  0  0  0
 10 26  1  0  0  0  0
 11 27  1  0  0  0  0
 11 28  1  0  0  0  0
M  END
> <Catalog ID>
Z605849578

> <PlateID>
1337959-R-08

> <Well>
F04

> <MW (desalted)>
249.289

> <CLogP>
1.550

> <HBD>
1

> <TPSA>
66.060

> <RotBonds>
1

> <ROCS_ShapeQuery>
x0446_0A_x1080_0A_x0929_0A_x0812_0A_x0719_0A_x1140_0A_x0528_0A_x0310_0A

> <ROCS_TanimotoCombo>
0.346 

> <ROCS_ShapeTanimoto>
0.220 

> <ROCS_ColorTanimoto>
0.126 

> <ROCS_RefTversky>
0.201 

> <ROCS_RefColorTversky>
0.136 

> <ROCS_RefTverskyCombo>
0.336 

> <ROCS_FitTversky>
1.762 

> <ROCS_FitColorTversky>
0.638 

> <ROCS_FitTverskyCombo>
2.400 

> <ROCS_ColorScore>
-4.833

> <ROCS_Overlap>
2368.728

> <ROCS_Rank>
61                  

$$$$
untitled-dbase-525_9
  -OEChem-02082415003D

 34 36  0     0  0  0  0  0  0999 V2000
    5.5926   12.6152   25.1690 C   0  0  0  0  0  0  0  0  0  0  0  0
    5.8485   11.4266   25.8498 C   0  0  0  0  0  0  0  0  0  0  0  0
    6.5015   13.1114   24.2274 C   0  0  0  0  0  0  0  0  0  0  0  0
    7.0172   10.6974   25.6125 C   0  0  0  0  0  0  0  0  0  0  0  0
    9.6686   11.5429   23.2949 C   0  0  0  0  0  0  0  0  0  0  0  0
    7.6866   12.3935   23.9715 C   0  0  0  0  0  0  0  0  0  0  0  0
    8.8002   12.5936   23.1084 C   0  0  0  0  0  0  0  0  0  0  0  0
    7.9167   11.2055   24.6686 C   0  0  0  0  0  0  0  0  0  0  0  0
    9.0336   13.7019   22.1680 C   0  0  0  0  0  0  0  0  0  0  0  0
   10.8078   15.1109   21.1897 C   0  0  0  0  0  0  0  0  0  0  0  0
   10.7752   14.8150   23.6482 C   0  0  0  0  0  0  0  0  0  0  0  0
   12.2877   15.3403   21.4590 C   0  0  0  0  0  0  0  0  0  0  0  0
   11.4919   16.1573   23.5785 C   0  0  0  0  0  0  0  0  0  0  0  0
    9.7504    9.4907   24.7030 C   0  0  0  0  0  0  0  0  0  0  0  0
    9.1270   10.7108   24.2376 N   0  0  0  0  0  0  0  0  0  0  0  0
   10.1711   14.4911   22.3502 N   0  0  0  0  0  0  0  0  0  0  0  0
    8.2016   13.8549   21.2747 O   0  0  0  0  0  0  0  0  0  0  0  0
   12.5225   16.1839   22.5889 O   0  0  0  0  0  0  0  0  0  0  0  0
    4.6768   13.1647   25.3706 H   0  0  0  0  0  0  0  0  0  0  0  0
    5.1288   11.0596   26.5771 H   0  0  0  0  0  0  0  0  0  0  0  0
    6.2874   14.0395   23.7050 H   0  0  0  0  0  0  0  0  0  0  0  0
    7.2112    9.7725   26.1454 H   0  0  0  0  0  0  0  0  0  0  0  0
   10.6234   11.3174   22.8378 H   0  0  0  0  0  0  0  0  0  0  0  0
   10.3283   16.0531   20.9085 H   0  0  0  0  0  0  0  0  0  0  0  0
   10.6821   14.4082   20.3558 H   0  0  0  0  0  0  0  0  0  0  0  0
   11.4912   14.0144   23.8632 H   0  0  0  0  0  0  0  0  0  0  0  0
   10.0223   14.8222   24.4403 H   0  0  0  0  0  0  0  0  0  0  0  0
   12.7827   14.3744   21.6626 H   0  0  0  0  0  0  0  0  0  0  0  0
   12.7958   15.7679   20.5730 H   0  0  0  0  0  0  0  0  0  0  0  0
   10.7787   16.9841   23.3893 H   0  0  0  0  0  0  0  0  0  0  0  0
   11.9643   16.3770   24.5532 H   0  0  0  0  0  0  0  0  0  0  0  0
   10.3804    9.7399   25.5610 H   0  0  0  0  0  0  0  0  0  0  0  0
    8.9768    8.7739   24.9922 H   0  0  0  0  0  0  0  0  0  0  0  0
   10.3524    9.0622   23.8969 H   0  0  0  0  0  0  0  0  0  0  0  0
  1  2  2  0  0  0  0
  1  3  1  0  0  0  0
  2  4  1  0  0  0  0
  3  6  2  0  0  0  0
  4  8  2  0  0  0  0
  5  7  2  0  0  0  0
  5 15  1  0  0  0  0
  6  7  1  0  0  0  0
  6  8  1  0  0  0  0
  7  9  1  0  0  0  0
  8 15  1  0  0  0  0
  9 16  1  0  0  0  0
  9 17  2  0  0  0  0
 10 12  1  0  0  0  0
 10 16  1  0  0  0  0
 11 13  1  0  0  0  0
 11 16  1  0  0  0  0
 12 18  1  0  0  0  0
 13 18  1  0  0  0  0
 14 15  1  0  0  0  0
  1 19  1  0  0  0  0
  2 20  1  0  0  0  0
  3 21  1  0  0  0  0
  4 22  1  0  0  0  0
  5 23  1  0  0  0  0
 10 24  1  0  0  0  0
 10 25  1  0  0  0  0
 11 26  1  0  0  0  0
 11 27  1  0  0  0  0
 12 28  1  0  0  0  0
 12 29  1  0  0  0  0
 13 30  1  0  0  0  0
 13 31  1  0  0  0  0
 14 32  1  0  0  0  0
 14 33  1  0  0  0  0
 14 34  1  0  0  0  0
M  END
> <Catalog ID>
Z100525310

> <PlateID>
1337959-R-12

> <Well>
D05

> <MW (desalted)>
244.289

> <CLogP>
1.411

> <HBD>
0

> <TPSA>
34.470

> <RotBonds>
1

> <ROCS_ShapeQuery>
x0446_0A_x1080_0A_x0929_0A_x0812_0A_x0719_0A_x1140_0A_x0528_0A_x0310_0A

> <ROCS_TanimotoCombo>
0.346 

> <ROCS_ShapeTanimoto>
0.220 

> <ROCS_ColorTanimoto>
0.126 

> <ROCS_RefTversky>
0.202 

> <ROCS_RefColorTversky>
0.133 

> <ROCS_RefTverskyCombo>
0.334 

> <ROCS_FitTversky>
1.696 

> <ROCS_FitColorTversky>
0.712 

> <ROCS_FitTverskyCombo>
2.408 

> <ROCS_ColorScore>
-4.718

> <ROCS_Overlap>
2380.492

> <ROCS_Rank>
62                  

$$$$
untitled-dbase-455_28
  -OEChem-02082415003D

 38 39  0     1  0  0  0  0  0999 V2000
   13.3764   15.2838   21.9297 C   0  0  0  0  0  0  0  0  0  0  0  0
   12.7320   15.9339   20.8772 C   0  0  0  0  0  0  0  0  0  0  0  0
   12.6298   14.5961   22.8864 C   0  0  0  0  0  0  0  0  0  0  0  0
   11.3409   15.8964   20.7816 C   0  0  0  0  0  0  0  0  0  0  0  0
   11.2387   14.5586   22.7907 C   0  0  0  0  0  0  0  0  0  0  0  0
   10.5942   15.2088   21.7383 C   0  0  0  0  0  0  0  0  0  0  0  0
   10.4729   13.8299   23.8075 C   0  0  0  0  0  0  0  0  0  0  0  0
    8.4014   10.9484   24.4493 C   0  0  0  0  0  0  0  0  0  0  0  0
    8.4566   12.4375   24.1224 C   0  0  0  0  0  0  0  0  0  0  0  0
    9.9059   11.9421   22.1944 C   0  0  0  0  0  0  0  0  0  0  0  0
    9.8360   10.4452   22.5289 C   0  0  1  0  0  0  0  0  0  0  0  0
   11.0906    9.9693   23.2680 C   0  0  0  0  0  0  0  0  0  0  0  0
    7.1759   16.2398   22.2329 C   0  0  0  0  0  0  0  0  0  0  0  0
    8.5596   16.4369   21.6512 C   0  0  0  0  0  0  0  0  0  0  0  0
    8.6051   10.1194   23.2614 N   0  0  0  0  0  0  0  0  0  0  0  0
    9.6719   12.7681   23.3841 N   0  0  0  0  0  0  0  0  0  0  0  0
   10.6025   14.2171   24.9674 O   0  0  0  0  0  0  0  0  0  0  0  0
    9.2361   15.1819   21.6266 O   0  0  0  0  0  0  0  0  0  0  0  0
   14.4598   15.3132   22.0039 H   0  0  0  0  0  0  0  0  0  0  0  0
   13.3138   16.4696   20.1330 H   0  0  0  0  0  0  0  0  0  0  0  0
   13.1428   14.0927   23.7020 H   0  0  0  0  0  0  0  0  0  0  0  0
   10.8451   16.4049   19.9591 H   0  0  0  0  0  0  0  0  0  0  0  0
    9.1768   10.7071   25.1859 H   0  0  0  0  0  0  0  0  0  0  0  0
    7.4400   10.6976   24.9159 H   0  0  0  0  0  0  0  0  0  0  0  0
    7.5587   12.7205   23.5678 H   0  0  0  0  0  0  0  0  0  0  0  0
    8.4719   13.0289   25.0455 H   0  0  0  0  0  0  0  0  0  0  0  0
   10.8965   12.2140   21.8116 H   0  0  0  0  0  0  0  0  0  0  0  0
    9.1775   12.1886   21.4159 H   0  0  0  0  0  0  0  0  0  0  0  0
    9.8096    9.8811   21.5506 H   0  0  0  0  0  0  0  0  0  0  0  0
   11.1714   10.4812   24.2255 H   0  0  0  0  0  0  0  0  0  0  0  0
   11.9751   10.1869   22.6715 H   0  0  0  0  0  0  0  0  0  0  0  0
   11.0321    8.8959   23.4410 H   0  0  0  0  0  0  0  0  0  0  0  0
    6.5933   15.5412   21.6260 H   0  0  0  0  0  0  0  0  0  0  0  0
    7.2385   15.8529   23.2553 H   0  0  0  0  0  0  0  0  0  0  0  0
    6.6402   17.1935   22.2858 H   0  0  0  0  0  0  0  0  0  0  0  0
    9.1369   17.1366   22.2629 H   0  0  0  0  0  0  0  0  0  0  0  0
    8.4952   16.8227   20.6295 H   0  0  0  0  0  0  0  0  0  0  0  0
    8.6377    9.1312   23.5478 H   0  0  0  0  0  0  0  0  0  0  0  0
  1  2  2  0  0  0  0
  1  3  1  0  0  0  0
  2  4  1  0  0  0  0
  3  5  2  0  0  0  0
  4  6  2  0  0  0  0
  5  6  1  0  0  0  0
  5  7  1  0  0  0  0
  6 18  1  0  0  0  0
  7 16  1  0  0  0  0
  7 17  2  0  0  0  0
  8  9  1  0  0  0  0
  8 15  1  0  0  0  0
  9 16  1  0  0  0  0
 10 11  1  0  0  0  0
 10 16  1  0  0  0  0
 11 12  1  6  0  0  0
 11 15  1  0  0  0  0
 13 14  1  0  0  0  0
 14 18  1  0  0  0  0
  1 19  1  0  0  0  0
  2 20  1  0  0  0  0
  3 21  1  0  0  0  0
  4 22  1  0  0  0  0
  8 23  1  0  0  0  0
  8 24  1  0  0  0  0
  9 25  1  0  0  0  0
  9 26  1  0  0  0  0
 10 27  1  0  0  0  0
 10 28  1  0  0  0  0
 11 29  1  0  0  0  0
 12 30  1  0  0  0  0
 12 31  1  0  0  0  0
 12 32  1  0  0  0  0
 13 33  1  0  0  0  0
 13 34  1  0  0  0  0
 13 35  1  0  0  0  0
 14 36  1  0  0  0  0
 14 37  1  0  0  0  0
 15 38  1  0  0  0  0
M  END
> <Catalog ID>
Z1766224104

> <PlateID>
1337959-R-10

> <Well>
G10

> <MW (desalted)>
248.321

> <CLogP>
2.026

> <HBD>
1

> <TPSA>
41.570

> <RotBonds>
3

> <ROCS_ShapeQuery>
x0446_0A_x1080_0A_x0929_0A_x0812_0A_x0719_0A_x1140_0A_x0528_0A_x0310_0A

> <ROCS_TanimotoCombo>
0.345 

> <ROCS_ShapeTanimoto>
0.208 

> <ROCS_ColorTanimoto>
0.136 

> <ROCS_RefTversky>
0.192 

> <ROCS_RefColorTversky>
0.146 

> <ROCS_RefTverskyCombo>
0.338 

> <ROCS_FitTversky>
1.660 

> <ROCS_FitColorTversky>
0.686 

> <ROCS_FitTverskyCombo>
2.346 

> <ROCS_ColorScore>
-5.187

> <ROCS_Overlap>
2270.740

> <ROCS_Rank>
63                  

$$$$
untitled-dbase-576_24
  -OEChem-02082415003D

 31 32  0     0  0  0  0  0  0999 V2000
    7.6401   11.2909   24.8981 C   0  0  0  0  0  0  0  0  0  0  0  0
    8.5181   12.0770   24.1520 C   0  0  0  0  0  0  0  0  0  0  0  0
    8.5306    9.3034   23.8521 C   0  0  0  0  0  0  0  0  0  0  0  0
    7.6464    9.9040   24.7482 C   0  0  0  0  0  0  0  0  0  0  0  0
    9.4023   11.4763   23.2559 C   0  0  0  0  0  0  0  0  0  0  0  0
    9.4086   10.0895   23.1059 C   0  0  0  0  0  0  0  0  0  0  0  0
   10.6003   16.2000   21.5847 C   0  0  0  0  0  0  0  0  0  0  0  0
   10.8495   13.4998   22.8615 C   0  0  0  0  0  0  0  0  0  0  0  0
   10.8432   17.6870   21.6414 C   0  0  0  0  0  0  0  0  0  0  0  0
   12.9941   16.1982   21.9878 C   0  0  0  0  0  0  0  0  0  0  0  0
    6.7069    9.0635   25.5450 C   0  0  0  0  0  0  0  0  0  0  0  0
   11.7507   14.0191   21.7579 C   0  0  0  0  0  0  0  0  0  0  0  0
   11.7662   15.4699   21.7742 N   0  0  0  0  0  0  0  0  0  0  0  0
   10.2918   12.2764   22.4998 N   0  0  0  0  0  0  0  0  0  0  0  0
    9.4798   15.7361   21.3909 O   0  0  0  0  0  0  0  0  0  0  0  0
   10.6821   14.1122   23.9113 O   0  0  0  0  0  0  0  0  0  0  0  0
   10.2531    9.5016   22.2465 F   0  0  0  0  0  0  0  0  0  0  0  0
   12.5993   17.9482   21.9378 S   0  0  0  0  0  0  0  0  0  0  0  0
    6.9552   11.7676   25.5943 H   0  0  0  0  0  0  0  0  0  0  0  0
    8.5045   13.1568   24.2767 H   0  0  0  0  0  0  0  0  0  0  0  0
    8.5420    8.2239   23.7276 H   0  0  0  0  0  0  0  0  0  0  0  0
   10.5522   18.1403   20.6904 H   0  0  0  0  0  0  0  0  0  0  0  0
   10.2571   18.1211   22.4555 H   0  0  0  0  0  0  0  0  0  0  0  0
   13.4095   15.9262   22.9623 H   0  0  0  0  0  0  0  0  0  0  0  0
   13.7065   15.9432   21.1980 H   0  0  0  0  0  0  0  0  0  0  0  0
    5.7636    8.9256   25.0025 H   0  0  0  0  0  0  0  0  0  0  0  0
    7.1359    8.0747   25.7536 H   0  0  0  0  0  0  0  0  0  0  0  0
    6.4855    9.5247   26.5164 H   0  0  0  0  0  0  0  0  0  0  0  0
   11.3865   13.6681   20.7872 H   0  0  0  0  0  0  0  0  0  0  0  0
   12.7634   13.6349   21.9150 H   0  0  0  0  0  0  0  0  0  0  0  0
   10.5448   11.9016   21.5879 H   0  0  0  0  0  0  0  0  0  0  0  0
  1  2  1  0  0  0  0
  1  4  2  0  0  0  0
  2  5  2  0  0  0  0
  3  4  1  0  0  0  0
  3  6  2  0  0  0  0
  4 11  1  0  0  0  0
  5  6  1  0  0  0  0
  5 14  1  0  0  0  0
  6 17  1  0  0  0  0
  7  9  1  0  0  0  0
  7 13  1  0  0  0  0
  7 15  2  0  0  0  0
  8 12  1  0  0  0  0
  8 14  1  0  0  0  0
  8 16  2  0  0  0  0
  9 18  1  0  0  0  0
 10 13  1  0  0  0  0
 10 18  1  0  0  0  0
 12 13  1  0  0  0  0
  1 19  1  0  0  0  0
  2 20  1  0  0  0  0
  3 21  1  0  0  0  0
  9 22  1  0  0  0  0
  9 23  1  0  0  0  0
 10 24  1  0  0  0  0
 10 25  1  0  0  0  0
 11 26  1  0  0  0  0
 11 27  1  0  0  0  0
 11 28  1  0  0  0  0
 12 29  1  0  0  0  0
 12 30  1  0  0  0  0
 14 31  1  0  0  0  0
M  END
> <Catalog ID>
Z26509549

> <PlateID>
1337959-R-13

> <Well>
E02

> <MW (desalted)>
268.307

> <CLogP>
1.629

> <HBD>
1

> <TPSA>
49.410

> <RotBonds>
3

> <ROCS_ShapeQuery>
x0446_0A_x1080_0A_x0929_0A_x0812_0A_x0719_0A_x1140_0A_x0528_0A_x0310_0A

> <ROCS_TanimotoCombo>
0.344 

> <ROCS_ShapeTanimoto>
0.208 

> <ROCS_ColorTanimoto>
0.136 

> <ROCS_RefTversky>
0.192 

> <ROCS_RefColorTversky>
0.142 

> <ROCS_RefTverskyCombo>
0.334 

> <ROCS_FitTversky>
1.658 

> <ROCS_FitColorTversky>
0.764 

> <ROCS_FitTverskyCombo>
2.422 

> <ROCS_ColorScore>
-5.052

> <ROCS_Overlap>
2264.525

> <ROCS_Rank>
64                  

$$$$
untitled-dbase-535_35
  -OEChem-02082415003D

 40 42  0     0  0  0  0  0  0999 V2000
    7.6039   15.4848   20.0035 C   0  0  0  0  0  0  0  0  0  0  0  0
    8.8965   15.6119   20.4563 C   0  0  0  0  0  0  0  0  0  0  0  0
    6.8850   14.8451   21.0414 C   0  0  0  0  0  0  0  0  0  0  0  0
    7.7897   14.6267   22.0543 C   0  0  0  0  0  0  0  0  0  0  0  0
    7.6449   14.0051   23.3785 C   0  0  0  0  0  0  0  0  0  0  0  0
   11.5963   11.8384   23.8757 C   0  0  0  0  0  0  0  0  0  0  0  0
   11.6572   11.1286   22.5615 C   0  0  0  0  0  0  0  0  0  0  0  0
    8.2863   12.2425   24.9796 C   0  0  0  0  0  0  0  0  0  0  0  0
    9.3340   12.2536   22.6757 C   0  0  0  0  0  0  0  0  0  0  0  0
    7.7290   10.8239   24.8961 C   0  0  0  0  0  0  0  0  0  0  0  0
    9.7480   10.0136   23.8914 C   0  0  0  0  0  0  0  0  0  0  0  0
   10.3247   11.2742   23.2714 C   0  0  0  0  0  0  0  0  0  0  0  0
    5.0927   13.4712   19.9218 C   0  0  0  0  0  0  0  0  0  0  0  0
    4.5238   15.7182   20.9130 C   0  0  0  0  0  0  0  0  0  0  0  0
    5.4545   14.4880   21.0301 C   0  0  0  0  0  0  0  0  0  0  0  0
    8.4227   12.8723   23.6626 N   0  0  0  0  0  0  0  0  0  0  0  0
    6.8402   14.5360   24.1423 O   0  0  0  0  0  0  0  0  0  0  0  0
    9.0181   15.0911   21.7055 O   0  0  0  0  0  0  0  0  0  0  0  0
    8.3205   10.0225   23.8765 O   0  0  0  0  0  0  0  0  0  0  0  0
    7.2302   15.8138   19.0441 H   0  0  0  0  0  0  0  0  0  0  0  0
    9.7998   16.0264   20.0325 H   0  0  0  0  0  0  0  0  0  0  0  0
   12.0271   11.3396   24.7365 H   0  0  0  0  0  0  0  0  0  0  0  0
   11.7384   12.9129   23.8776 H   0  0  0  0  0  0  0  0  0  0  0  0
   11.8402   11.7263   21.6757 H   0  0  0  0  0  0  0  0  0  0  0  0
   12.1344   10.1559   22.5361 H   0  0  0  0  0  0  0  0  0  0  0  0
    7.6047   12.8507   25.5932 H   0  0  0  0  0  0  0  0  0  0  0  0
    9.2668   12.2652   25.4794 H   0  0  0  0  0  0  0  0  0  0  0  0
    9.8482   13.0810   22.1722 H   0  0  0  0  0  0  0  0  0  0  0  0
    8.7495   11.7263   21.9153 H   0  0  0  0  0  0  0  0  0  0  0  0
    7.9388   10.3112   25.8479 H   0  0  0  0  0  0  0  0  0  0  0  0
    6.6309   10.8195   24.7872 H   0  0  0  0  0  0  0  0  0  0  0  0
   10.1390    9.1044   23.4060 H   0  0  0  0  0  0  0  0  0  0  0  0
   10.0458    9.9422   24.9483 H   0  0  0  0  0  0  0  0  0  0  0  0
    5.3384   13.8607   18.9278 H   0  0  0  0  0  0  0  0  0  0  0  0
    4.0263   13.2207   19.9262 H   0  0  0  0  0  0  0  0  0  0  0  0
    5.6559   12.5422   20.0648 H   0  0  0  0  0  0  0  0  0  0  0  0
    4.7418   16.2687   19.9910 H   0  0  0  0  0  0  0  0  0  0  0  0
    4.6489   16.4094   21.7536 H   0  0  0  0  0  0  0  0  0  0  0  0
    3.4702   15.4196   20.8826 H   0  0  0  0  0  0  0  0  0  0  0  0
    5.1661   13.9942   21.9844 H   0  0  0  0  0  0  0  0  0  0  0  0
  1  2  2  0  0  0  0
  1  3  1  0  0  0  0
  2 18  1  0  0  0  0
  3  4  2  0  0  0  0
  3 15  1  0  0  0  0
  4  5  1  0  0  0  0
  4 18  1  0  0  0  0
  5 16  1  0  0  0  0
  5 17  2  0  0  0  0
  6  7  1  0  0  0  0
  6 12  1  0  0  0  0
  7 12  1  0  0  0  0
  8 10  1  0  0  0  0
  8 16  1  0  0  0  0
  9 12  1  0  0  0  0
  9 16  1  0  0  0  0
 10 19  1  0  0  0  0
 11 12  1  0  0  0  0
 11 19  1  0  0  0  0
 13 15  1  0  0  0  0
 14 15  1  0  0  0  0
  1 20  1  0  0  0  0
  2 21  1  0  0  0  0
  6 22  1  0  0  0  0
  6 23  1  0  0  0  0
  7 24  1  0  0  0  0
  7 25  1  0  0  0  0
  8 26  1  0  0  0  0
  8 27  1  0  0  0  0
  9 28  1  0  0  0  0
  9 29  1  0  0  0  0
 10 30  1  0  0  0  0
 10 31  1  0  0  0  0
 11 32  1  0  0  0  0
 11 33  1  0  0  0  0
 13 34  1  0  0  0  0
 13 35  1  0  0  0  0
 13 36  1  0  0  0  0
 14 37  1  0  0  0  0
 14 38  1  0  0  0  0
 14 39  1  0  0  0  0
 15 40  1  0  0  0  0
M  END
> <Catalog ID>
Z2044225387

> <PlateID>
1337959-R-12

> <Well>
F04

> <MW (desalted)>
263.332

> <CLogP>
2.019

> <HBD>
0

> <TPSA>
42.680

> <RotBonds>
2

> <ROCS_ShapeQuery>
x0446_0A_x1080_0A_x0929_0A_x0812_0A_x0719_0A_x1140_0A_x0528_0A_x0310_0A

> <ROCS_TanimotoCombo>
0.343 

> <ROCS_ShapeTanimoto>
0.209 

> <ROCS_ColorTanimoto>
0.134 

> <ROCS_RefTversky>
0.194 

> <ROCS_RefColorTversky>
0.143 

> <ROCS_RefTverskyCombo>
0.337 

> <ROCS_FitTversky>
1.610 

> <ROCS_FitColorTversky>
0.676 

> <ROCS_FitTverskyCombo>
2.286 

> <ROCS_ColorScore>
-5.112

> <ROCS_Overlap>
2287.222

> <ROCS_Rank>
65                  

$$$$
untitled-dbase-409_107
  -OEChem-02082415003D

 33 34  0     0  0  0  0  0  0999 V2000
   11.0763   10.9774   23.1306 C   0  0  0  0  0  0  0  0  0  0  0  0
   10.0931    9.9914   23.0499 C   0  0  0  0  0  0  0  0  0  0  0  0
   10.7643   12.2324   23.6533 C   0  0  0  0  0  0  0  0  0  0  0  0
    8.7977   10.2604   23.4919 C   0  0  0  0  0  0  0  0  0  0  0  0
    5.0985   12.3322   24.5232 C   0  0  0  0  0  0  0  0  0  0  0  0
    6.1798   12.2589   23.6771 C   0  0  0  0  0  0  0  0  0  0  0  0
    9.4690   12.5014   24.0953 C   0  0  0  0  0  0  0  0  0  0  0  0
    8.4857   11.5154   24.0146 C   0  0  0  0  0  0  0  0  0  0  0  0
    6.6923   11.5581   25.7027 C   0  0  0  0  0  0  0  0  0  0  0  0
    7.5118   11.0220   26.8108 C   0  0  0  0  0  0  0  0  0  0  0  0
    7.0511   15.7866   22.7535 C   0  0  0  0  0  0  0  0  0  0  0  0
    9.1657   13.8622   24.6524 C   0  0  0  0  0  0  0  0  0  0  0  0
    5.4241   11.8948   25.7827 N   0  0  0  0  0  0  0  0  0  0  0  0
    7.1933   11.7616   24.4470 N   0  0  0  0  0  0  0  0  0  0  0  0
    9.4213   14.9303   23.6693 N   0  0  0  0  0  0  0  0  0  0  0  0
    8.1653   13.6024   21.8379 O   0  0  0  0  0  0  0  0  0  0  0  0
    9.2006   15.8315   21.2760 O   0  0  0  0  0  0  0  0  0  0  0  0
    8.5275   14.9547   22.2149 S   0  0  0  0  0  0  0  0  0  0  0  0
   12.0850   10.7678   22.7868 H   0  0  0  0  0  0  0  0  0  0  0  0
   10.3359    9.0143   22.6427 H   0  0  0  0  0  0  0  0  0  0  0  0
   11.5378   12.9936   23.7114 H   0  0  0  0  0  0  0  0  0  0  0  0
    8.0428    9.4810   23.4217 H   0  0  0  0  0  0  0  0  0  0  0  0
    4.1021   12.6778   24.2895 H   0  0  0  0  0  0  0  0  0  0  0  0
    6.3046   12.5102   22.6324 H   0  0  0  0  0  0  0  0  0  0  0  0
    7.4598    9.9224   26.8438 H   0  0  0  0  0  0  0  0  0  0  0  0
    8.5721   11.3070   26.7130 H   0  0  0  0  0  0  0  0  0  0  0  0
    7.1800   11.4051   27.7899 H   0  0  0  0  0  0  0  0  0  0  0  0
    6.3742   15.8725   21.9021 H   0  0  0  0  0  0  0  0  0  0  0  0
    6.5932   15.1956   23.5481 H   0  0  0  0  0  0  0  0  0  0  0  0
    7.3283   16.7751   23.1230 H   0  0  0  0  0  0  0  0  0  0  0  0
    8.1158   13.9292   24.9578 H   0  0  0  0  0  0  0  0  0  0  0  0
    9.7758   14.0693   25.5379 H   0  0  0  0  0  0  0  0  0  0  0  0
    9.6476   15.8403   24.0912 H   0  0  0  0  0  0  0  0  0  0  0  0
  1  2  2  0  0  0  0
  1  3  1  0  0  0  0
  2  4  1  0  0  0  0
  3  7  2  0  0  0  0
  4  8  2  0  0  0  0
  5  6  2  0  0  0  0
  5 13  1  0  0  0  0
  6 14  1  0  0  0  0
  7  8  1  0  0  0  0
  7 12  1  0  0  0  0
  8 14  1  0  0  0  0
  9 10  1  0  0  0  0
  9 13  2  0  0  0  0
  9 14  1  0  0  0  0
 11 18  1  0  0  0  0
 12 15  1  0  0  0  0
 15 18  1  0  0  0  0
 16 18  2  0  0  0  0
 17 18  2  0  0  0  0
  1 19  1  0  0  0  0
  2 20  1  0  0  0  0
  3 21  1  0  0  0  0
  4 22  1  0  0  0  0
  5 23  1  0  0  0  0
  6 24  1  0  0  0  0
 10 25  1  0  0  0  0
 10 26  1  0  0  0  0
 10 27  1  0  0  0  0
 11 28  1  0  0  0  0
 11 29  1  0  0  0  0
 11 30  1  0  0  0  0
 12 31  1  0  0  0  0
 12 32  1  0  0  0  0
 15 33  1  0  0  0  0
M  END
> <Catalog ID>
Z972994828

> <PlateID>
1337959-R-09

> <Well>
F09

> <MW (desalted)>
265.331

> <CLogP>
1.017

> <HBD>
1

> <TPSA>
63.990

> <RotBonds>
3

> <ROCS_ShapeQuery>
x0446_0A_x1080_0A_x0929_0A_x0812_0A_x0719_0A_x1140_0A_x0528_0A_x0310_0A

> <ROCS_TanimotoCombo>
0.342 

> <ROCS_ShapeTanimoto>
0.218 

> <ROCS_ColorTanimoto>
0.125 

> <ROCS_RefTversky>
0.199 

> <ROCS_RefColorTversky>
0.138 

> <ROCS_RefTverskyCombo>
0.337 

> <ROCS_FitTversky>
1.717 

> <ROCS_FitColorTversky>
0.577 

> <ROCS_FitTverskyCombo>
2.294 

> <ROCS_ColorScore>
-4.908

> <ROCS_Overlap>
2353.718

> <ROCS_Rank>
66                  

$$$$
untitled-dbase-283_0
  -OEChem-02082415003D

 20 21  0     0  0  0  0  0  0999 V2000
    7.4569   13.3998   23.0882 C   0  0  0  0  0  0  0  0  0  0  0  0
    8.9031   11.3435   22.3573 C   0  0  0  0  0  0  0  0  0  0  0  0
    9.5941   12.2727   24.0964 C   0  0  0  0  0  0  0  0  0  0  0  0
    7.4243   11.1350   24.3110 C   0  0  0  0  0  0  0  0  0  0  0  0
    8.1695   12.1729   23.4608 C   0  0  0  0  0  0  0  0  0  0  0  0
    9.5424   10.7499   23.6755 C   0  0  0  0  0  0  0  0  0  0  0  0
   10.7811    9.9086   23.6330 C   0  0  0  0  0  0  0  0  0  0  0  0
    6.8933   14.0063   24.0410 O   0  5  0  0  0  0  0  0  0  0  0  0
    7.5028   13.6865   21.8590 O   0  0  0  0  0  0  0  0  0  0  0  0
    8.4575   10.1400   24.4326 O   0  0  0  0  0  0  0  0  0  0  0  0
   10.5417    8.7442   22.8473 O   0  0  0  0  0  0  0  0  0  0  0  0
    8.2829   10.6537   21.7770 H   0  0  0  0  0  0  0  0  0  0  0  0
    9.5717   11.8871   21.6806 H   0  0  0  0  0  0  0  0  0  0  0  0
   10.3287   12.9052   23.5856 H   0  0  0  0  0  0  0  0  0  0  0  0
    9.6328   12.4685   25.1721 H   0  0  0  0  0  0  0  0  0  0  0  0
    7.1532   11.5086   25.3026 H   0  0  0  0  0  0  0  0  0  0  0  0
    6.5576   10.7057   23.8003 H   0  0  0  0  0  0  0  0  0  0  0  0
   11.0792    9.5851   24.6410 H   0  0  0  0  0  0  0  0  0  0  0  0
   11.6217   10.4570   23.1837 H   0  0  0  0  0  0  0  0  0  0  0  0
   11.3668    8.2347   22.8495 H   0  0  0  0  0  0  0  0  0  0  0  0
  1  5  1  0  0  0  0
  1  8  1  0  0  0  0
  1  9  2  0  0  0  0
  2  5  1  0  0  0  0
  2  6  1  0  0  0  0
  3  5  1  0  0  0  0
  3  6  1  0  0  0  0
  4  5  1  0  0  0  0
  4 10  1  0  0  0  0
  6  7  1  0  0  0  0
  6 10  1  0  0  0  0
  7 11  1  0  0  0  0
  2 12  1  0  0  0  0
  2 13  1  0  0  0  0
  3 14  1  0  0  0  0
  3 15  1  0  0  0  0
  4 16  1  0  0  0  0
  4 17  1  0  0  0  0
  7 18  1  0  0  0  0
  7 19  1  0  0  0  0
 11 20  1  0  0  0  0
M  CHG  1   8  -1
M  END
> <Catalog ID>
Z4444401034

> <PlateID>
1337959-R-06

> <Well>
H05

> <MW (desalted)>
158.152

> <CLogP>
-3.463

> <HBD>
1

> <TPSA>
69.590

> <RotBonds>
2

> <ROCS_ShapeQuery>
x0446_0A_x1080_0A_x0929_0A_x0812_0A_x0719_0A_x1140_0A_x0528_0A_x0310_0A

> <ROCS_TanimotoCombo>
0.341 

> <ROCS_ShapeTanimoto>
0.176 

> <ROCS_ColorTanimoto>
0.166 

> <ROCS_RefTversky>
0.163 

> <ROCS_RefColorTversky>
0.197 

> <ROCS_RefTverskyCombo>
0.361 

> <ROCS_FitTversky>
1.772 

> <ROCS_FitColorTversky>
0.507 

> <ROCS_FitTverskyCombo>
2.279 

> <ROCS_ColorScore>
-7.102

> <ROCS_Overlap>
1925.169

> <ROCS_Rank>
67                  

$$$$
untitled-dbase-180_12
  -OEChem-02082415003D

 35 37  0     0  0  0  0  0  0999 V2000
   10.1064   11.0218   23.4202 C   0  0  0  0  0  0  0  0  0  0  0  0
    8.5336   12.3788   23.8921 C   0  0  0  0  0  0  0  0  0  0  0  0
    7.9620   11.1280   23.8475 C   0  0  0  0  0  0  0  0  0  0  0  0
   10.9176   15.6820   22.5658 C   0  0  0  0  0  0  0  0  0  0  0  0
    6.5371   10.8241   24.0778 C   0  0  0  0  0  0  0  0  0  0  0  0
    7.5496   14.4445   22.8280 C   0  0  0  0  0  0  0  0  0  0  0  0
    8.4301   14.5324   25.2137 C   0  0  0  0  0  0  0  0  0  0  0  0
    5.7491   12.1473   23.9983 C   0  0  0  0  0  0  0  0  0  0  0  0
    8.4510   15.6759   22.7014 C   0  0  0  0  0  0  0  0  0  0  0  0
    9.7533   15.1447   24.7413 C   0  0  0  0  0  0  0  0  0  0  0  0
    7.7526   13.6441   24.1450 C   0  0  0  0  0  0  0  0  0  0  0  0
   10.8061   15.4397   21.0803 C   0  0  0  0  0  0  0  0  0  0  0  0
    9.8728   12.3047   23.6077 N   0  0  0  0  0  0  0  0  0  0  0  0
    8.9724   10.2638   23.5582 N   0  0  0  0  0  0  0  0  0  0  0  0
    6.4296   13.2418   24.7173 N   0  0  0  0  0  0  0  0  0  0  0  0
    9.7577   15.4712   23.3131 N   0  0  0  0  0  0  0  0  0  0  0  0
   11.9927   16.0543   23.0411 O   0  0  0  0  0  0  0  0  0  0  0  0
   11.0639   10.5788   23.1864 H   0  0  0  0  0  0  0  0  0  0  0  0
    6.1831   10.1347   23.3036 H   0  0  0  0  0  0  0  0  0  0  0  0
    6.3819   10.3528   25.0529 H   0  0  0  0  0  0  0  0  0  0  0  0
    6.5083   14.7934   22.7709 H   0  0  0  0  0  0  0  0  0  0  0  0
    7.7074   13.7975   21.9548 H   0  0  0  0  0  0  0  0  0  0  0  0
    8.6208   13.9667   26.1350 H   0  0  0  0  0  0  0  0  0  0  0  0
    7.7571   15.3573   25.4882 H   0  0  0  0  0  0  0  0  0  0  0  0
    5.6285   12.4313   22.9481 H   0  0  0  0  0  0  0  0  0  0  0  0
    4.7384   12.0121   24.3977 H   0  0  0  0  0  0  0  0  0  0  0  0
    8.6185   15.9399   21.6483 H   0  0  0  0  0  0  0  0  0  0  0  0
    7.9415   16.5388   23.1528 H   0  0  0  0  0  0  0  0  0  0  0  0
    9.9709   16.0282   25.3604 H   0  0  0  0  0  0  0  0  0  0  0  0
   10.5917   14.4487   24.9173 H   0  0  0  0  0  0  0  0  0  0  0  0
   10.5118   16.3625   20.5914 H   0  0  0  0  0  0  0  0  0  0  0  0
   10.0614   14.6709   20.9006 H   0  0  0  0  0  0  0  0  0  0  0  0
   11.7678   15.1093   20.7014 H   0  0  0  0  0  0  0  0  0  0  0  0
    8.9049    9.2592   23.4615 H   0  0  0  0  0  0  0  0  0  0  0  0
    5.8097   14.0517   24.7289 H   0  0  0  0  0  0  0  0  0  0  0  0
  1 13  2  0  0  0  0
  1 14  1  0  0  0  0
  2  3  2  0  0  0  0
  2 11  1  0  0  0  0
  2 13  1  0  0  0  0
  3  5  1  0  0  0  0
  3 14  1  0  0  0  0
  4 12  1  0  0  0  0
  4 16  1  0  0  0  0
  4 17  2  0  0  0  0
  5  8  1  0  0  0  0
  6  9  1  0  0  0  0
  6 11  1  0  0  0  0
  7 10  1  0  0  0  0
  7 11  1  0  0  0  0
  8 15  1  0  0  0  0
  9 16  1  0  0  0  0
 10 16  1  0  0  0  0
 11 15  1  0  0  0  0
  1 18  1  0  0  0  0
  5 19  1  0  0  0  0
  5 20  1  0  0  0  0
  6 21  1  0  0  0  0
  6 22  1  0  0  0  0
  7 23  1  0  0  0  0
  7 24  1  0  0  0  0
  8 25  1  0  0  0  0
  8 26  1  0  0  0  0
  9 27  1  0  0  0  0
  9 28  1  0  0  0  0
 10 29  1  0  0  0  0
 10 30  1  0  0  0  0
 12 31  1  0  0  0  0
 12 32  1  0  0  0  0
 12 33  1  0  0  0  0
 14 34  1  0  0  0  0
 15 35  1  0  0  0  0
M  END
> <Catalog ID>
Z1824566820

> <PlateID>
1337959-R-04

> <Well>
F07

> <MW (desalted)>
234.298

> <CLogP>
-2.188

> <HBD>
2

> <TPSA>
61.020

> <RotBonds>
0

> <ROCS_ShapeQuery>
x0446_0A_x1080_0A_x0929_0A_x0812_0A_x0719_0A_x1140_0A_x0528_0A_x0310_0A

> <ROCS_TanimotoCombo>
0.341 

> <ROCS_ShapeTanimoto>
0.212 

> <ROCS_ColorTanimoto>
0.129 

> <ROCS_RefTversky>
0.195 

> <ROCS_RefColorTversky>
0.147 

> <ROCS_RefTverskyCombo>
0.343 

> <ROCS_FitTversky>
1.703 

> <ROCS_FitColorTversky>
0.506 

> <ROCS_FitTverskyCombo>
2.209 

> <ROCS_ColorScore>
-5.276

> <ROCS_Overlap>
2304.186

> <ROCS_Rank>
68                  

$$$$
untitled-dbase-522_0
  -OEChem-02082415003D

 27 29  0     0  0  0  0  0  0999 V2000
    9.3136   10.1170   24.7037 C   0  0  0  0  0  0  0  0  0  0  0  0
    8.4988   10.2897   22.3374 C   0  0  0  0  0  0  0  0  0  0  0  0
    7.0757   11.1415   24.2194 C   0  0  0  0  0  0  0  0  0  0  0  0
   10.3963   11.7293   23.1183 C   0  0  0  0  0  0  0  0  0  0  0  0
    8.9712   12.5824   25.0028 C   0  0  0  0  0  0  0  0  0  0  0  0
    8.1585   12.7550   22.6359 C   0  0  0  0  0  0  0  0  0  0  0  0
    9.7423   10.3435   23.2427 C   0  0  0  0  0  0  0  0  0  0  0  0
    8.3101   11.2009   25.1367 C   0  0  0  0  0  0  0  0  0  0  0  0
    7.4912   11.3752   22.7560 C   0  0  0  0  0  0  0  0  0  0  0  0
    9.3987   12.8216   23.5436 C   0  0  0  0  0  0  0  0  0  0  0  0
   10.0221   14.0918   23.4219 O   0  0  0  0  0  0  0  0  0  0  0  0
    8.8599    9.1240   24.8102 H   0  0  0  0  0  0  0  0  0  0  0  0
   10.1929   10.1381   25.3591 H   0  0  0  0  0  0  0  0  0  0  0  0
    8.7919   10.4351   21.2904 H   0  0  0  0  0  0  0  0  0  0  0  0
    8.0310    9.2996   22.4032 H   0  0  0  0  0  0  0  0  0  0  0  0
    6.5835   10.1662   24.3176 H   0  0  0  0  0  0  0  0  0  0  0  0
    6.3450   11.8999   24.5262 H   0  0  0  0  0  0  0  0  0  0  0  0
   11.3009   11.7831   23.7379 H   0  0  0  0  0  0  0  0  0  0  0  0
   10.7318   11.9044   22.0879 H   0  0  0  0  0  0  0  0  0  0  0  0
    8.2802   13.3704   25.3295 H   0  0  0  0  0  0  0  0  0  0  0  0
    9.8416   12.6574   25.6674 H   0  0  0  0  0  0  0  0  0  0  0  0
    8.4423   12.9545   21.5944 H   0  0  0  0  0  0  0  0  0  0  0  0
    7.4484   13.5475   22.9057 H   0  0  0  0  0  0  0  0  0  0  0  0
   10.4548    9.5681   22.9410 H   0  0  0  0  0  0  0  0  0  0  0  0
    8.0083   11.0324   26.1762 H   0  0  0  0  0  0  0  0  0  0  0  0
    6.6086   11.3323   22.1082 H   0  0  0  0  0  0  0  0  0  0  0  0
    9.3672   14.7541   23.6970 H   0  0  0  0  0  0  0  0  0  0  0  0
  1  7  1  0  0  0  0
  1  8  1  0  0  0  0
  2  7  1  0  0  0  0
  2  9  1  0  0  0  0
  3  8  1  0  0  0  0
  3  9  1  0  0  0  0
  4  7  1  0  0  0  0
  4 10  1  0  0  0  0
  5  8  1  0  0  0  0
  5 10  1  0  0  0  0
  6  9  1  0  0  0  0
  6 10  1  0  0  0  0
 10 11  1  0  0  0  0
  1 12  1  0  0  0  0
  1 13  1  0  0  0  0
  2 14  1  0  0  0  0
  2 15  1  0  0  0  0
  3 16  1  0  0  0  0
  3 17  1  0  0  0  0
  4 18  1  0  0  0  0
  4 19  1  0  0  0  0
  5 20  1  0  0  0  0
  5 21  1  0  0  0  0
  6 22  1  0  0  0  0
  6 23  1  0  0  0  0
  7 24  1  0  0  0  0
  8 25  1  0  0  0  0
  9 26  1  0  0  0  0
 11 27  1  0  0  0  0
M  END
> <Catalog ID>
Z56771134

> <PlateID>
1337959-R-12

> <Well>
D02

> <MW (desalted)>
152.233

> <CLogP>
1.895

> <HBD>
1

> <TPSA>
20.230

> <RotBonds>
0

> <ROCS_ShapeQuery>
x0446_0A_x1080_0A_x0929_0A_x0812_0A_x0719_0A_x1140_0A_x0528_0A_x0310_0A

> <ROCS_TanimotoCombo>
0.340 

> <ROCS_ShapeTanimoto>
0.178 

> <ROCS_ColorTanimoto>
0.162 

> <ROCS_RefTversky>
0.165 

> <ROCS_RefColorTversky>
0.178 

> <ROCS_RefTverskyCombo>
0.344 

> <ROCS_FitTversky>
1.787 

> <ROCS_FitColorTversky>
0.644 

> <ROCS_FitTverskyCombo>
2.431 

> <ROCS_ColorScore>
-6.381

> <ROCS_Overlap>
1945.972

> <ROCS_Rank>
69                  

$$$$
untitled-dbase-319_0
  -OEChem-02082415003D

 32 33  0     1  0  0  0  0  0999 V2000
   10.3661   11.2234   24.0185 C   0  0  0  0  0  0  0  0  0  0  0  0
    9.4885   10.2326   23.7991 C   0  0  0  0  0  0  0  0  0  0  0  0
    9.8688   12.6259   23.8995 C   0  0  0  0  0  0  0  0  0  0  0  0
    7.3266   10.9297   24.7531 C   0  0  0  0  0  0  0  0  0  0  0  0
    7.5866   12.4455   24.8729 C   0  0  0  0  0  0  0  0  0  0  0  0
    8.0390   10.5043   23.4524 C   0  0  1  0  0  0  0  0  0  0  0  0
    8.3648   12.8317   23.5858 C   0  0  2  0  0  0  0  0  0  0  0  0
    7.8982   11.7635   22.5506 C   0  0  0  0  0  0  0  0  0  0  0  0
    8.1057   14.2811   23.1794 C   0  0  0  0  0  0  0  0  0  0  0  0
    6.4285   11.9511   22.0958 C   0  0  0  0  0  0  0  0  0  0  0  0
    8.7368   11.7086   21.2569 C   0  0  0  0  0  0  0  0  0  0  0  0
   10.3470    8.3951   22.6748 C   0  0  0  0  0  0  0  0  0  0  0  0
   10.6507   13.5562   24.0845 O   0  0  0  0  0  0  0  0  0  0  0  0
    9.8788    8.9134   23.8965 O   0  0  0  0  0  0  0  0  0  0  0  0
   11.4047   11.0511   24.2696 H   0  0  0  0  0  0  0  0  0  0  0  0
    7.6848   10.3900   25.6375 H   0  0  0  0  0  0  0  0  0  0  0  0
    6.2492   10.7404   24.6826 H   0  0  0  0  0  0  0  0  0  0  0  0
    6.6312   12.9777   24.9480 H   0  0  0  0  0  0  0  0  0  0  0  0
    8.1542   12.6699   25.7836 H   0  0  0  0  0  0  0  0  0  0  0  0
    7.5680    9.6259   22.9987 H   0  0  0  0  0  0  0  0  0  0  0  0
    7.0482   14.4195   22.9604 H   0  0  0  0  0  0  0  0  0  0  0  0
    8.6885   14.5256   22.2930 H   0  0  0  0  0  0  0  0  0  0  0  0
    8.3925   14.9486   23.9904 H   0  0  0  0  0  0  0  0  0  0  0  0
    6.3684   12.8329   21.4728 H   0  0  0  0  0  0  0  0  0  0  0  0
    5.8068   12.0696   22.9725 H   0  0  0  0  0  0  0  0  0  0  0  0
    6.1245   11.0767   21.5368 H   0  0  0  0  0  0  0  0  0  0  0  0
    8.5784   12.6208   20.6938 H   0  0  0  0  0  0  0  0  0  0  0  0
    8.4244   10.8537   20.6690 H   0  0  0  0  0  0  0  0  0  0  0  0
    9.7842   11.6137   21.5182 H   0  0  0  0  0  0  0  0  0  0  0  0
   10.6412    7.3514   22.8099 H   0  0  0  0  0  0  0  0  0  0  0  0
   11.2012    8.9841   22.3316 H   0  0  0  0  0  0  0  0  0  0  0  0
    9.5460    8.4525   21.9340 H   0  0  0  0  0  0  0  0  0  0  0  0
  1  2  2  0  0  0  0
  1  3  1  0  0  0  0
  2  6  1  0  0  0  0
  2 14  1  0  0  0  0
  3  7  1  0  0  0  0
  3 13  2  0  0  0  0
  4  5  1  0  0  0  0
  4  6  1  0  0  0  0
  5  7  1  0  0  0  0
  6  8  1  0  0  0  0
  7  8  1  0  0  0  0
  7  9  1  0  0  0  0
  8 10  1  0  0  0  0
  8 11  1  0  0  0  0
 12 14  1  0  0  0  0
  1 15  1  0  0  0  0
  4 16  1  0  0  0  0
  4 17  1  0  0  0  0
  5 18  1  0  0  0  0
  5 19  1  0  0  0  0
  6 20  1  0  0  0  0
  9 21  1  0  0  0  0
  9 22  1  0  0  0  0
  9 23  1  0  0  0  0
 10 24  1  0  0  0  0
 10 25  1  0  0  0  0
 10 26  1  0  0  0  0
 11 27  1  0  0  0  0
 11 28  1  0  0  0  0
 11 29  1  0  0  0  0
 12 30  1  0  0  0  0
 12 31  1  0  0  0  0
 12 32  1  0  0  0  0
M  END
> <Catalog ID>
Z2681236858

> <PlateID>
1337959-R-07

> <Well>
G02

> <MW (desalted)>
194.270

> <CLogP>
2.462

> <HBD>
0

> <TPSA>
26.300

> <RotBonds>
1

> <ROCS_ShapeQuery>
x0446_0A_x1080_0A_x0929_0A_x0812_0A_x0719_0A_x1140_0A_x0528_0A_x0310_0A

> <ROCS_TanimotoCombo>
0.340 

> <ROCS_ShapeTanimoto>
0.195 

> <ROCS_ColorTanimoto>
0.145 

> <ROCS_RefTversky>
0.180 

> <ROCS_RefColorTversky>
0.163 

> <ROCS_RefTverskyCombo>
0.343 

> <ROCS_FitTversky>
1.765 

> <ROCS_FitColorTversky>
0.571 

> <ROCS_FitTverskyCombo>
2.336 

> <ROCS_ColorScore>
-5.814

> <ROCS_Overlap>
2125.523

> <ROCS_Rank>
70                  

$$$$
untitled-dbase-206_0
  -OEChem-02082415003D

 19 20  0     0  0  0  0  0  0999 V2000
    9.8267   12.5300   22.5620 C   0  0  0  0  0  0  0  0  0  0  0  0
    8.2634   13.2967   24.9109 C   0  0  0  0  0  0  0  0  0  0  0  0
    9.6985   13.8018   22.9760 C   0  0  0  0  0  0  0  0  0  0  0  0
    8.9170   14.1960   24.1521 C   0  0  0  0  0  0  0  0  0  0  0  0
    9.1421   11.4994   23.3405 C   0  0  0  0  0  0  0  0  0  0  0  0
    8.3502   11.8878   24.5304 C   0  0  0  0  0  0  0  0  0  0  0  0
    8.2806    9.7946   24.2456 C   0  0  0  0  0  0  0  0  0  0  0  0
    9.0834   10.2222   23.1899 N   0  0  0  0  0  0  0  0  0  0  0  0
    7.8374   10.8333   25.0619 N   0  0  0  0  0  0  0  0  0  0  0  0
   11.2818   14.0144   20.7778 N   0  0  0  0  0  0  0  0  0  0  0  0
    7.9919    8.6188   24.4374 O   0  0  0  0  0  0  0  0  0  0  0  0
    9.5531   15.8112   21.3596 O   0  0  0  0  0  0  0  0  0  0  0  0
   11.5930   15.5489   22.8061 O   0  0  0  0  0  0  0  0  0  0  0  0
   10.5395   14.9611   22.0000 S   0  0  0  0  0  0  0  0  0  0  0  0
    8.8092   16.0113   24.6353 Br  0  0  0  0  0  0  0  0  0  0  0  0
   10.3994   12.2226   21.6960 H   0  0  0  0  0  0  0  0  0  0  0  0
    7.6786   13.5585   25.7844 H   0  0  0  0  0  0  0  0  0  0  0  0
   10.6549   13.5737   20.0928 H   0  0  0  0  0  0  0  0  0  0  0  0
   12.0432   13.3901   21.0737 H   0  0  0  0  0  0  0  0  0  0  0  0
  1  3  2  0  0  0  0
  1  5  1  0  0  0  0
  2  4  2  0  0  0  0
  2  6  1  0  0  0  0
  3  4  1  0  0  0  0
  3 14  1  0  0  0  0
  4 15  1  0  0  0  0
  5  6  1  0  0  0  0
  5  8  2  0  0  0  0
  6  9  2  0  0  0  0
  7  8  1  0  0  0  0
  7  9  1  0  0  0  0
  7 11  2  0  0  0  0
 10 14  1  0  0  0  0
 12 14  2  0  0  0  0
 13 14  2  0  0  0  0
  1 16  1  0  0  0  0
  2 17  1  0  0  0  0
 10 18  1  0  0  0  0
 10 19  1  0  0  0  0
M  END
> <Catalog ID>
Z1160860493

> <PlateID>
1337959-R-05

> <Well>
A09

> <MW (desalted)>
292.110

> <CLogP>
0.154

> <HBD>
3

> <TPSA>
101.290

> <RotBonds>
1

> <ROCS_ShapeQuery>
x0446_0A_x1080_0A_x0929_0A_x0812_0A_x0719_0A_x1140_0A_x0528_0A_x0310_0A

> <ROCS_TanimotoCombo>
0.340 

> <ROCS_ShapeTanimoto>
0.197 

> <ROCS_ColorTanimoto>
0.143 

> <ROCS_RefTversky>
0.182 

> <ROCS_RefColorTversky>
0.168 

> <ROCS_RefTverskyCombo>
0.350 

> <ROCS_FitTversky>
1.727 

> <ROCS_FitColorTversky>
0.488 

> <ROCS_FitTverskyCombo>
2.215 

> <ROCS_ColorScore>
-6.032

> <ROCS_Overlap>
2149.746

> <ROCS_Rank>
71                  

$$$$
untitled-dbase-21_6
  -OEChem-02082415003D

 35 36  0     1  0  0  0  0  0999 V2000
   10.3550   13.3074   23.4392 C   0  0  0  0  0  0  0  0  0  0  0  0
    7.4319   13.6399   23.0431 C   0  0  0  0  0  0  0  0  0  0  0  0
    9.9531   10.4357   24.5246 C   0  0  0  0  0  0  0  0  0  0  0  0
    8.4822   10.4497   24.9256 C   0  0  0  0  0  0  0  0  0  0  0  0
   12.2659   15.1109   20.8291 C   0  0  0  0  0  0  0  0  0  0  0  0
   11.6489   16.2427   21.6411 C   0  0  0  0  0  0  0  0  0  0  0  0
   10.1551   10.8979   23.0807 C   0  0  0  0  0  0  0  0  0  0  0  0
    7.8438   11.8147   24.6877 C   0  0  0  0  0  0  0  0  0  0  0  0
   11.4072   13.9121   21.2068 C   0  0  0  0  0  0  0  0  0  0  0  0
   11.2867   15.5601   22.9513 C   0  0  0  0  0  0  0  0  0  0  0  0
    9.4886   12.2415   22.7797 C   0  0  1  0  0  0  0  0  0  0  0  0
    8.0303   12.2768   23.2401 C   0  0  2  0  0  0  0  0  0  0  0  0
   10.9780   14.1885   22.5741 N   0  0  0  0  0  0  0  0  0  0  0  0
   10.4727   13.3456   24.6650 O   0  0  0  0  0  0  0  0  0  0  0  0
    6.9254   14.3181   23.9245 O   0  0  0  0  0  0  0  0  0  0  0  0
    7.5262   14.0212   21.7458 O   0  0  0  0  0  0  0  0  0  0  0  0
   10.5266   11.0814   25.1997 H   0  0  0  0  0  0  0  0  0  0  0  0
   10.3536    9.4206   24.6391 H   0  0  0  0  0  0  0  0  0  0  0  0
    7.9401    9.6870   24.3557 H   0  0  0  0  0  0  0  0  0  0  0  0
    8.3910   10.1765   25.9833 H   0  0  0  0  0  0  0  0  0  0  0  0
   12.1741   15.3209   19.7566 H   0  0  0  0  0  0  0  0  0  0  0  0
   13.3234   14.9585   21.0637 H   0  0  0  0  0  0  0  0  0  0  0  0
   12.3910   17.0302   21.8155 H   0  0  0  0  0  0  0  0  0  0  0  0
   10.7808   16.6851   21.1454 H   0  0  0  0  0  0  0  0  0  0  0  0
   11.2371   10.9471   22.8586 H   0  0  0  0  0  0  0  0  0  0  0  0
    9.7600   10.1238   22.3976 H   0  0  0  0  0  0  0  0  0  0  0  0
    6.7749   11.7476   24.9031 H   0  0  0  0  0  0  0  0  0  0  0  0
    8.2733   12.5406   25.3806 H   0  0  0  0  0  0  0  0  0  0  0  0
   10.5454   13.7749   20.5486 H   0  0  0  0  0  0  0  0  0  0  0  0
   11.9921   12.9868   21.2241 H   0  0  0  0  0  0  0  0  0  0  0  0
   12.0987   15.5971   23.6837 H   0  0  0  0  0  0  0  0  0  0  0  0
   10.3851   15.9983   23.3946 H   0  0  0  0  0  0  0  0  0  0  0  0
    9.5475   12.4176   21.7190 H   0  0  0  0  0  0  0  0  0  0  0  0
    7.4385   11.6126   22.5794 H   0  0  0  0  0  0  0  0  0  0  0  0
    7.1385   14.9097   21.5959 H   0  0  0  0  0  0  0  0  0  0  0  0
  1 11  1  6  0  0  0
  1 13  1  0  0  0  0
  1 14  2  0  0  0  0
  2 12  1  6  0  0  0
  2 15  2  0  0  0  0
  2 16  1  0  0  0  0
  3  4  1  0  0  0  0
  3  7  1  0  0  0  0
  4  8  1  0  0  0  0
  5  6  1  0  0  0  0
  5  9  1  0  0  0  0
  6 10  1  0  0  0  0
  7 11  1  0  0  0  0
  8 12  1  0  0  0  0
  9 13  1  0  0  0  0
 10 13  1  0  0  0  0
 11 12  1  0  0  0  0
  3 17  1  0  0  0  0
  3 18  1  0  0  0  0
  4 19  1  0  0  0  0
  4 20  1  0  0  0  0
  5 21  1  0  0  0  0
  5 22  1  0  0  0  0
  6 23  1  0  0  0  0
  6 24  1  0  0  0  0
  7 25  1  0  0  0  0
  7 26  1  0  0  0  0
  8 27  1  0  0  0  0
  8 28  1  0  0  0  0
  9 29  1  0  0  0  0
  9 30  1  0  0  0  0
 10 31  1  0  0  0  0
 10 32  1  0  0  0  0
 11 33  1  0  0  0  0
 12 34  1  0  0  0  0
 16 35  1  0  0  0  0
M  END
> <Catalog ID>
Z1955819860

> <PlateID>
1337959-R-01

> <Well>
C09

> <MW (desalted)>
225.284

> <CLogP>
1.150

> <HBD>
1

> <TPSA>
57.610

> <RotBonds>
2

> <ROCS_ShapeQuery>
x0446_0A_x1080_0A_x0929_0A_x0812_0A_x0719_0A_x1140_0A_x0528_0A_x0310_0A

> <ROCS_TanimotoCombo>
0.340 

> <ROCS_ShapeTanimoto>
0.214 

> <ROCS_ColorTanimoto>
0.126 

> <ROCS_RefTversky>
0.195 

> <ROCS_RefColorTversky>
0.136 

> <ROCS_RefTverskyCombo>
0.331 

> <ROCS_FitTversky>
1.800 

> <ROCS_FitColorTversky>
0.639 

> <ROCS_FitTverskyCombo>
2.439 

> <ROCS_ColorScore>
-4.838

> <ROCS_Overlap>
2303.523

> <ROCS_Rank>
72                  

$$$$
untitled-dbase-130_12
  -OEChem-02082415003D

 25 26  0     0  0  0  0  0  0999 V2000
   12.5336   15.3380   21.1334 C   0  0  0  0  0  0  0  0  0  0  0  0
   11.1630   15.5936   21.0946 C   0  0  0  0  0  0  0  0  0  0  0  0
   13.0737   14.5867   22.1773 C   0  0  0  0  0  0  0  0  0  0  0  0
   10.3323   15.0981   22.0997 C   0  0  0  0  0  0  0  0  0  0  0  0
   12.2431   14.0912   23.1823 C   0  0  0  0  0  0  0  0  0  0  0  0
    7.7568   11.1578   23.1552 C   0  0  0  0  0  0  0  0  0  0  0  0
    8.5011   10.0917   23.6340 C   0  0  0  0  0  0  0  0  0  0  0  0
   10.1710   11.4792   24.3854 C   0  0  0  0  0  0  0  0  0  0  0  0
    8.2754   12.4379   23.3159 C   0  0  0  0  0  0  0  0  0  0  0  0
   10.8724   14.3469   23.1436 C   0  0  0  0  0  0  0  0  0  0  0  0
    9.5051   12.6103   23.9416 C   0  0  0  0  0  0  0  0  0  0  0  0
    7.5185   13.5801   22.8239 C   0  0  0  0  0  0  0  0  0  0  0  0
    9.6991   10.2199   24.2472 N   0  0  0  0  0  0  0  0  0  0  0  0
    7.1866   13.7648   21.6493 O   0  0  0  0  0  0  0  0  0  0  0  0
    7.1981   14.4560   23.8146 O   0  0  0  0  0  0  0  0  0  0  0  0
   10.0626   13.8645   24.1254 O   0  0  0  0  0  0  0  0  0  0  0  0
   13.1805   15.7232   20.3507 H   0  0  0  0  0  0  0  0  0  0  0  0
   10.7423   16.1788   20.2819 H   0  0  0  0  0  0  0  0  0  0  0  0
   14.1411   14.3879   22.2067 H   0  0  0  0  0  0  0  0  0  0  0  0
    9.2656   15.3021   22.0644 H   0  0  0  0  0  0  0  0  0  0  0  0
   12.6696   13.5081   23.9940 H   0  0  0  0  0  0  0  0  0  0  0  0
    6.8008   10.9876   22.6714 H   0  0  0  0  0  0  0  0  0  0  0  0
    8.1413    9.0730   23.5338 H   0  0  0  0  0  0  0  0  0  0  0  0
   11.1341   11.5537   24.8806 H   0  0  0  0  0  0  0  0  0  0  0  0
    6.6869   15.2292   23.4933 H   0  0  0  0  0  0  0  0  0  0  0  0
  1  2  2  0  0  0  0
  1  3  1  0  0  0  0
  2  4  1  0  0  0  0
  3  5  2  0  0  0  0
  4 10  2  0  0  0  0
  5 10  1  0  0  0  0
  6  7  1  0  0  0  0
  6  9  2  0  0  0  0
  7 13  2  0  0  0  0
  8 11  2  0  0  0  0
  8 13  1  0  0  0  0
  9 11  1  0  0  0  0
  9 12  1  0  0  0  0
 10 16  1  0  0  0  0
 11 16  1  0  0  0  0
 12 14  2  0  0  0  0
 12 15  1  0  0  0  0
  1 17  1  0  0  0  0
  2 18  1  0  0  0  0
  3 19  1  0  0  0  0
  4 20  1  0  0  0  0
  5 21  1  0  0  0  0
  6 22  1  0  0  0  0
  7 23  1  0  0  0  0
  8 24  1  0  0  0  0
 15 25  1  0  0  0  0
M  END
> <Catalog ID>
Z1473284016

> <PlateID>
1337959-R-03

> <Well>
E11

> <MW (desalted)>
215.205

> <CLogP>
2.467

> <HBD>
1

> <TPSA>
59.420

> <RotBonds>
3

> <ROCS_ShapeQuery>
x0446_0A_x1080_0A_x0929_0A_x0812_0A_x0719_0A_x1140_0A_x0528_0A_x0310_0A

> <ROCS_TanimotoCombo>
0.340 

> <ROCS_ShapeTanimoto>
0.205 

> <ROCS_ColorTanimoto>
0.135 

> <ROCS_RefTversky>
0.189 

> <ROCS_RefColorTversky>
0.147 

> <ROCS_RefTverskyCombo>
0.336 

> <ROCS_FitTversky>
1.700 

> <ROCS_FitColorTversky>
0.615 

> <ROCS_FitTverskyCombo>
2.315 

> <ROCS_ColorScore>
-5.241

> <ROCS_Overlap>
2232.942

> <ROCS_Rank>
73                  

$$$$
untitled-dbase-98_1
  -OEChem-02082415003D

 29 31  0     0  0  0  0  0  0999 V2000
    5.9743   12.7889   25.1114 C   0  0  0  0  0  0  0  0  0  0  0  0
    5.9039   11.4118   25.3580 C   0  0  0  0  0  0  0  0  0  0  0  0
    6.9996   13.3210   24.3245 C   0  0  0  0  0  0  0  0  0  0  0  0
    6.8637   10.5499   24.8278 C   0  0  0  0  0  0  0  0  0  0  0  0
    7.9553   12.4631   23.8016 C   0  0  0  0  0  0  0  0  0  0  0  0
    7.8945   11.0894   24.0743 C   0  0  0  0  0  0  0  0  0  0  0  0
   10.0568   13.8795   23.3376 C   0  0  0  0  0  0  0  0  0  0  0  0
    8.6654   12.9661   21.4271 C   0  0  0  0  0  0  0  0  0  0  0  0
    9.8808   11.3654   22.9987 C   0  0  0  0  0  0  0  0  0  0  0  0
    9.5792   15.2659   22.9153 C   0  0  0  0  0  0  0  0  0  0  0  0
    8.2324   14.4053   21.1720 C   0  0  0  0  0  0  0  0  0  0  0  0
    9.1299   12.7375   22.8814 C   0  0  0  0  0  0  0  0  0  0  0  0
    8.9077   10.3761   23.4357 N   0  0  0  0  0  0  0  0  0  0  0  0
    9.2766   15.3092   21.5239 O   0  0  0  0  0  0  0  0  0  0  0  0
    5.2171   13.4495   25.5270 H   0  0  0  0  0  0  0  0  0  0  0  0
    5.0927   11.0133   25.9598 H   0  0  0  0  0  0  0  0  0  0  0  0
    7.0305   14.3887   24.1223 H   0  0  0  0  0  0  0  0  0  0  0  0
    6.8007    9.4817   25.0086 H   0  0  0  0  0  0  0  0  0  0  0  0
   11.0936   13.7151   22.9817 H   0  0  0  0  0  0  0  0  0  0  0  0
   10.1261   13.8692   24.4440 H   0  0  0  0  0  0  0  0  0  0  0  0
    7.8037   12.3113   21.2228 H   0  0  0  0  0  0  0  0  0  0  0  0
    9.4476   12.6782   20.7092 H   0  0  0  0  0  0  0  0  0  0  0  0
   10.3421   11.0517   22.0567 H   0  0  0  0  0  0  0  0  0  0  0  0
   10.6790   11.4183   23.7508 H   0  0  0  0  0  0  0  0  0  0  0  0
    8.6617   15.5216   23.4624 H   0  0  0  0  0  0  0  0  0  0  0  0
   10.3211   16.0421   23.1550 H   0  0  0  0  0  0  0  0  0  0  0  0
    7.9459   14.5683   20.1297 H   0  0  0  0  0  0  0  0  0  0  0  0
    7.3646   14.6438   21.7919 H   0  0  0  0  0  0  0  0  0  0  0  0
    9.1520    9.4379   23.7033 H   0  0  0  0  0  0  0  0  0  0  0  0
  1  2  2  0  0  0  0
  1  3  1  0  0  0  0
  2  4  1  0  0  0  0
  3  5  2  0  0  0  0
  4  6  2  0  0  0  0
  5  6  1  0  0  0  0
  5 12  1  0  0  0  0
  6 13  1  0  0  0  0
  7 10  1  0  0  0  0
  7 12  1  0  0  0  0
  8 11  1  0  0  0  0
  8 12  1  0  0  0  0
  9 12  1  0  0  0  0
  9 13  1  0  0  0  0
 10 14  1  0  0  0  0
 11 14  1  0  0  0  0
  1 15  1  0  0  0  0
  2 16  1  0  0  0  0
  3 17  1  0  0  0  0
  4 18  1  0  0  0  0
  7 19  1  0  0  0  0
  7 20  1  0  0  0  0
  8 21  1  0  0  0  0
  8 22  1  0  0  0  0
  9 23  1  0  0  0  0
  9 24  1  0  0  0  0
 10 25  1  0  0  0  0
 10 26  1  0  0  0  0
 11 27  1  0  0  0  0
 11 28  1  0  0  0  0
 13 29  1  0  0  0  0
M  END
> <Catalog ID>
Z1255404894

> <PlateID>
1337959-R-02

> <Well>
G10

> <MW (desalted)>
189.254

> <CLogP>
1.368

> <HBD>
1

> <TPSA>
21.260

> <RotBonds>
0

> <ROCS_ShapeQuery>
x0446_0A_x1080_0A_x0929_0A_x0812_0A_x0719_0A_x1140_0A_x0528_0A_x0310_0A

> <ROCS_TanimotoCombo>
0.340 

> <ROCS_ShapeTanimoto>
0.198 

> <ROCS_ColorTanimoto>
0.142 

> <ROCS_RefTversky>
0.182 

> <ROCS_RefColorTversky>
0.147 

> <ROCS_RefTverskyCombo>
0.330 

> <ROCS_FitTversky>
1.759 

> <ROCS_FitColorTversky>
0.790 

> <ROCS_FitTverskyCombo>
2.549 

> <ROCS_ColorScore>
-5.236

> <ROCS_Overlap>
2151.135

> <ROCS_Rank>
74                  

$$$$
untitled-dbase-344_171
  -OEChem-02082415003D

 41 43  0     1  0  0  0  0  0999 V2000
    4.4126   14.5709   26.0264 C   0  0  0  0  0  0  0  0  0  0  0  0
    4.3448   13.6540   27.0869 C   0  0  0  0  0  0  0  0  0  0  0  0
    5.1776   14.2912   24.8922 C   0  0  0  0  0  0  0  0  0  0  0  0
    5.0412   12.4451   27.0277 C   0  0  0  0  0  0  0  0  0  0  0  0
    5.8739   13.0947   24.8478 C   0  0  0  0  0  0  0  0  0  0  0  0
    5.8070   12.1818   25.9041 C   0  0  0  0  0  0  0  0  0  0  0  0
    6.7246   12.5681   23.7337 C   0  0  0  0  0  0  0  0  0  0  0  0
    6.6031   10.9504   25.6037 C   0  0  0  0  0  0  0  0  0  0  0  0
    7.9142   10.3085   23.4945 C   0  0  0  0  0  0  0  0  0  0  0  0
    9.1193   10.8861   22.7679 C   0  0  0  0  0  0  0  0  0  0  0  0
    8.8857   11.9322   24.9434 C   0  0  0  0  0  0  0  0  0  0  0  0
    7.5114   11.4318   24.4483 C   0  0  0  0  0  0  0  0  0  0  0  0
    9.8615   17.1371   20.6147 C   0  0  0  0  0  0  0  0  0  0  0  0
   10.2681   15.1943   21.8728 C   0  0  0  0  0  0  0  0  0  0  0  0
    9.6391   13.9441   22.4564 C   0  0  0  0  0  0  0  0  0  0  0  0
    9.8304   11.6699   23.8137 N   0  0  2  0  0  0  0  0  0  0  0  0
   11.7710   12.4405   22.3115 O   0  0  0  0  0  0  0  0  0  0  0  0
   11.2958   13.6827   24.4601 O   0  0  0  0  0  0  0  0  0  0  0  0
    9.2920   15.9676   21.1865 O   0  0  0  0  0  0  0  0  0  0  0  0
   10.8359   12.9399   23.3019 S   0  0  0  0  0  0  0  0  0  0  0  0
    3.8595   15.5043   26.0875 H   0  0  0  0  0  0  0  0  0  0  0  0
    3.7397   13.8859   27.9593 H   0  0  0  0  0  0  0  0  0  0  0  0
    5.2203   14.9962   24.0691 H   0  0  0  0  0  0  0  0  0  0  0  0
    4.9793   11.7334   27.8441 H   0  0  0  0  0  0  0  0  0  0  0  0
    6.0821   12.1696   22.9433 H   0  0  0  0  0  0  0  0  0  0  0  0
    7.3820   13.3372   23.3233 H   0  0  0  0  0  0  0  0  0  0  0  0
    7.1679   10.6136   26.4813 H   0  0  0  0  0  0  0  0  0  0  0  0
    5.9211   10.1520   25.2839 H   0  0  0  0  0  0  0  0  0  0  0  0
    7.1079   10.1095   22.7769 H   0  0  0  0  0  0  0  0  0  0  0  0
    8.1520    9.3681   24.0011 H   0  0  0  0  0  0  0  0  0  0  0  0
    9.7634   10.0855   22.3883 H   0  0  0  0  0  0  0  0  0  0  0  0
    8.8187   11.5334   21.9398 H   0  0  0  0  0  0  0  0  0  0  0  0
    8.8862   13.0138   25.1204 H   0  0  0  0  0  0  0  0  0  0  0  0
    9.2074   11.4360   25.8647 H   0  0  0  0  0  0  0  0  0  0  0  0
    9.0852   17.7056   20.0969 H   0  0  0  0  0  0  0  0  0  0  0  0
   10.6500   16.8539   19.9130 H   0  0  0  0  0  0  0  0  0  0  0  0
   10.2888   17.7505   21.4116 H   0  0  0  0  0  0  0  0  0  0  0  0
   10.6909   15.8163   22.6679 H   0  0  0  0  0  0  0  0  0  0  0  0
   11.0677   14.9499   21.1669 H   0  0  0  0  0  0  0  0  0  0  0  0
    9.1973   13.3127   21.6802 H   0  0  0  0  0  0  0  0  0  0  0  0
    8.8747   14.2026   23.1945 H   0  0  0  0  0  0  0  0  0  0  0  0
  1  2  2  0  0  0  0
  1  3  1  0  0  0  0
  2  4  1  0  0  0  0
  3  5  2  0  0  0  0
  4  6  2  0  0  0  0
  5  6  1  0  0  0  0
  5  7  1  0  0  0  0
  6  8  1  0  0  0  0
  7 12  1  0  0  0  0
  8 12  1  0  0  0  0
  9 10  1  0  0  0  0
  9 12  1  0  0  0  0
 10 16  1  0  0  0  0
 11 12  1  0  0  0  0
 11 16  1  0  0  0  0
 13 19  1  0  0  0  0
 14 15  1  0  0  0  0
 14 19  1  0  0  0  0
 15 20  1  0  0  0  0
 16 20  1  0  0  0  0
 17 20  2  0  0  0  0
 18 20  2  0  0  0  0
  1 21  1  0  0  0  0
  2 22  1  0  0  0  0
  3 23  1  0  0  0  0
  4 24  1  0  0  0  0
  7 25  1  0  0  0  0
  7 26  1  0  0  0  0
  8 27  1  0  0  0  0
  8 28  1  0  0  0  0
  9 29  1  0  0  0  0
  9 30  1  0  0  0  0
 10 31  1  0  0  0  0
 10 32  1  0  0  0  0
 11 33  1  0  0  0  0
 11 34  1  0  0  0  0
 13 35  1  0  0  0  0
 13 36  1  0  0  0  0
 13 37  1  0  0  0  0
 14 38  1  0  0  0  0
 14 39  1  0  0  0  0
 15 40  1  0  0  0  0
 15 41  1  0  0  0  0
M  END
> <Catalog ID>
Z1541929387

> <PlateID>
1337959-R-08

> <Well>
C11

> <MW (desalted)>
295.397

> <CLogP>
2.325

> <HBD>
0

> <TPSA>
46.610

> <RotBonds>
3

> <ROCS_ShapeQuery>
x0446_0A_x1080_0A_x0929_0A_x0812_0A_x0719_0A_x1140_0A_x0528_0A_x0310_0A

> <ROCS_TanimotoCombo>
0.339 

> <ROCS_ShapeTanimoto>
0.205 

> <ROCS_ColorTanimoto>
0.134 

> <ROCS_RefTversky>
0.191 

> <ROCS_RefColorTversky>
0.144 

> <ROCS_RefTverskyCombo>
0.335 

> <ROCS_FitTversky>
1.562 

> <ROCS_FitColorTversky>
0.674 

> <ROCS_FitTverskyCombo>
2.237 

> <ROCS_ColorScore>
-5.114

> <ROCS_Overlap>
2255.326

> <ROCS_Rank>
75                  

$$$$
untitled-dbase-442_2
  -OEChem-02082415003D

 37 39  0     0  0  0  0  0  0999 V2000
    8.1525   14.2571   21.2161 C   0  0  0  0  0  0  0  0  0  0  0  0
    8.4353   14.5058   22.5369 C   0  0  0  0  0  0  0  0  0  0  0  0
    8.8480   15.2588   20.5127 C   0  0  0  0  0  0  0  0  0  0  0  0
    7.9789   13.7766   23.7254 C   0  0  0  0  0  0  0  0  0  0  0  0
   10.8013   10.3163   21.9481 C   0  0  0  0  0  0  0  0  0  0  0  0
   10.0195   11.2509   21.0798 C   0  0  0  0  0  0  0  0  0  0  0  0
    8.3164   11.9600   25.3568 C   0  0  0  0  0  0  0  0  0  0  0  0
    9.9493   12.1841   23.4970 C   0  0  0  0  0  0  0  0  0  0  0  0
    7.5210   10.7201   24.9697 C   0  0  0  0  0  0  0  0  0  0  0  0
    8.3557   10.2705   22.7836 C   0  0  0  0  0  0  0  0  0  0  0  0
    9.6180   11.0642   22.5299 C   0  0  0  0  0  0  0  0  0  0  0  0
    8.8938   15.4638   19.0552 C   0  0  0  0  0  0  0  0  0  0  0  0
    9.8206   16.2485   23.7018 C   0  0  0  0  0  0  0  0  0  0  0  0
    9.5218   16.0825   21.3199 N   0  0  0  0  0  0  0  0  0  0  0  0
    9.2509   15.5989   22.5442 N   0  0  0  0  0  0  0  0  0  0  0  0
    8.7633   12.7128   24.1847 N   0  0  0  0  0  0  0  0  0  0  0  0
    6.9194   14.1541   24.2230 O   0  0  0  0  0  0  0  0  0  0  0  0
    8.2780    9.8375   24.1433 O   0  0  0  0  0  0  0  0  0  0  0  0
    7.5329   13.4656   20.8190 H   0  0  0  0  0  0  0  0  0  0  0  0
   10.7013    9.2537   21.7588 H   0  0  0  0  0  0  0  0  0  0  0  0
   11.8006   10.6157   22.2414 H   0  0  0  0  0  0  0  0  0  0  0  0
   10.4941   12.1811   20.7892 H   0  0  0  0  0  0  0  0  0  0  0  0
    9.4001   10.8171   20.3039 H   0  0  0  0  0  0  0  0  0  0  0  0
    7.6779   12.6085   25.9723 H   0  0  0  0  0  0  0  0  0  0  0  0
    9.1958   11.7063   25.9651 H   0  0  0  0  0  0  0  0  0  0  0  0
   10.6358   11.8438   24.2738 H   0  0  0  0  0  0  0  0  0  0  0  0
   10.4426   12.9785   22.9385 H   0  0  0  0  0  0  0  0  0  0  0  0
    7.2824   10.1605   25.8773 H   0  0  0  0  0  0  0  0  0  0  0  0
    6.5727   10.9702   24.4864 H   0  0  0  0  0  0  0  0  0  0  0  0
    7.4522   10.8330   22.5013 H   0  0  0  0  0  0  0  0  0  0  0  0
    8.3495    9.3585   22.1697 H   0  0  0  0  0  0  0  0  0  0  0  0
    8.0836   16.1334   18.7190 H   0  0  0  0  0  0  0  0  0  0  0  0
    9.8501   15.9084   18.7262 H   0  0  0  0  0  0  0  0  0  0  0  0
    8.7943   14.5155   18.4971 H   0  0  0  0  0  0  0  0  0  0  0  0
   10.7858   15.7796   23.9108 H   0  0  0  0  0  0  0  0  0  0  0  0
    9.9502   17.3143   23.4943 H   0  0  0  0  0  0  0  0  0  0  0  0
    9.1441   16.1290   24.5527 H   0  0  0  0  0  0  0  0  0  0  0  0
  1  2  2  0  0  0  0
  1  3  1  0  0  0  0
  2  4  1  0  0  0  0
  2 15  1  0  0  0  0
  3 12  1  0  0  0  0
  3 14  2  0  0  0  0
  4 16  1  0  0  0  0
  4 17  2  0  0  0  0
  5  6  1  0  0  0  0
  5 11  1  0  0  0  0
  6 11  1  0  0  0  0
  7  9  1  0  0  0  0
  7 16  1  0  0  0  0
  8 11  1  0  0  0  0
  8 16  1  0  0  0  0
  9 18  1  0  0  0  0
 10 11  1  0  0  0  0
 10 18  1  0  0  0  0
 13 15  1  0  0  0  0
 14 15  1  0  0  0  0
  1 19  1  0  0  0  0
  5 20  1  0  0  0  0
  5 21  1  0  0  0  0
  6 22  1  0  0  0  0
  6 23  1  0  0  0  0
  7 24  1  0  0  0  0
  7 25  1  0  0  0  0
  8 26  1  0  0  0  0
  8 27  1  0  0  0  0
  9 28  1  0  0  0  0
  9 29  1  0  0  0  0
 10 30  1  0  0  0  0
 10 31  1  0  0  0  0
 12 32  1  0  0  0  0
 12 33  1  0  0  0  0
 12 34  1  0  0  0  0
 13 35  1  0  0  0  0
 13 36  1  0  0  0  0
 13 37  1  0  0  0  0
M  END
> <Catalog ID>
Z1643563431

> <PlateID>
1337959-R-10

> <Well>
E02

> <MW (desalted)>
249.309

> <CLogP>
0.089

> <HBD>
0

> <TPSA>
47.360

> <RotBonds>
1

> <ROCS_ShapeQuery>
x0446_0A_x1080_0A_x0929_0A_x0812_0A_x0719_0A_x1140_0A_x0528_0A_x0310_0A

> <ROCS_TanimotoCombo>
0.339 

> <ROCS_ShapeTanimoto>
0.202 

> <ROCS_ColorTanimoto>
0.137 

> <ROCS_RefTversky>
0.188 

> <ROCS_RefColorTversky>
0.143 

> <ROCS_RefTverskyCombo>
0.331 

> <ROCS_FitTversky>
1.598 

> <ROCS_FitColorTversky>
0.768 

> <ROCS_FitTverskyCombo>
2.366 

> <ROCS_ColorScore>
-5.073

> <ROCS_Overlap>
2219.596

> <ROCS_Rank>
76                  

$$$$
untitled-dbase-179_0
  -OEChem-02082415003D

 27 28  0     0  0  0  0  0  0999 V2000
    5.2738   12.7910   25.4585 C   0  0  0  0  0  0  0  0  0  0  0  0
    6.0189   11.7960   26.0912 C   0  0  0  0  0  0  0  0  0  0  0  0
    5.7986   13.4577   24.3513 C   0  0  0  0  0  0  0  0  0  0  0  0
    7.2889   11.4677   25.6169 C   0  0  0  0  0  0  0  0  0  0  0  0
   10.8040   10.7105   23.2718 C   0  0  0  0  0  0  0  0  0  0  0  0
    7.0686   13.1295   23.8770 C   0  0  0  0  0  0  0  0  0  0  0  0
    7.8137   12.1344   24.5097 C   0  0  0  0  0  0  0  0  0  0  0  0
   11.0961   12.0594   23.5492 C   0  0  0  0  0  0  0  0  0  0  0  0
    9.4810   10.5686   23.6125 C   0  0  0  0  0  0  0  0  0  0  0  0
   12.3813   12.7548   23.3668 C   0  0  0  0  0  0  0  0  0  0  0  0
    7.6024   13.8628   22.6886 C   0  0  0  0  0  0  0  0  0  0  0  0
   10.0433   12.7269   24.0290 N   0  0  0  0  0  0  0  0  0  0  0  0
    9.0768   11.7935   24.0557 N   0  0  0  0  0  0  0  0  0  0  0  0
    8.6515    9.5042   23.5659 N   0  0  0  0  0  0  0  0  0  0  0  0
    6.7423   14.8012   22.1971 F   0  0  0  0  0  0  0  0  0  0  0  0
    8.7620   14.5359   22.9416 F   0  0  0  0  0  0  0  0  0  0  0  0
    7.8784   13.0316   21.6436 F   0  0  0  0  0  0  0  0  0  0  0  0
    4.2847   13.0464   25.8275 H   0  0  0  0  0  0  0  0  0  0  0  0
    5.6103   11.2771   26.9534 H   0  0  0  0  0  0  0  0  0  0  0  0
    5.2099   14.2316   23.8660 H   0  0  0  0  0  0  0  0  0  0  0  0
    7.8569   10.6900   26.1217 H   0  0  0  0  0  0  0  0  0  0  0  0
   11.4618    9.9477   22.8793 H   0  0  0  0  0  0  0  0  0  0  0  0
   12.4565   13.2003   22.3599 H   0  0  0  0  0  0  0  0  0  0  0  0
   12.5239   13.5676   24.1012 H   0  0  0  0  0  0  0  0  0  0  0  0
   13.2443   12.0770   23.4955 H   0  0  0  0  0  0  0  0  0  0  0  0
    8.9494    8.5935   23.1864 H   0  0  0  0  0  0  0  0  0  0  0  0
    7.6549    9.5749   23.8188 H   0  0  0  0  0  0  0  0  0  0  0  0
  1  2  2  0  0  0  0
  1  3  1  0  0  0  0
  2  4  1  0  0  0  0
  3  6  2  0  0  0  0
  4  7  2  0  0  0  0
  5  8  1  0  0  0  0
  5  9  2  0  0  0  0
  6  7  1  0  0  0  0
  6 11  1  0  0  0  0
  7 13  1  0  0  0  0
  8 10  1  0  0  0  0
  8 12  2  0  0  0  0
  9 13  1  0  0  0  0
  9 14  1  0  0  0  0
 11 15  1  0  0  0  0
 11 16  1  0  0  0  0
 11 17  1  0  0  0  0
 12 13  1  0  0  0  0
  1 18  1  0  0  0  0
  2 19  1  0  0  0  0
  3 20  1  0  0  0  0
  4 21  1  0  0  0  0
  5 22  1  0  0  0  0
 10 23  1  0  0  0  0
 10 24  1  0  0  0  0
 10 25  1  0  0  0  0
 14 26  1  0  0  0  0
 14 27  1  0  0  0  0
M  END
> <Catalog ID>
Z55423090

> <PlateID>
1337959-R-04

> <Well>
F05

> <MW (desalted)>
241.212

> <CLogP>
2.715

> <HBD>
1

> <TPSA>
43.840

> <RotBonds>
2

> <ROCS_ShapeQuery>
x0446_0A_x1080_0A_x0929_0A_x0812_0A_x0719_0A_x1140_0A_x0528_0A_x0310_0A

> <ROCS_TanimotoCombo>
0.339 

> <ROCS_ShapeTanimoto>
0.230 

> <ROCS_ColorTanimoto>
0.109 

> <ROCS_RefTversky>
0.209 

> <ROCS_RefColorTversky>
0.117 

> <ROCS_RefTverskyCombo>
0.325 

> <ROCS_FitTversky>
1.791 

> <ROCS_FitColorTversky>
0.627 

> <ROCS_FitTverskyCombo>
2.418 

> <ROCS_ColorScore>
-4.146

> <ROCS_Overlap>
2464.142

> <ROCS_Rank>
77                  

$$$$
untitled-dbase-509_190
  -OEChem-02082415003D

 33 34  0     1  0  0  0  0  0999 V2000
   11.9324   14.4312   21.8488 C   0  0  0  0  0  0  0  0  0  0  0  0
   11.5187   15.7709   21.7503 C   0  0  0  0  0  0  0  0  0  0  0  0
   12.9184   14.4639   22.7990 C   0  0  0  0  0  0  0  0  0  0  0  0
   10.2658   12.5241   23.1767 C   0  0  0  0  0  0  0  0  0  0  0  0
    9.0375   11.6988   25.1991 C   0  0  0  0  0  0  0  0  0  0  0  0
    7.7527   10.1594   23.9230 C   0  0  0  0  0  0  0  0  0  0  0  0
    9.7875   11.3247   23.9253 C   0  0  1  0  0  0  0  0  0  0  0  0
    7.6046   11.2802   24.9259 C   0  0  1  0  0  0  0  0  0  0  0  0
   10.4757   16.3373   20.8784 C   0  0  0  0  0  0  0  0  0  0  0  0
   13.7865   13.4448   23.4033 C   0  0  0  0  0  0  0  0  0  0  0  0
   11.4186   13.2400   21.0931 C   0  0  0  0  0  0  0  0  0  0  0  0
   12.1963   16.5732   22.5762 N   0  0  0  0  0  0  0  0  0  0  0  0
    8.8208   10.6490   23.0580 N   0  0  0  0  0  0  0  0  0  0  0  0
   10.8835   12.2288   21.9764 N   0  0  0  0  0  0  0  0  0  0  0  0
   10.0886   13.6411   23.6485 O   0  0  0  0  0  0  0  0  0  0  0  0
   13.0852   15.7368   23.2408 O   0  0  0  0  0  0  0  0  0  0  0  0
    7.0174   10.8366   26.0595 F   0  0  0  0  0  0  0  0  0  0  0  0
    9.4296   11.1325   26.0525 H   0  0  0  0  0  0  0  0  0  0  0  0
    9.0947   12.7623   25.4538 H   0  0  0  0  0  0  0  0  0  0  0  0
    8.0380    9.2233   24.4172 H   0  0  0  0  0  0  0  0  0  0  0  0
    6.8277    9.9830   23.3671 H   0  0  0  0  0  0  0  0  0  0  0  0
   10.6438   10.6795   24.1484 H   0  0  0  0  0  0  0  0  0  0  0  0
    7.0173   12.1129   24.5226 H   0  0  0  0  0  0  0  0  0  0  0  0
    9.4902   16.3287   21.3749 H   0  0  0  0  0  0  0  0  0  0  0  0
   10.6939   17.3814   20.5910 H   0  0  0  0  0  0  0  0  0  0  0  0
   10.3754   15.7783   19.9308 H   0  0  0  0  0  0  0  0  0  0  0  0
   14.7273   13.3267   22.8360 H   0  0  0  0  0  0  0  0  0  0  0  0
   14.0601   13.6897   24.4468 H   0  0  0  0  0  0  0  0  0  0  0  0
   13.3018   12.4513   23.4473 H   0  0  0  0  0  0  0  0  0  0  0  0
   10.6244   13.5362   20.3992 H   0  0  0  0  0  0  0  0  0  0  0  0
   12.2142   12.7785   20.4989 H   0  0  0  0  0  0  0  0  0  0  0  0
    9.2581    9.8847   22.5465 H   0  0  0  0  0  0  0  0  0  0  0  0
   10.9654   11.2545   21.7017 H   0  0  0  0  0  0  0  0  0  0  0  0
  1  2  1  0  0  0  0
  1  3  2  0  0  0  0
  1 11  1  0  0  0  0
  2  9  1  0  0  0  0
  2 12  2  0  0  0  0
  3 10  1  0  0  0  0
  3 16  1  0  0  0  0
  4  7  1  1  0  0  0
  4 14  1  0  0  0  0
  4 15  2  0  0  0  0
  5  7  1  0  0  0  0
  5  8  1  0  0  0  0
  6  8  1  0  0  0  0
  6 13  1  0  0  0  0
  7 13  1  0  0  0  0
  8 17  1  6  0  0  0
 11 14  1  0  0  0  0
 12 16  1  0  0  0  0
  5 18  1  0  0  0  0
  5 19  1  0  0  0  0
  6 20  1  0  0  0  0
  6 21  1  0  0  0  0
  7 22  1  0  0  0  0
  8 23  1  0  0  0  0
  9 24  1  0  0  0  0
  9 25  1  0  0  0  0
  9 26  1  0  0  0  0
 10 27  1  0  0  0  0
 10 28  1  0  0  0  0
 10 29  1  0  0  0  0
 11 30  1  0  0  0  0
 11 31  1  0  0  0  0
 13 32  1  0  0  0  0
 14 33  1  0  0  0  0
M  END
> <Catalog ID>
Z2242004291

> <PlateID>
1337959-R-12

> <Well>
A08

> <MW (desalted)>
241.262

> <CLogP>
-0.451

> <HBD>
2

> <TPSA>
67.160

> <RotBonds>
3

> <ROCS_ShapeQuery>
x0446_0A_x1080_0A_x0929_0A_x0812_0A_x0719_0A_x1140_0A_x0528_0A_x0310_0A

> <ROCS_TanimotoCombo>
0.339 

> <ROCS_ShapeTanimoto>
0.195 

> <ROCS_ColorTanimoto>
0.144 

> <ROCS_RefTversky>
0.181 

> <ROCS_RefColorTversky>
0.156 

> <ROCS_RefTverskyCombo>
0.337 

> <ROCS_FitTversky>
1.603 

> <ROCS_FitColorTversky>
0.654 

> <ROCS_FitTverskyCombo>
2.258 

> <ROCS_ColorScore>
-5.569

> <ROCS_Overlap>
2140.827

> <ROCS_Rank>
78                  

$$$$
untitled-dbase-418_3
  -OEChem-02082415003D

 30 31  0     0  0  0  0  0  0999 V2000
    9.8567   15.3320   21.6999 C   0  0  0  0  0  0  0  0  0  0  0  0
    8.5588   10.5779   22.9387 C   0  0  0  0  0  0  0  0  0  0  0  0
    9.4378   11.3431   24.8032 C   0  0  0  0  0  0  0  0  0  0  0  0
    9.3361   11.6277   23.4634 C   0  0  0  0  0  0  0  0  0  0  0  0
   10.6646   13.7595   23.3416 C   0  0  0  0  0  0  0  0  0  0  0  0
   13.3652   14.5370   21.4928 C   0  0  0  0  0  0  0  0  0  0  0  0
   13.1776   15.9559   21.9943 C   0  0  0  0  0  0  0  0  0  0  0  0
   11.9399   14.0750   21.2124 C   0  0  0  0  0  0  0  0  0  0  0  0
   11.9667   15.8469   22.9144 C   0  0  0  0  0  0  0  0  0  0  0  0
   11.0740   14.7550   22.2917 C   0  0  0  0  0  0  0  0  0  0  0  0
    8.5622    9.4891   26.2435 C   0  0  0  0  0  0  0  0  0  0  0  0
    8.8968   15.7870   21.2334 N   0  0  0  0  0  0  0  0  0  0  0  0
    8.1928    9.6923   23.8692 N   0  0  0  0  0  0  0  0  0  0  0  0
    8.7426   10.1850   24.9922 N   0  0  0  0  0  0  0  0  0  0  0  0
    9.8993   12.7388   22.7920 N   0  0  0  0  0  0  0  0  0  0  0  0
   11.0078   13.9026   24.5106 O   0  0  0  0  0  0  0  0  0  0  0  0
    8.2418   10.4192   21.9177 H   0  0  0  0  0  0  0  0  0  0  0  0
    9.9335   11.8527   25.6188 H   0  0  0  0  0  0  0  0  0  0  0  0
   13.9990   14.4889   20.6027 H   0  0  0  0  0  0  0  0  0  0  0  0
   13.8191   13.9135   22.2722 H   0  0  0  0  0  0  0  0  0  0  0  0
   14.0614   16.3346   22.5156 H   0  0  0  0  0  0  0  0  0  0  0  0
   12.9578   16.6297   21.1577 H   0  0  0  0  0  0  0  0  0  0  0  0
   11.6519   14.4035   20.2049 H   0  0  0  0  0  0  0  0  0  0  0  0
   11.8791   12.9812   21.2237 H   0  0  0  0  0  0  0  0  0  0  0  0
   12.3103   15.5570   23.9158 H   0  0  0  0  0  0  0  0  0  0  0  0
   11.4670   16.8172   23.0148 H   0  0  0  0  0  0  0  0  0  0  0  0
    7.6553    9.8750   26.7164 H   0  0  0  0  0  0  0  0  0  0  0  0
    8.4674    8.4164   26.0533 H   0  0  0  0  0  0  0  0  0  0  0  0
    9.4321    9.6638   26.8829 H   0  0  0  0  0  0  0  0  0  0  0  0
    9.7156   12.7826   21.7918 H   0  0  0  0  0  0  0  0  0  0  0  0
  1 10  1  0  0  0  0
  1 12  3  0  0  0  0
  2  4  1  0  0  0  0
  2 13  2  0  0  0  0
  3  4  2  0  0  0  0
  3 14  1  0  0  0  0
  4 15  1  0  0  0  0
  5 10  1  0  0  0  0
  5 15  1  0  0  0  0
  5 16  2  0  0  0  0
  6  7  1  0  0  0  0
  6  8  1  0  0  0  0
  7  9  1  0  0  0  0
  8 10  1  0  0  0  0
  9 10  1  0  0  0  0
 11 14  1  0  0  0  0
 13 14  1  0  0  0  0
  2 17  1  0  0  0  0
  3 18  1  0  0  0  0
  6 19  1  0  0  0  0
  6 20  1  0  0  0  0
  7 21  1  0  0  0  0
  7 22  1  0  0  0  0
  8 23  1  0  0  0  0
  8 24  1  0  0  0  0
  9 25  1  0  0  0  0
  9 26  1  0  0  0  0
 11 27  1  0  0  0  0
 11 28  1  0  0  0  0
 11 29  1  0  0  0  0
 15 30  1  0  0  0  0
M  END
> <Catalog ID>
Z396116038

> <PlateID>
1337959-R-09

> <Well>
H04

> <MW (desalted)>
218.255

> <CLogP>
0.327

> <HBD>
1

> <TPSA>
70.710

> <RotBonds>
2

> <ROCS_ShapeQuery>
x0446_0A_x1080_0A_x0929_0A_x0812_0A_x0719_0A_x1140_0A_x0528_0A_x0310_0A

> <ROCS_TanimotoCombo>
0.339 

> <ROCS_ShapeTanimoto>
0.176 

> <ROCS_ColorTanimoto>
0.163 

> <ROCS_RefTversky>
0.166 

> <ROCS_RefColorTversky>
0.170 

> <ROCS_RefTverskyCombo>
0.336 

> <ROCS_FitTversky>
1.510 

> <ROCS_FitColorTversky>
0.800 

> <ROCS_FitTverskyCombo>
2.310 

> <ROCS_ColorScore>
-6.044

> <ROCS_Overlap>
1961.476

> <ROCS_Rank>
79                  

$$$$
untitled-dbase-571_12
  -OEChem-02082415003D

 33 35  0     0  0  0  0  0  0999 V2000
   11.1142   15.9614   21.8434 C   0  0  0  0  0  0  0  0  0  0  0  0
   12.4547   15.6805   21.7506 C   0  0  0  0  0  0  0  0  0  0  0  0
   11.4334   14.0980   22.7648 C   0  0  0  0  0  0  0  0  0  0  0  0
    9.1476   12.6430   24.6340 C   0  0  0  0  0  0  0  0  0  0  0  0
    9.3760   11.4680   22.6317 C   0  0  0  0  0  0  0  0  0  0  0  0
    5.7766   11.5321   24.9855 C   0  0  0  0  0  0  0  0  0  0  0  0
    7.1608   11.0283   25.4376 C   0  0  0  0  0  0  0  0  0  0  0  0
    6.4811   12.7474   24.3520 C   0  0  0  0  0  0  0  0  0  0  0  0
    7.7861   11.9218   24.3444 C   0  0  0  0  0  0  0  0  0  0  0  0
   10.3813   17.1399   21.3596 C   0  0  0  0  0  0  0  0  0  0  0  0
   13.6207   16.3652   21.1825 C   0  0  0  0  0  0  0  0  0  0  0  0
   11.3504   12.7770   23.4736 C   0  0  0  0  0  0  0  0  0  0  0  0
   10.4649   14.9436   22.4941 N   0  0  0  0  0  0  0  0  0  0  0  0
    8.0629   11.2274   23.0710 N   0  0  0  0  0  0  0  0  0  0  0  0
    9.9842   12.3035   23.5805 N   0  0  0  0  0  0  0  0  0  0  0  0
    9.4332   13.3622   25.5854 O   0  0  0  0  0  0  0  0  0  0  0  0
    9.8727   11.0206   21.6057 O   0  0  0  0  0  0  0  0  0  0  0  0
   12.6723   14.4743   22.3451 O   0  0  0  0  0  0  0  0  0  0  0  0
    5.2379   10.8811   24.2915 H   0  0  0  0  0  0  0  0  0  0  0  0
    5.1108   11.7938   25.8164 H   0  0  0  0  0  0  0  0  0  0  0  0
    7.4271   11.2758   26.4708 H   0  0  0  0  0  0  0  0  0  0  0  0
    7.3092    9.9510   25.2875 H   0  0  0  0  0  0  0  0  0  0  0  0
    6.0994   13.0076   23.3560 H   0  0  0  0  0  0  0  0  0  0  0  0
    6.4874   13.6517   24.9696 H   0  0  0  0  0  0  0  0  0  0  0  0
   10.0192   16.9938   20.3262 H   0  0  0  0  0  0  0  0  0  0  0  0
    9.5015   17.3744   21.9871 H   0  0  0  0  0  0  0  0  0  0  0  0
   11.0045   18.0534   21.3647 H   0  0  0  0  0  0  0  0  0  0  0  0
   14.1052   17.0268   21.9243 H   0  0  0  0  0  0  0  0  0  0  0  0
   14.3923   15.6583   20.8215 H   0  0  0  0  0  0  0  0  0  0  0  0
   13.3592   16.9909   20.3075 H   0  0  0  0  0  0  0  0  0  0  0  0
   11.9305   12.0158   22.9405 H   0  0  0  0  0  0  0  0  0  0  0  0
   11.7604   12.8481   24.4865 H   0  0  0  0  0  0  0  0  0  0  0  0
    7.4118   10.6482   22.5549 H   0  0  0  0  0  0  0  0  0  0  0  0
  1  2  2  0  0  0  0
  1 10  1  0  0  0  0
  1 13  1  0  0  0  0
  2 11  1  0  0  0  0
  2 18  1  0  0  0  0
  3 12  1  0  0  0  0
  3 13  2  0  0  0  0
  3 18  1  0  0  0  0
  4  9  1  0  0  0  0
  4 15  1  0  0  0  0
  4 16  2  0  0  0  0
  5 14  1  0  0  0  0
  5 15  1  0  0  0  0
  5 17  2  0  0  0  0
  6  7  1  0  0  0  0
  6  8  1  0  0  0  0
  7  9  1  0  0  0  0
  8  9  1  0  0  0  0
  9 14  1  0  0  0  0
 12 15  1  0  0  0  0
  6 19  1  0  0  0  0
  6 20  1  0  0  0  0
  7 21  1  0  0  0  0
  7 22  1  0  0  0  0
  8 23  1  0  0  0  0
  8 24  1  0  0  0  0
 10 25  1  0  0  0  0
 10 26  1  0  0  0  0
 10 27  1  0  0  0  0
 11 28  1  0  0  0  0
 11 29  1  0  0  0  0
 11 30  1  0  0  0  0
 12 31  1  0  0  0  0
 12 32  1  0  0  0  0
 14 33  1  0  0  0  0
M  END
> <Catalog ID>
Z995472128

> <PlateID>
1337959-R-13

> <Well>
D03

> <MW (desalted)>
249.266

> <CLogP>
-0.257

> <HBD>
1

> <TPSA>
75.440

> <RotBonds>
2

> <ROCS_ShapeQuery>
x0446_0A_x1080_0A_x0929_0A_x0812_0A_x0719_0A_x1140_0A_x0528_0A_x0310_0A

> <ROCS_TanimotoCombo>
0.339 

> <ROCS_ShapeTanimoto>
0.218 

> <ROCS_ColorTanimoto>
0.120 

> <ROCS_RefTversky>
0.200 

> <ROCS_RefColorTversky>
0.133 

> <ROCS_RefTverskyCombo>
0.333 

> <ROCS_FitTversky>
1.685 

> <ROCS_FitColorTversky>
0.557 

> <ROCS_FitTverskyCombo>
2.242 

> <ROCS_ColorScore>
-4.746

> <ROCS_Overlap>
2366.536

> <ROCS_Rank>
80                  

$$$$
untitled-dbase-485_3
  -OEChem-02082415003D

 28 29  0     0  0  0  0  0  0999 V2000
    7.6544   11.3693   20.5910 C   0  0  0  0  0  0  0  0  0  0  0  0
    7.5618   10.4813   21.6589 C   0  0  0  0  0  0  0  0  0  0  0  0
    8.4103   12.5272   20.7256 C   0  0  0  0  0  0  0  0  0  0  0  0
    8.1506    9.8740   23.9580 C   0  0  0  0  0  0  0  0  0  0  0  0
    9.5462   11.3402   25.1838 C   0  0  0  0  0  0  0  0  0  0  0  0
    8.2268   10.7505   22.8672 C   0  0  0  0  0  0  0  0  0  0  0  0
    8.8188   10.1682   25.1378 C   0  0  0  0  0  0  0  0  0  0  0  0
    8.9959   11.9243   23.0110 C   0  0  0  0  0  0  0  0  0  0  0  0
    9.0714   12.7946   21.9270 C   0  0  0  0  0  0  0  0  0  0  0  0
    8.7534    9.2545   26.3087 C   0  0  0  0  0  0  0  0  0  0  0  0
   11.1787   14.1404   19.5424 C   0  0  0  0  0  0  0  0  0  0  0  0
    9.6455   12.2125   24.1546 N   0  0  0  0  0  0  0  0  0  0  0  0
   11.3216   13.9426   20.9919 N   0  0  0  0  0  0  0  0  0  0  0  0
    9.2229   15.3589   21.4675 O   0  0  0  0  0  0  0  0  0  0  0  0
   10.5059   14.3786   23.3955 O   0  0  0  0  0  0  0  0  0  0  0  0
   10.0098   14.2744   22.0328 S   0  0  0  0  0  0  0  0  0  0  0  0
    7.1392   11.1579   19.6591 H   0  0  0  0  0  0  0  0  0  0  0  0
    6.9674    9.5777   21.5429 H   0  0  0  0  0  0  0  0  0  0  0  0
    8.4799   13.2177   19.8892 H   0  0  0  0  0  0  0  0  0  0  0  0
    7.5670    8.9582   23.8855 H   0  0  0  0  0  0  0  0  0  0  0  0
   10.0922   11.6298   26.0765 H   0  0  0  0  0  0  0  0  0  0  0  0
    9.5656    8.5159   26.2686 H   0  0  0  0  0  0  0  0  0  0  0  0
    8.8368    9.8064   27.2559 H   0  0  0  0  0  0  0  0  0  0  0  0
    7.7972    8.7129   26.3445 H   0  0  0  0  0  0  0  0  0  0  0  0
   10.4046   14.8978   19.3498 H   0  0  0  0  0  0  0  0  0  0  0  0
   12.1368   14.4805   19.1226 H   0  0  0  0  0  0  0  0  0  0  0  0
   10.8878   13.1906   19.0698 H   0  0  0  0  0  0  0  0  0  0  0  0
   12.0228   13.2516   21.2854 H   0  0  0  0  0  0  0  0  0  0  0  0
  1  2  2  0  0  0  0
  1  3  1  0  0  0  0
  2  6  1  0  0  0  0
  3  9  2  0  0  0  0
  4  6  2  0  0  0  0
  4  7  1  0  0  0  0
  5  7  2  0  0  0  0
  5 12  1  0  0  0  0
  6  8  1  0  0  0  0
  7 10  1  0  0  0  0
  8  9  1  0  0  0  0
  8 12  2  0  0  0  0
  9 16  1  0  0  0  0
 11 13  1  0  0  0  0
 13 16  1  0  0  0  0
 14 16  2  0  0  0  0
 15 16  2  0  0  0  0
  1 17  1  0  0  0  0
  2 18  1  0  0  0  0
  3 19  1  0  0  0  0
  4 20  1  0  0  0  0
  5 21  1  0  0  0  0
 10 22  1  0  0  0  0
 10 23  1  0  0  0  0
 10 24  1  0  0  0  0
 11 25  1  0  0  0  0
 11 26  1  0  0  0  0
 11 27  1  0  0  0  0
 13 28  1  0  0  0  0
M  END
> <Catalog ID>
Z271165436

> <PlateID>
1337959-R-11

> <Well>
F04

> <MW (desalted)>
236.290

> <CLogP>
2.115

> <HBD>
1

> <TPSA>
59.060

> <RotBonds>
1

> <ROCS_ShapeQuery>
x0446_0A_x1080_0A_x0929_0A_x0812_0A_x0719_0A_x1140_0A_x0528_0A_x0310_0A

> <ROCS_TanimotoCombo>
0.338 

> <ROCS_ShapeTanimoto>
0.155 

> <ROCS_ColorTanimoto>
0.183 

> <ROCS_RefTversky>
0.149 

> <ROCS_RefColorTversky>
0.188 

> <ROCS_RefTverskyCombo>
0.337 

> <ROCS_FitTversky>
1.366 

> <ROCS_FitColorTversky>
0.885 

> <ROCS_FitTverskyCombo>
2.250 

> <ROCS_ColorScore>
-6.696

> <ROCS_Overlap>
1755.904

> <ROCS_Rank>
81                  

$$$$
untitled-dbase-513_22
  -OEChem-02082415003D

 32 33  0     1  0  0  0  0  0999 V2000
    8.4054   10.4312   25.0723 C   0  0  0  0  0  0  0  0  0  0  0  0
    9.5752   10.0424   24.4196 C   0  0  0  0  0  0  0  0  0  0  0  0
    8.2839   12.4022   23.6803 C   0  0  0  0  0  0  0  0  0  0  0  0
    9.4537   12.0134   23.0276 C   0  0  0  0  0  0  0  0  0  0  0  0
    7.7597   11.6112   24.7026 C   0  0  0  0  0  0  0  0  0  0  0  0
   10.0993   10.8335   23.3973 C   0  0  0  0  0  0  0  0  0  0  0  0
   10.0051   12.8515   21.9492 C   0  0  0  0  0  0  0  0  0  0  0  0
    9.9646   15.9051   21.2987 C   0  0  0  0  0  0  0  0  0  0  0  0
   12.9812   14.7249   22.9765 C   0  0  0  0  0  0  0  0  0  0  0  0
   12.2623   15.7829   22.1497 C   0  0  0  0  0  0  0  0  0  0  0  0
   11.8484   13.8153   23.4219 C   0  0  0  0  0  0  0  0  0  0  0  0
   11.1653   14.9939   21.4380 C   0  0  1  0  0  0  0  0  0  0  0  0
    6.5091   12.0268   25.4006 C   0  0  0  0  0  0  0  0  0  0  0  0
   10.9139   13.8416   22.2995 N   0  0  0  0  0  0  0  0  0  0  0  0
    9.6215   12.6194   20.8041 O   0  0  0  0  0  0  0  0  0  0  0  0
    8.8003   15.5344   21.2833 O   0  0  0  0  0  0  0  0  0  0  0  0
   10.3553   17.1984   21.1897 O   0  0  0  0  0  0  0  0  0  0  0  0
   11.2243   10.4506   22.7769 F   0  0  0  0  0  0  0  0  0  0  0  0
    8.0050    9.8093   25.8685 H   0  0  0  0  0  0  0  0  0  0  0  0
   10.0782    9.1242   24.7080 H   0  0  0  0  0  0  0  0  0  0  0  0
    7.7787   13.3221   23.3938 H   0  0  0  0  0  0  0  0  0  0  0  0
   13.7402   14.1917   22.3971 H   0  0  0  0  0  0  0  0  0  0  0  0
   13.4687   15.1812   23.8456 H   0  0  0  0  0  0  0  0  0  0  0  0
   11.8777   16.5928   22.7781 H   0  0  0  0  0  0  0  0  0  0  0  0
   12.9524   16.2114   21.4125 H   0  0  0  0  0  0  0  0  0  0  0  0
   12.1904   12.7848   23.5527 H   0  0  0  0  0  0  0  0  0  0  0  0
   11.3669   14.1572   24.3398 H   0  0  0  0  0  0  0  0  0  0  0  0
   11.4830   14.6878   20.4263 H   0  0  0  0  0  0  0  0  0  0  0  0
    6.7464   12.6544   26.2684 H   0  0  0  0  0  0  0  0  0  0  0  0
    5.8489   12.5938   24.7314 H   0  0  0  0  0  0  0  0  0  0  0  0
    5.9377   11.1557   25.7470 H   0  0  0  0  0  0  0  0  0  0  0  0
    9.5904   17.8056   21.0965 H   0  0  0  0  0  0  0  0  0  0  0  0
  1  2  1  0  0  0  0
  1  5  2  0  0  0  0
  2  6  2  0  0  0  0
  3  4  2  0  0  0  0
  3  5  1  0  0  0  0
  4  6  1  0  0  0  0
  4  7  1  0  0  0  0
  5 13  1  0  0  0  0
  6 18  1  0  0  0  0
  7 14  1  0  0  0  0
  7 15  2  0  0  0  0
  8 12  1  6  0  0  0
  8 16  2  0  0  0  0
  8 17  1  0  0  0  0
  9 10  1  0  0  0  0
  9 11  1  0  0  0  0
 10 12  1  0  0  0  0
 11 14  1  0  0  0  0
 12 14  1  0  0  0  0
  1 19  1  0  0  0  0
  2 20  1  0  0  0  0
  3 21  1  0  0  0  0
  9 22  1  0  0  0  0
  9 23  1  0  0  0  0
 10 24  1  0  0  0  0
 10 25  1  0  0  0  0
 11 26  1  0  0  0  0
 11 27  1  0  0  0  0
 12 28  1  0  0  0  0
 13 29  1  0  0  0  0
 13 30  1  0  0  0  0
 13 31  1  0  0  0  0
 17 32  1  0  0  0  0
M  END
> <Catalog ID>
Z1078498278

> <PlateID>
1337959-R-12

> <Well>
B06

> <MW (desalted)>
251.254

> <CLogP>
1.881

> <HBD>
1

> <TPSA>
57.610

> <RotBonds>
2

> <ROCS_ShapeQuery>
x0446_0A_x1080_0A_x0929_0A_x0812_0A_x0719_0A_x1140_0A_x0528_0A_x0310_0A

> <ROCS_TanimotoCombo>
0.338 

> <ROCS_ShapeTanimoto>
0.223 

> <ROCS_ColorTanimoto>
0.115 

> <ROCS_RefTversky>
0.204 

> <ROCS_RefColorTversky>
0.125 

> <ROCS_RefTverskyCombo>
0.329 

> <ROCS_FitTversky>
1.738 

> <ROCS_FitColorTversky>
0.589 

> <ROCS_FitTverskyCombo>
2.327 

> <ROCS_ColorScore>
-4.456

> <ROCS_Overlap>
2408.275

> <ROCS_Rank>
82                  

$$$$
untitled-dbase-452_40
  -OEChem-02082415003D

 36 37  0     1  0  0  0  0  0999 V2000
    7.8081   11.5911   24.8929 C   0  0  0  0  0  0  0  0  0  0  0  0
    7.2676   10.6096   24.0622 C   0  0  0  0  0  0  0  0  0  0  0  0
    8.9188   12.3242   24.4751 C   0  0  0  0  0  0  0  0  0  0  0  0
    7.8380   10.3610   22.8138 C   0  0  0  0  0  0  0  0  0  0  0  0
    9.4892   12.0757   23.2267 C   0  0  0  0  0  0  0  0  0  0  0  0
    8.9488   11.0941   22.3960 C   0  0  0  0  0  0  0  0  0  0  0  0
   11.2759   13.8373   23.5216 C   0  0  0  0  0  0  0  0  0  0  0  0
   13.2131   16.5505   21.8181 C   0  0  0  0  0  0  0  0  0  0  0  0
   12.5333   15.8129   20.6703 C   0  0  0  0  0  0  0  0  0  0  0  0
   13.0638   15.5950   22.9917 C   0  0  0  0  0  0  0  0  0  0  0  0
   11.3714   15.0844   21.3471 C   0  0  2  0  0  0  0  0  0  0  0  0
    8.9803   11.5783   20.0678 C   0  0  0  0  0  0  0  0  0  0  0  0
   10.1046   15.9379   21.3860 C   0  0  0  0  0  0  0  0  0  0  0  0
   11.8679   14.8063   22.6971 N   0  0  0  0  0  0  0  0  0  0  0  0
   10.6176   12.8282   22.8168 N   0  0  0  0  0  0  0  0  0  0  0  0
   11.3487   13.9089   24.7497 O   0  0  0  0  0  0  0  0  0  0  0  0
    8.9927   15.0820   21.5698 O   0  0  0  0  0  0  0  0  0  0  0  0
    9.4909   10.8352   21.1724 O   0  0  0  0  0  0  0  0  0  0  0  0
    7.3635   11.7848   25.8647 H   0  0  0  0  0  0  0  0  0  0  0  0
    6.4024   10.0393   24.3872 H   0  0  0  0  0  0  0  0  0  0  0  0
    9.3310   13.0867   25.1313 H   0  0  0  0  0  0  0  0  0  0  0  0
    7.4117    9.5949   22.1716 H   0  0  0  0  0  0  0  0  0  0  0  0
   14.2593   16.7822   21.5995 H   0  0  0  0  0  0  0  0  0  0  0  0
   12.6895   17.4907   22.0260 H   0  0  0  0  0  0  0  0  0  0  0  0
   12.2186   16.4920   19.8724 H   0  0  0  0  0  0  0  0  0  0  0  0
   13.2296   15.0816   20.2415 H   0  0  0  0  0  0  0  0  0  0  0  0
   13.9133   14.9066   23.0578 H   0  0  0  0  0  0  0  0  0  0  0  0
   12.9538   16.1213   23.9444 H   0  0  0  0  0  0  0  0  0  0  0  0
   11.1493   14.1397   20.8386 H   0  0  0  0  0  0  0  0  0  0  0  0
    9.4972   11.2755   19.1539 H   0  0  0  0  0  0  0  0  0  0  0  0
    9.1284   12.6463   20.2463 H   0  0  0  0  0  0  0  0  0  0  0  0
    7.9121   11.3729   19.9646 H   0  0  0  0  0  0  0  0  0  0  0  0
    9.9938   16.4782   20.4467 H   0  0  0  0  0  0  0  0  0  0  0  0
   10.1590   16.6433   22.2141 H   0  0  0  0  0  0  0  0  0  0  0  0
   11.0056   12.5937   21.8590 H   0  0  0  0  0  0  0  0  0  0  0  0
    8.1992   15.6441   21.5917 H   0  0  0  0  0  0  0  0  0  0  0  0
  1  2  2  0  0  0  0
  1  3  1  0  0  0  0
  2  4  1  0  0  0  0
  3  5  2  0  0  0  0
  4  6  2  0  0  0  0
  5  6  1  0  0  0  0
  5 15  1  0  0  0  0
  6 18  1  0  0  0  0
  7 14  1  0  0  0  0
  7 15  1  0  0  0  0
  7 16  2  0  0  0  0
  8  9  1  0  0  0  0
  8 10  1  0  0  0  0
  9 11  1  0  0  0  0
 10 14  1  0  0  0  0
 11 13  1  6  0  0  0
 11 14  1  0  0  0  0
 12 18  1  0  0  0  0
 13 17  1  0  0  0  0
  1 19  1  0  0  0  0
  2 20  1  0  0  0  0
  3 21  1  0  0  0  0
  4 22  1  0  0  0  0
  8 23  1  0  0  0  0
  8 24  1  0  0  0  0
  9 25  1  0  0  0  0
  9 26  1  0  0  0  0
 10 27  1  0  0  0  0
 10 28  1  0  0  0  0
 11 29  1  0  0  0  0
 12 30  1  0  0  0  0
 12 31  1  0  0  0  0
 12 32  1  0  0  0  0
 13 33  1  0  0  0  0
 13 34  1  0  0  0  0
 15 35  1  0  0  0  0
 17 36  1  0  0  0  0
M  END
> <Catalog ID>
Z926912024

> <PlateID>
1337959-R-10

> <Well>
G04

> <MW (desalted)>
250.294

> <CLogP>
0.940

> <HBD>
2

> <TPSA>
61.800

> <RotBonds>
3

> <ROCS_ShapeQuery>
x0446_0A_x1080_0A_x0929_0A_x0812_0A_x0719_0A_x1140_0A_x0528_0A_x0310_0A

> <ROCS_TanimotoCombo>
0.338 

> <ROCS_ShapeTanimoto>
0.199 

> <ROCS_ColorTanimoto>
0.139 

> <ROCS_RefTversky>
0.185 

> <ROCS_RefColorTversky>
0.151 

> <ROCS_RefTverskyCombo>
0.337 

> <ROCS_FitTversky>
1.589 

> <ROCS_FitColorTversky>
0.634 

> <ROCS_FitTverskyCombo>
2.223 

> <ROCS_ColorScore>
-5.399

> <ROCS_Overlap>
2186.267

> <ROCS_Rank>
83                  

$$$$
untitled-dbase-230_2
  -OEChem-02082415003D

 28 29  0     0  0  0  0  0  0999 V2000
   13.3483   13.8752   24.0549 C   0  0  0  0  0  0  0  0  0  0  0  0
   12.1680   15.6558   21.0123 C   0  0  0  0  0  0  0  0  0  0  0  0
    8.1353   10.3600   23.4771 C   0  0  0  0  0  0  0  0  0  0  0  0
   10.7842   15.5465   21.1487 C   0  0  0  0  0  0  0  0  0  0  0  0
    9.4729   10.3748   23.0822 C   0  0  0  0  0  0  0  0  0  0  0  0
   13.0098   15.1012   21.9764 C   0  0  0  0  0  0  0  0  0  0  0  0
    7.5923   11.4593   24.1424 C   0  0  0  0  0  0  0  0  0  0  0  0
   10.2421   14.8826   22.2491 C   0  0  0  0  0  0  0  0  0  0  0  0
   10.2677   11.4887   23.3526 C   0  0  0  0  0  0  0  0  0  0  0  0
   12.4678   14.4373   23.0769 C   0  0  0  0  0  0  0  0  0  0  0  0
    8.3871   12.5732   24.4128 C   0  0  0  0  0  0  0  0  0  0  0  0
   11.0839   14.3280   23.2133 C   0  0  0  0  0  0  0  0  0  0  0  0
    9.7248   12.5880   24.0179 C   0  0  0  0  0  0  0  0  0  0  0  0
    7.7892   13.7405   25.1261 C   0  0  0  0  0  0  0  0  0  0  0  0
   14.0624   13.4194   24.8479 N   0  0  0  0  0  0  0  0  0  0  0  0
    6.9563   14.4642   24.2293 O   0  0  0  0  0  0  0  0  0  0  0  0
   10.5273   13.6844   24.2790 O   0  0  0  0  0  0  0  0  0  0  0  0
   12.5899   16.1728   20.1554 H   0  0  0  0  0  0  0  0  0  0  0  0
    7.5160    9.4926   23.2673 H   0  0  0  0  0  0  0  0  0  0  0  0
   10.1288   15.9783   20.3980 H   0  0  0  0  0  0  0  0  0  0  0  0
    9.8955    9.5184   22.5651 H   0  0  0  0  0  0  0  0  0  0  0  0
   14.0864   15.1952   21.8551 H   0  0  0  0  0  0  0  0  0  0  0  0
    6.5494   11.4374   24.4472 H   0  0  0  0  0  0  0  0  0  0  0  0
    9.1631   14.8012   22.3489 H   0  0  0  0  0  0  0  0  0  0  0  0
   11.3092   11.4943   23.0426 H   0  0  0  0  0  0  0  0  0  0  0  0
    7.1852   13.4175   25.9843 H   0  0  0  0  0  0  0  0  0  0  0  0
    8.5693   14.4135   25.5059 H   0  0  0  0  0  0  0  0  0  0  0  0
    6.5892   15.2107   24.7294 H   0  0  0  0  0  0  0  0  0  0  0  0
  1 10  1  0  0  0  0
  1 15  3  0  0  0  0
  2  4  2  0  0  0  0
  2  6  1  0  0  0  0
  3  5  2  0  0  0  0
  3  7  1  0  0  0  0
  4  8  1  0  0  0  0
  5  9  1  0  0  0  0
  6 10  2  0  0  0  0
  7 11  2  0  0  0  0
  8 12  2  0  0  0  0
  9 13  2  0  0  0  0
 10 12  1  0  0  0  0
 11 13  1  0  0  0  0
 11 14  1  0  0  0  0
 12 17  1  0  0  0  0
 13 17  1  0  0  0  0
 14 16  1  0  0  0  0
  2 18  1  0  0  0  0
  3 19  1  0  0  0  0
  4 20  1  0  0  0  0
  5 21  1  0  0  0  0
  6 22  1  0  0  0  0
  7 23  1  0  0  0  0
  8 24  1  0  0  0  0
  9 25  1  0  0  0  0
 14 26  1  0  0  0  0
 14 27  1  0  0  0  0
 16 28  1  0  0  0  0
M  END
> <Catalog ID>
Z362022872

> <PlateID>
1337959-R-05

> <Well>
F03

> <MW (desalted)>
225.243

> <CLogP>
2.635

> <HBD>
1

> <TPSA>
53.250

> <RotBonds>
3

> <ROCS_ShapeQuery>
x0446_0A_x1080_0A_x0929_0A_x0812_0A_x0719_0A_x1140_0A_x0528_0A_x0310_0A

> <ROCS_TanimotoCombo>
0.338 

> <ROCS_ShapeTanimoto>
0.215 

> <ROCS_ColorTanimoto>
0.123 

> <ROCS_RefTversky>
0.197 

> <ROCS_RefColorTversky>
0.132 

> <ROCS_RefTverskyCombo>
0.330 

> <ROCS_FitTversky>
1.733 

> <ROCS_FitColorTversky>
0.624 

> <ROCS_FitTverskyCombo>
2.358 

> <ROCS_ColorScore>
-4.721

> <ROCS_Overlap>
2327.933

> <ROCS_Rank>
84                  

$$$$
untitled-dbase-425_5
  -OEChem-02082415003D

 38 40  0     1  0  0  0  0  0999 V2000
    9.8572   13.9931   22.3504 C   0  0  0  0  0  0  0  0  0  0  0  0
   12.1986   16.1179   22.4971 C   0  0  0  0  0  0  0  0  0  0  0  0
    6.7305   13.1078   26.3313 C   0  0  0  0  0  0  0  0  0  0  0  0
   12.1072   14.7575   23.1458 C   0  0  0  0  0  0  0  0  0  0  0  0
    7.9879   12.3642   25.8830 C   0  0  0  0  0  0  0  0  0  0  0  0
    9.0257   10.8438   24.1245 C   0  0  0  0  0  0  0  0  0  0  0  0
   10.0898   11.8160   23.6326 C   0  0  0  0  0  0  0  0  0  0  0  0
    7.9176   12.8236   23.3788 C   0  0  0  0  0  0  0  0  0  0  0  0
    5.4887   12.2541   26.1243 C   0  0  0  0  0  0  0  0  0  0  0  0
   12.3229   15.7599   21.0334 C   0  0  0  0  0  0  0  0  0  0  0  0
    6.5024   10.9747   24.4119 C   0  0  0  0  0  0  0  0  0  0  0  0
   11.3350   13.9537   22.1169 C   0  0  2  0  0  0  0  0  0  0  0  0
    7.8265   11.7459   24.4753 C   0  0  2  0  0  0  0  0  0  0  0  0
    9.3397   12.9368   23.0791 N   0  0  0  0  0  0  0  0  0  0  0  0
    9.1796   14.9197   21.9025 O   0  0  0  0  0  0  0  0  0  0  0  0
    5.4013   11.8093   24.7721 O   0  0  0  0  0  0  0  0  0  0  0  0
   11.5590   14.5616   20.8418 O   0  0  0  0  0  0  0  0  0  0  0  0
   11.2713   16.6767   22.6702 H   0  0  0  0  0  0  0  0  0  0  0  0
   13.0338   16.7218   22.8612 H   0  0  0  0  0  0  0  0  0  0  0  0
    6.8197   13.3986   27.3850 H   0  0  0  0  0  0  0  0  0  0  0  0
    6.6369   14.0322   25.7459 H   0  0  0  0  0  0  0  0  0  0  0  0
   13.1135   14.3360   23.2507 H   0  0  0  0  0  0  0  0  0  0  0  0
   11.6433   14.7856   24.1355 H   0  0  0  0  0  0  0  0  0  0  0  0
    8.8490   13.0447   25.9126 H   0  0  0  0  0  0  0  0  0  0  0  0
    8.2025   11.5632   26.6046 H   0  0  0  0  0  0  0  0  0  0  0  0
    8.7844   10.0852   23.3737 H   0  0  0  0  0  0  0  0  0  0  0  0
    9.3922   10.3279   25.0207 H   0  0  0  0  0  0  0  0  0  0  0  0
   10.7544   12.1486   24.4345 H   0  0  0  0  0  0  0  0  0  0  0  0
   10.6929   11.3811   22.8290 H   0  0  0  0  0  0  0  0  0  0  0  0
    7.3560   12.5885   22.4690 H   0  0  0  0  0  0  0  0  0  0  0  0
    7.5904   13.8064   23.7382 H   0  0  0  0  0  0  0  0  0  0  0  0
    5.4847   11.3866   26.7945 H   0  0  0  0  0  0  0  0  0  0  0  0
    4.5916   12.8427   26.3409 H   0  0  0  0  0  0  0  0  0  0  0  0
   11.9469   16.5467   20.3735 H   0  0  0  0  0  0  0  0  0  0  0  0
   13.3623   15.5426   20.7642 H   0  0  0  0  0  0  0  0  0  0  0  0
    6.3021   10.6003   23.4014 H   0  0  0  0  0  0  0  0  0  0  0  0
    6.5165   10.1011   25.0772 H   0  0  0  0  0  0  0  0  0  0  0  0
   11.6471   12.9048   22.0869 H   0  0  0  0  0  0  0  0  0  0  0  0
  1 12  1  6  0  0  0
  1 14  1  0  0  0  0
  1 15  2  0  0  0  0
  2  4  1  0  0  0  0
  2 10  1  0  0  0  0
  3  5  1  0  0  0  0
  3  9  1  0  0  0  0
  4 12  1  0  0  0  0
  5 13  1  0  0  0  0
  6  7  1  0  0  0  0
  6 13  1  0  0  0  0
  7 14  1  0  0  0  0
  8 13  1  0  0  0  0
  8 14  1  0  0  0  0
  9 16  1  0  0  0  0
 10 17  1  0  0  0  0
 11 13  1  0  0  0  0
 11 16  1  0  0  0  0
 12 17  1  0  0  0  0
  2 18  1  0  0  0  0
  2 19  1  0  0  0  0
  3 20  1  0  0  0  0
  3 21  1  0  0  0  0
  4 22  1  0  0  0  0
  4 23  1  0  0  0  0
  5 24  1  0  0  0  0
  5 25  1  0  0  0  0
  6 26  1  0  0  0  0
  6 27  1  0  0  0  0
  7 28  1  0  0  0  0
  7 29  1  0  0  0  0
  8 30  1  0  0  0  0
  8 31  1  0  0  0  0
  9 32  1  0  0  0  0
  9 33  1  0  0  0  0
 10 34  1  0  0  0  0
 10 35  1  0  0  0  0
 11 36  1  0  0  0  0
 11 37  1  0  0  0  0
 12 38  1  0  0  0  0
M  END
> <Catalog ID>
Z2044981890

> <PlateID>
1337959-R-10

> <Well>
A07

> <MW (desalted)>
239.311

> <CLogP>
0.464

> <HBD>
0

> <TPSA>
38.770

> <RotBonds>
1

> <ROCS_ShapeQuery>
x0446_0A_x1080_0A_x0929_0A_x0812_0A_x0719_0A_x1140_0A_x0528_0A_x0310_0A

> <ROCS_TanimotoCombo>
0.338 

> <ROCS_ShapeTanimoto>
0.206 

> <ROCS_ColorTanimoto>
0.132 

> <ROCS_RefTversky>
0.190 

> <ROCS_RefColorTversky>
0.141 

> <ROCS_RefTverskyCombo>
0.331 

> <ROCS_FitTversky>
1.677 

> <ROCS_FitColorTversky>
0.665 

> <ROCS_FitTverskyCombo>
2.342 

> <ROCS_ColorScore>
-5.030

> <ROCS_Overlap>
2245.072

> <ROCS_Rank>
85                  

$$$$
untitled-dbase-466_4
  -OEChem-02082415003D

 35 36  0     0  0  0  0  0  0999 V2000
    9.1762   10.1035   24.0919 C   0  0  0  0  0  0  0  0  0  0  0  0
    8.1617   10.8276   24.7180 C   0  0  0  0  0  0  0  0  0  0  0  0
    8.7083   12.7576   23.3714 C   0  0  0  0  0  0  0  0  0  0  0  0
    9.7228   12.0335   22.7453 C   0  0  0  0  0  0  0  0  0  0  0  0
    9.9568   10.7064   23.1056 C   0  0  0  0  0  0  0  0  0  0  0  0
    7.9277   12.1547   24.3578 C   0  0  0  0  0  0  0  0  0  0  0  0
   10.5259   12.6885   21.7175 C   0  0  0  0  0  0  0  0  0  0  0  0
   12.8046   15.5797   22.0047 C   0  0  0  0  0  0  0  0  0  0  0  0
   11.8285   15.8528   23.1417 C   0  0  0  0  0  0  0  0  0  0  0  0
   12.0551   14.5656   21.1549 C   0  0  0  0  0  0  0  0  0  0  0  0
   11.2289   14.4791   23.4091 C   0  0  0  0  0  0  0  0  0  0  0  0
   11.0363    9.9073   22.4511 C   0  0  0  0  0  0  0  0  0  0  0  0
    7.4549   13.8137   26.5436 C   0  0  0  0  0  0  0  0  0  0  0  0
   11.2410   13.8185   22.1041 N   0  0  0  0  0  0  0  0  0  0  0  0
   10.5320   12.2503   20.5675 O   0  0  0  0  0  0  0  0  0  0  0  0
    6.2427   14.1247   24.2395 O   0  0  0  0  0  0  0  0  0  0  0  0
    5.6687   12.1300   25.6669 O   0  0  0  0  0  0  0  0  0  0  0  0
    6.6584   13.0611   25.1427 S   0  0  0  0  0  0  0  0  0  0  0  0
    9.3501    9.0697   24.3792 H   0  0  0  0  0  0  0  0  0  0  0  0
    7.5591   10.3478   25.4846 H   0  0  0  0  0  0  0  0  0  0  0  0
    8.5254   13.7928   23.0918 H   0  0  0  0  0  0  0  0  0  0  0  0
   12.9856   16.4974   21.4327 H   0  0  0  0  0  0  0  0  0  0  0  0
   13.7644   15.1985   22.3643 H   0  0  0  0  0  0  0  0  0  0  0  0
   12.3681   16.2104   24.0263 H   0  0  0  0  0  0  0  0  0  0  0  0
   11.0720   16.5944   22.8713 H   0  0  0  0  0  0  0  0  0  0  0  0
   11.4341   15.0374   20.3847 H   0  0  0  0  0  0  0  0  0  0  0  0
   12.7432   13.8595   20.6720 H   0  0  0  0  0  0  0  0  0  0  0  0
   11.7916   13.8974   24.1416 H   0  0  0  0  0  0  0  0  0  0  0  0
   10.1869   14.5503   23.7329 H   0  0  0  0  0  0  0  0  0  0  0  0
   10.6440    9.3924   21.5668 H   0  0  0  0  0  0  0  0  0  0  0  0
   11.8708   10.5482   22.1416 H   0  0  0  0  0  0  0  0  0  0  0  0
   11.4467    9.1582   23.1393 H   0  0  0  0  0  0  0  0  0  0  0  0
    6.7133   14.4020   27.0863 H   0  0  0  0  0  0  0  0  0  0  0  0
    7.8544   13.0219   27.1790 H   0  0  0  0  0  0  0  0  0  0  0  0
    8.2592   14.4544   26.1792 H   0  0  0  0  0  0  0  0  0  0  0  0
  1  2  1  0  0  0  0
  1  5  2  0  0  0  0
  2  6  2  0  0  0  0
  3  4  2  0  0  0  0
  3  6  1  0  0  0  0
  4  5  1  0  0  0  0
  4  7  1  0  0  0  0
  5 12  1  0  0  0  0
  6 18  1  0  0  0  0
  7 14  1  0  0  0  0
  7 15  2  0  0  0  0
  8  9  1  0  0  0  0
  8 10  1  0  0  0  0
  9 11  1  0  0  0  0
 10 14  1  0  0  0  0
 11 14  1  0  0  0  0
 13 18  1  0  0  0  0
 16 18  2  0  0  0  0
 17 18  2  0  0  0  0
  1 19  1  0  0  0  0
  2 20  1  0  0  0  0
  3 21  1  0  0  0  0
  8 22  1  0  0  0  0
  8 23  1  0  0  0  0
  9 24  1  0  0  0  0
  9 25  1  0  0  0  0
 10 26  1  0  0  0  0
 10 27  1  0  0  0  0
 11 28  1  0  0  0  0
 11 29  1  0  0  0  0
 12 30  1  0  0  0  0
 12 31  1  0  0  0  0
 12 32  1  0  0  0  0
 13 33  1  0  0  0  0
 13 34  1  0  0  0  0
 13 35  1  0  0  0  0
M  END
> <Catalog ID>
Z27753260

> <PlateID>
1337959-R-11

> <Well>
B05

> <MW (desalted)>
267.344

> <CLogP>
0.517

> <HBD>
0

> <TPSA>
54.450

> <RotBonds>
2

> <ROCS_ShapeQuery>
x0446_0A_x1080_0A_x0929_0A_x0812_0A_x0719_0A_x1140_0A_x0528_0A_x0310_0A

> <ROCS_TanimotoCombo>
0.338 

> <ROCS_ShapeTanimoto>
0.225 

> <ROCS_ColorTanimoto>
0.113 

> <ROCS_RefTversky>
0.205 

> <ROCS_RefColorTversky>
0.120 

> <ROCS_RefTverskyCombo>
0.325 

> <ROCS_FitTversky>
1.782 

> <ROCS_FitColorTversky>
0.647 

> <ROCS_FitTverskyCombo>
2.429 

> <ROCS_ColorScore>
-4.280

> <ROCS_Overlap>
2416.106

> <ROCS_Rank>
86                  

$$$$
untitled-dbase-424_2
  -OEChem-02082415003D

 33 35  0     0  0  0  0  0  0999 V2000
    8.1051   14.1034   22.8502 C   0  0  0  0  0  0  0  0  0  0  0  0
    8.7261   11.8419   23.2868 C   0  0  0  0  0  0  0  0  0  0  0  0
    8.9778   13.0423   22.6125 C   0  0  0  0  0  0  0  0  0  0  0  0
    7.0460   13.9171   23.7313 C   0  0  0  0  0  0  0  0  0  0  0  0
    9.2878   10.5560   23.3762 C   0  0  0  0  0  0  0  0  0  0  0  0
    7.6343   11.7876   24.1398 C   0  0  0  0  0  0  0  0  0  0  0  0
   10.1031   13.1919   21.6949 C   0  0  0  0  0  0  0  0  0  0  0  0
   13.0461   15.4093   21.9289 C   0  0  0  0  0  0  0  0  0  0  0  0
   12.0126   16.1976   22.7230 C   0  0  0  0  0  0  0  0  0  0  0  0
   12.1900   14.4257   21.1468 C   0  0  0  0  0  0  0  0  0  0  0  0
   10.9985   15.1300   23.1103 C   0  0  0  0  0  0  0  0  0  0  0  0
    6.1181   15.0636   23.9767 C   0  0  0  0  0  0  0  0  0  0  0  0
   10.4750   10.0284   22.6831 C   0  0  0  0  0  0  0  0  0  0  0  0
    6.7621   12.7774   24.4054 N   0  0  0  0  0  0  0  0  0  0  0  0
    8.6097    9.7638   24.2115 N   0  0  0  0  0  0  0  0  0  0  0  0
   11.0409   14.1726   22.0055 N   0  0  0  0  0  0  0  0  0  0  0  0
   10.1784   12.4837   20.6913 O   0  0  0  0  0  0  0  0  0  0  0  0
    7.5659   10.5437   24.6924 O   0  0  0  0  0  0  0  0  0  0  0  0
    8.2517   15.0593   22.3552 H   0  0  0  0  0  0  0  0  0  0  0  0
   13.5852   16.0747   21.2441 H   0  0  0  0  0  0  0  0  0  0  0  0
   13.7741   14.9109   22.5751 H   0  0  0  0  0  0  0  0  0  0  0  0
   12.4723   16.6283   23.6202 H   0  0  0  0  0  0  0  0  0  0  0  0
   11.5665   17.0061   22.1376 H   0  0  0  0  0  0  0  0  0  0  0  0
   11.8782   14.8197   20.1725 H   0  0  0  0  0  0  0  0  0  0  0  0
   12.7124   13.4726   20.9929 H   0  0  0  0  0  0  0  0  0  0  0  0
   11.2298   14.6379   24.0569 H   0  0  0  0  0  0  0  0  0  0  0  0
    9.9841   15.5357   23.1564 H   0  0  0  0  0  0  0  0  0  0  0  0
    5.2903   15.0403   23.2595 H   0  0  0  0  0  0  0  0  0  0  0  0
    5.7046   15.0264   24.9914 H   0  0  0  0  0  0  0  0  0  0  0  0
    6.6409   16.0224   23.8785 H   0  0  0  0  0  0  0  0  0  0  0  0
   11.3921   10.1984   23.2731 H   0  0  0  0  0  0  0  0  0  0  0  0
   10.3991    8.9429   22.4926 H   0  0  0  0  0  0  0  0  0  0  0  0
   10.6243   10.4984   21.6944 H   0  0  0  0  0  0  0  0  0  0  0  0
  1  3  1  0  0  0  0
  1  4  2  0  0  0  0
  2  3  2  0  0  0  0
  2  5  1  0  0  0  0
  2  6  1  0  0  0  0
  3  7  1  0  0  0  0
  4 12  1  0  0  0  0
  4 14  1  0  0  0  0
  5 13  1  0  0  0  0
  5 15  2  0  0  0  0
  6 14  2  0  0  0  0
  6 18  1  0  0  0  0
  7 16  1  0  0  0  0
  7 17  2  0  0  0  0
  8  9  1  0  0  0  0
  8 10  1  0  0  0  0
  9 11  1  0  0  0  0
 10 16  1  0  0  0  0
 11 16  1  0  0  0  0
 15 18  1  0  0  0  0
  1 19  1  0  0  0  0
  8 20  1  0  0  0  0
  8 21  1  0  0  0  0
  9 22  1  0  0  0  0
  9 23  1  0  0  0  0
 10 24  1  0  0  0  0
 10 25  1  0  0  0  0
 11 26  1  0  0  0  0
 11 27  1  0  0  0  0
 12 28  1  0  0  0  0
 12 29  1  0  0  0  0
 12 30  1  0  0  0  0
 13 31  1  0  0  0  0
 13 32  1  0  0  0  0
 13 33  1  0  0  0  0
M  END
> <Catalog ID>
Z219699312

> <PlateID>
1337959-R-10

> <Well>
A06

> <MW (desalted)>
245.277

> <CLogP>
0.838

> <HBD>
0

> <TPSA>
59.230

> <RotBonds>
1

> <ROCS_ShapeQuery>
x0446_0A_x1080_0A_x0929_0A_x0812_0A_x0719_0A_x1140_0A_x0528_0A_x0310_0A

> <ROCS_TanimotoCombo>
0.338 

> <ROCS_ShapeTanimoto>
0.238 

> <ROCS_ColorTanimoto>
0.100 

> <ROCS_RefTversky>
0.215 

> <ROCS_RefColorTversky>
0.110 

> <ROCS_RefTverskyCombo>
0.325 

> <ROCS_FitTversky>
1.800 

> <ROCS_FitColorTversky>
0.519 

> <ROCS_FitTverskyCombo>
2.318 

> <ROCS_ColorScore>
-3.931

> <ROCS_Overlap>
2538.134

> <ROCS_Rank>
87                  

$$$$
untitled-dbase-444_36
  -OEChem-02082415003D

 35 36  0     0  0  0  0  0  0999 V2000
    9.7877   11.8645   21.7682 C   0  0  0  0  0  0  0  0  0  0  0  0
    9.3889   10.7217   22.3212 C   0  0  0  0  0  0  0  0  0  0  0  0
    9.4171   13.0804   22.4941 C   0  0  0  0  0  0  0  0  0  0  0  0
    8.6218   10.7224   23.5890 C   0  0  0  0  0  0  0  0  0  0  0  0
    9.8511   14.3644   21.8967 C   0  0  0  0  0  0  0  0  0  0  0  0
   12.1425   13.8958   22.6710 C   0  0  0  0  0  0  0  0  0  0  0  0
   11.8374   15.4066   20.7300 C   0  0  0  0  0  0  0  0  0  0  0  0
   12.8585   14.9218   23.5408 C   0  0  0  0  0  0  0  0  0  0  0  0
   12.5126   16.6098   21.3769 C   0  0  0  0  0  0  0  0  0  0  0  0
    5.3850   11.4823   24.2778 C   0  0  0  0  0  0  0  0  0  0  0  0
    6.1531   12.4336   25.1844 C   0  0  0  0  0  0  0  0  0  0  0  0
    7.6009   12.0067   25.3946 C   0  0  0  0  0  0  0  0  0  0  0  0
    8.7538   13.1482   23.5967 N   0  0  0  0  0  0  0  0  0  0  0  0
    8.3513   11.9638   24.1512 N   0  0  0  0  0  0  0  0  0  0  0  0
   11.2198   14.5367   21.7361 N   0  0  0  0  0  0  0  0  0  0  0  0
    8.2735    9.6417   24.0643 O   0  0  0  0  0  0  0  0  0  0  0  0
    8.9503   15.1381   21.5993 O   0  0  0  0  0  0  0  0  0  0  0  0
   13.8161   16.1053   22.5431 S   0  0  0  0  0  0  0  0  0  0  0  0
   10.3487   11.9068   20.8448 H   0  0  0  0  0  0  0  0  0  0  0  0
    9.6134    9.7661   21.8615 H   0  0  0  0  0  0  0  0  0  0  0  0
   12.8567   13.3009   22.0888 H   0  0  0  0  0  0  0  0  0  0  0  0
   11.5966   13.1987   23.3160 H   0  0  0  0  0  0  0  0  0  0  0  0
   11.0953   15.7575   20.0080 H   0  0  0  0  0  0  0  0  0  0  0  0
   12.5612   14.8045   20.1670 H   0  0  0  0  0  0  0  0  0  0  0  0
   12.1429   15.4757   24.1580 H   0  0  0  0  0  0  0  0  0  0  0  0
   13.5503   14.4130   24.2195 H   0  0  0  0  0  0  0  0  0  0  0  0
   12.9730   17.2348   20.6051 H   0  0  0  0  0  0  0  0  0  0  0  0
   11.7808   17.2293   21.9065 H   0  0  0  0  0  0  0  0  0  0  0  0
    5.8555   11.4146   23.2917 H   0  0  0  0  0  0  0  0  0  0  0  0
    5.3675   10.4783   24.7139 H   0  0  0  0  0  0  0  0  0  0  0  0
    4.3488   11.8079   24.1440 H   0  0  0  0  0  0  0  0  0  0  0  0
    5.6505   12.4722   26.1578 H   0  0  0  0  0  0  0  0  0  0  0  0
    6.1164   13.4439   24.7600 H   0  0  0  0  0  0  0  0  0  0  0  0
    8.1099   12.7195   26.0510 H   0  0  0  0  0  0  0  0  0  0  0  0
    7.6601   11.0161   25.8563 H   0  0  0  0  0  0  0  0  0  0  0  0
  1  2  2  0  0  0  0
  1  3  1  0  0  0  0
  2  4  1  0  0  0  0
  3  5  1  0  0  0  0
  3 13  2  0  0  0  0
  4 14  1  0  0  0  0
  4 16  2  0  0  0  0
  5 15  1  0  0  0  0
  5 17  2  0  0  0  0
  6  8  1  0  0  0  0
  6 15  1  0  0  0  0
  7  9  1  0  0  0  0
  7 15  1  0  0  0  0
  8 18  1  0  0  0  0
  9 18  1  0  0  0  0
 10 11  1  0  0  0  0
 11 12  1  0  0  0  0
 12 14  1  0  0  0  0
 13 14  1  0  0  0  0
  1 19  1  0  0  0  0
  2 20  1  0  0  0  0
  6 21  1  0  0  0  0
  6 22  1  0  0  0  0
  7 23  1  0  0  0  0
  7 24  1  0  0  0  0
  8 25  1  0  0  0  0
  8 26  1  0  0  0  0
  9 27  1  0  0  0  0
  9 28  1  0  0  0  0
 10 29  1  0  0  0  0
 10 30  1  0  0  0  0
 10 31  1  0  0  0  0
 11 32  1  0  0  0  0
 11 33  1  0  0  0  0
 12 34  1  0  0  0  0
 12 35  1  0  0  0  0
M  END
> <Catalog ID>
Z437578282

> <PlateID>
1337959-R-10

> <Well>
E05

> <MW (desalted)>
267.347

> <CLogP>
-0.093

> <HBD>
0

> <TPSA>
52.980

> <RotBonds>
3

> <ROCS_ShapeQuery>
x0446_0A_x1080_0A_x0929_0A_x0812_0A_x0719_0A_x1140_0A_x0528_0A_x0310_0A

> <ROCS_TanimotoCombo>
0.338 

> <ROCS_ShapeTanimoto>
0.220 

> <ROCS_ColorTanimoto>
0.118 

> <ROCS_RefTversky>
0.201 

> <ROCS_RefColorTversky>
0.128 

> <ROCS_RefTverskyCombo>
0.329 

> <ROCS_FitTversky>
1.746 

> <ROCS_FitColorTversky>
0.603 

> <ROCS_FitTverskyCombo>
2.349 

> <ROCS_ColorScore>
-4.561

> <ROCS_Overlap>
2369.992

> <ROCS_Rank>
88                  

$$$$
untitled-dbase-149_0
  -OEChem-02082415003D

 31 33  0     0  0  0  0  0  0999 V2000
    6.3997   13.5049   24.1533 C   0  0  0  0  0  0  0  0  0  0  0  0
    5.8812   12.4287   24.8875 C   0  0  0  0  0  0  0  0  0  0  0  0
    7.5977   13.3761   23.4449 C   0  0  0  0  0  0  0  0  0  0  0  0
    6.5542   11.2075   24.9237 C   0  0  0  0  0  0  0  0  0  0  0  0
    8.2631   12.1618   23.4830 C   0  0  0  0  0  0  0  0  0  0  0  0
    7.7416   11.0894   24.2176 C   0  0  0  0  0  0  0  0  0  0  0  0
    9.5571   10.2518   23.3871 C   0  0  0  0  0  0  0  0  0  0  0  0
   10.7846   12.4736   23.3499 C   0  0  0  0  0  0  0  0  0  0  0  0
    9.4876   11.6993   21.3022 C   0  0  0  0  0  0  0  0  0  0  0  0
   11.0142   13.7988   22.6202 C   0  0  0  0  0  0  0  0  0  0  0  0
    9.7854   13.0653   20.6803 C   0  0  0  0  0  0  0  0  0  0  0  0
    9.5537   11.7047   22.8393 C   0  0  0  0  0  0  0  0  0  0  0  0
   10.6407    9.2652   23.0800 C   0  0  0  0  0  0  0  0  0  0  0  0
    8.5431    9.9416   24.1451 N   0  0  0  0  0  0  0  0  0  0  0  0
   11.0455   13.6256   21.1680 N   0  0  0  0  0  0  0  0  0  0  0  0
    5.8634   14.4508   24.1351 H   0  0  0  0  0  0  0  0  0  0  0  0
    4.9489   12.5485   25.4316 H   0  0  0  0  0  0  0  0  0  0  0  0
    7.9906   14.2163   22.8791 H   0  0  0  0  0  0  0  0  0  0  0  0
    6.1539   10.3740   25.4914 H   0  0  0  0  0  0  0  0  0  0  0  0
   11.6875   11.8602   23.2656 H   0  0  0  0  0  0  0  0  0  0  0  0
   10.6660   12.7029   24.4150 H   0  0  0  0  0  0  0  0  0  0  0  0
    8.4857   11.4014   20.9728 H   0  0  0  0  0  0  0  0  0  0  0  0
   10.1806   10.9607   20.8868 H   0  0  0  0  0  0  0  0  0  0  0  0
   10.2013   14.4911   22.8732 H   0  0  0  0  0  0  0  0  0  0  0  0
   11.9358   14.2859   22.9579 H   0  0  0  0  0  0  0  0  0  0  0  0
    9.7999   13.0108   19.5861 H   0  0  0  0  0  0  0  0  0  0  0  0
    8.9726   13.7576   20.9338 H   0  0  0  0  0  0  0  0  0  0  0  0
   11.4268    9.3351   23.8311 H   0  0  0  0  0  0  0  0  0  0  0  0
   11.0624    9.4739   22.0968 H   0  0  0  0  0  0  0  0  0  0  0  0
   10.2310    8.2552   23.0803 H   0  0  0  0  0  0  0  0  0  0  0  0
   11.2016   14.5328   20.7262 H   0  0  0  0  0  0  0  0  0  0  0  0
  1  2  2  0  0  0  0
  1  3  1  0  0  0  0
  2  4  1  0  0  0  0
  3  5  2  0  0  0  0
  4  6  2  0  0  0  0
  5  6  1  0  0  0  0
  5 12  1  0  0  0  0
  6 14  1  0  0  0  0
  7 12  1  0  0  0  0
  7 13  1  0  0  0  0
  7 14  2  0  0  0  0
  8 10  1  0  0  0  0
  8 12  1  0  0  0  0
  9 11  1  0  0  0  0
  9 12  1  0  0  0  0
 10 15  1  0  0  0  0
 11 15  1  0  0  0  0
  1 16  1  0  0  0  0
  2 17  1  0  0  0  0
  3 18  1  0  0  0  0
  4 19  1  0  0  0  0
  8 20  1  0  0  0  0
  8 21  1  0  0  0  0
  9 22  1  0  0  0  0
  9 23  1  0  0  0  0
 10 24  1  0  0  0  0
 10 25  1  0  0  0  0
 11 26  1  0  0  0  0
 11 27  1  0  0  0  0
 13 28  1  0  0  0  0
 13 29  1  0  0  0  0
 13 30  1  0  0  0  0
 15 31  1  0  0  0  0
M  END
> <Catalog ID>
Z2432880664

> <PlateID>
1337959-R-03

> <Well>
H10

> <MW (desalted)>
200.280

> <CLogP>
1.645

> <HBD>
1

> <TPSA>
24.390

> <RotBonds>
0

> <ROCS_ShapeQuery>
x0446_0A_x1080_0A_x0929_0A_x0812_0A_x0719_0A_x1140_0A_x0528_0A_x0310_0A

> <ROCS_TanimotoCombo>
0.337 

> <ROCS_ShapeTanimoto>
0.219 

> <ROCS_ColorTanimoto>
0.118 

> <ROCS_RefTversky>
0.199 

> <ROCS_RefColorTversky>
0.128 

> <ROCS_RefTverskyCombo>
0.327 

> <ROCS_FitTversky>
1.858 

> <ROCS_FitColorTversky>
0.601 

> <ROCS_FitTverskyCombo>
2.459 

> <ROCS_ColorScore>
-4.555

> <ROCS_Overlap>
2350.380

> <ROCS_Rank>
89                  

$$$$
untitled-dbase-263_0
  -OEChem-02082415003D

 23 24  0     1  0  0  0  0  0999 V2000
   10.0656   12.7807   23.8694 C   0  0  0  0  0  0  0  0  0  0  0  0
    9.6971   10.6404   25.1019 C   0  0  0  0  0  0  0  0  0  0  0  0
    7.7578   12.2961   24.6828 C   0  0  0  0  0  0  0  0  0  0  0  0
    9.7595    9.8907   23.7595 C   0  0  0  0  0  0  0  0  0  0  0  0
    7.1259   11.2448   23.7720 C   0  0  0  0  0  0  0  0  0  0  0  0
    9.2581   12.1070   24.9673 C   0  0  2  0  0  0  0  0  0  0  0  0
    9.3832   10.7899   22.5778 C   0  0  1  0  0  0  0  0  0  0  0  0
    7.8704   11.0002   22.4668 C   0  0  0  0  0  0  0  0  0  0  0  0
   10.0816   12.0595   22.6922 N   0  0  0  0  0  0  0  0  0  0  0  0
   10.6132   13.8692   24.0210 O   0  0  0  0  0  0  0  0  0  0  0  0
    7.6209   12.0250   21.6077 F   0  0  0  0  0  0  0  0  0  0  0  0
    7.3266    9.8935   21.8830 F   0  0  0  0  0  0  0  0  0  0  0  0
    9.0400   10.1086   25.8003 H   0  0  0  0  0  0  0  0  0  0  0  0
   10.6985   10.6130   25.5516 H   0  0  0  0  0  0  0  0  0  0  0  0
    7.5821   13.2921   24.2561 H   0  0  0  0  0  0  0  0  0  0  0  0
    7.2181   12.2738   25.6382 H   0  0  0  0  0  0  0  0  0  0  0  0
   10.7820    9.5174   23.6163 H   0  0  0  0  0  0  0  0  0  0  0  0
    9.1174    9.0024   23.7918 H   0  0  0  0  0  0  0  0  0  0  0  0
    7.0243   10.2988   24.3179 H   0  0  0  0  0  0  0  0  0  0  0  0
    6.1000   11.5559   23.5392 H   0  0  0  0  0  0  0  0  0  0  0  0
    9.4956   12.6286   25.9035 H   0  0  0  0  0  0  0  0  0  0  0  0
    9.7354   10.3269   21.6486 H   0  0  0  0  0  0  0  0  0  0  0  0
   10.5730   12.4339   21.8864 H   0  0  0  0  0  0  0  0  0  0  0  0
  1  6  1  0  0  0  0
  1  9  1  0  0  0  0
  1 10  2  0  0  0  0
  2  4  1  0  0  0  0
  2  6  1  0  0  0  0
  3  5  1  0  0  0  0
  3  6  1  0  0  0  0
  4  7  1  0  0  0  0
  5  8  1  0  0  0  0
  7  8  1  0  0  0  0
  7  9  1  0  0  0  0
  8 11  1  0  0  0  0
  8 12  1  0  0  0  0
  2 13  1  0  0  0  0
  2 14  1  0  0  0  0
  3 15  1  0  0  0  0
  3 16  1  0  0  0  0
  4 17  1  0  0  0  0
  4 18  1  0  0  0  0
  5 19  1  0  0  0  0
  5 20  1  0  0  0  0
  6 21  1  0  0  0  0
  7 22  1  0  0  0  0
  9 23  1  0  0  0  0
M  END
> <Catalog ID>
Z4327564486

> <PlateID>
1337959-R-06

> <Well>
D06

> <MW (desalted)>
175.176

> <CLogP>
0.745

> <HBD>
1

> <TPSA>
29.100

> <RotBonds>
0

> <ROCS_ShapeQuery>
x0446_0A_x1080_0A_x0929_0A_x0812_0A_x0719_0A_x1140_0A_x0528_0A_x0310_0A

> <ROCS_TanimotoCombo>
0.336 

> <ROCS_ShapeTanimoto>
0.167 

> <ROCS_ColorTanimoto>
0.169 

> <ROCS_RefTversky>
0.157 

> <ROCS_RefColorTversky>
0.181 

> <ROCS_RefTverskyCombo>
0.338 

> <ROCS_FitTversky>
1.635 

> <ROCS_FitColorTversky>
0.713 

> <ROCS_FitTverskyCombo>
2.348 

> <ROCS_ColorScore>
-6.471

> <ROCS_Overlap>
1848.014

> <ROCS_Rank>
90                  

$$$$
untitled-dbase-500_31
  -OEChem-02082415003D

 30 31  0     1  0  0  0  0  0999 V2000
    8.2938   11.3196   24.6532 C   0  0  0  0  0  0  0  0  0  0  0  0
    9.0624   12.1153   23.7826 C   0  0  0  0  0  0  0  0  0  0  0  0
    9.5509   11.2318   22.8513 C   0  0  0  0  0  0  0  0  0  0  0  0
    9.3110   13.5627   23.8232 C   0  0  0  0  0  0  0  0  0  0  0  0
    5.9585   15.0938   23.9496 C   0  0  0  0  0  0  0  0  0  0  0  0
    8.2205   15.8624   23.7689 C   0  0  0  0  0  0  0  0  0  0  0  0
    6.7916   16.2717   23.4636 C   0  0  1  0  0  0  0  0  0  0  0  0
    6.8408   13.8782   23.6492 C   0  0  1  0  0  0  0  0  0  0  0  0
   10.4175   11.4107   21.6736 C   0  0  0  0  0  0  0  0  0  0  0  0
    6.5533   13.2819   22.2717 C   0  0  0  0  0  0  0  0  0  0  0  0
    8.2910   10.0299   24.3059 N   0  0  0  0  0  0  0  0  0  0  0  0
    9.0639   10.0084   23.2066 N   0  0  0  0  0  0  0  0  0  0  0  0
    8.2062   14.3991   23.7370 N   0  0  0  0  0  0  0  0  0  0  0  0
   10.4784   13.9280   23.9403 O   0  0  0  0  0  0  0  0  0  0  0  0
    7.2092   14.0700   21.2962 O   0  0  0  0  0  0  0  0  0  0  0  0
    6.6479   16.3950   22.1174 F   0  0  0  0  0  0  0  0  0  0  0  0
    7.7347   11.6232   25.5271 H   0  0  0  0  0  0  0  0  0  0  0  0
    5.8024   15.1743   25.0319 H   0  0  0  0  0  0  0  0  0  0  0  0
    4.9851   15.0440   23.4531 H   0  0  0  0  0  0  0  0  0  0  0  0
    8.9368   16.2489   23.0384 H   0  0  0  0  0  0  0  0  0  0  0  0
    8.5178   16.1662   24.7783 H   0  0  0  0  0  0  0  0  0  0  0  0
    6.5052   17.2197   23.9257 H   0  0  0  0  0  0  0  0  0  0  0  0
    6.7020   13.0984   24.4066 H   0  0  0  0  0  0  0  0  0  0  0  0
   11.4825   11.3001   21.9398 H   0  0  0  0  0  0  0  0  0  0  0  0
   10.1957   10.6777   20.8777 H   0  0  0  0  0  0  0  0  0  0  0  0
   10.2918   12.4060   21.2111 H   0  0  0  0  0  0  0  0  0  0  0  0
    5.4808   13.2899   22.0819 H   0  0  0  0  0  0  0  0  0  0  0  0
    6.9295   12.2608   22.2247 H   0  0  0  0  0  0  0  0  0  0  0  0
    9.2199    9.1187   22.7493 H   0  0  0  0  0  0  0  0  0  0  0  0
    7.0136   13.6740   20.4296 H   0  0  0  0  0  0  0  0  0  0  0  0
  1  2  1  0  0  0  0
  1 11  2  0  0  0  0
  2  3  2  0  0  0  0
  2  4  1  0  0  0  0
  3  9  1  0  0  0  0
  3 12  1  0  0  0  0
  4 13  1  0  0  0  0
  4 14  2  0  0  0  0
  5  7  1  0  0  0  0
  5  8  1  0  0  0  0
  6  7  1  0  0  0  0
  6 13  1  0  0  0  0
  7 16  1  1  0  0  0
  8 10  1  1  0  0  0
  8 13  1  0  0  0  0
 10 15  1  0  0  0  0
 11 12  1  0  0  0  0
  1 17  1  0  0  0  0
  5 18  1  0  0  0  0
  5 19  1  0  0  0  0
  6 20  1  0  0  0  0
  6 21  1  0  0  0  0
  7 22  1  0  0  0  0
  8 23  1  0  0  0  0
  9 24  1  0  0  0  0
  9 25  1  0  0  0  0
  9 26  1  0  0  0  0
 10 27  1  0  0  0  0
 10 28  1  0  0  0  0
 12 29  1  0  0  0  0
 15 30  1  0  0  0  0
M  END
> <Catalog ID>
Z2060926323

> <PlateID>
1337959-R-11

> <Well>
H02

> <MW (desalted)>
227.235

> <CLogP>
-0.203

> <HBD>
2

> <TPSA>
69.220

> <RotBonds>
2

> <ROCS_ShapeQuery>
x0446_0A_x1080_0A_x0929_0A_x0812_0A_x0719_0A_x1140_0A_x0528_0A_x0310_0A

> <ROCS_TanimotoCombo>
0.335 

> <ROCS_ShapeTanimoto>
0.200 

> <ROCS_ColorTanimoto>
0.135 

> <ROCS_RefTversky>
0.185 

> <ROCS_RefColorTversky>
0.148 

> <ROCS_RefTverskyCombo>
0.333 

> <ROCS_FitTversky>
1.677 

> <ROCS_FitColorTversky>
0.619 

> <ROCS_FitTverskyCombo>
2.296 

> <ROCS_ColorScore>
-5.267

> <ROCS_Overlap>
2184.637

> <ROCS_Rank>
91                  

$$$$
untitled-dbase-495_21
  -OEChem-02082415003D

 28 29  0     0  0  0  0  0  0999 V2000
    8.5025    9.3687   23.8815 C   0  0  0  0  0  0  0  0  0  0  0  0
    9.4658   10.1123   23.1998 C   0  0  0  0  0  0  0  0  0  0  0  0
    7.4922   10.0190   24.5902 C   0  0  0  0  0  0  0  0  0  0  0  0
    9.4190   11.5061   23.2268 C   0  0  0  0  0  0  0  0  0  0  0  0
    8.4087   12.1564   23.9355 C   0  0  0  0  0  0  0  0  0  0  0  0
    7.4453   11.4128   24.6172 C   0  0  0  0  0  0  0  0  0  0  0  0
   11.8443   16.4296   21.7527 C   0  0  0  0  0  0  0  0  0  0  0  0
   10.8870   13.5196   22.8596 C   0  0  0  0  0  0  0  0  0  0  0  0
   11.3085   17.5750   20.9316 C   0  0  0  0  0  0  0  0  0  0  0  0
   10.7290   15.1757   19.9985 C   0  0  0  0  0  0  0  0  0  0  0  0
   11.9296   13.9612   21.8508 C   0  0  0  0  0  0  0  0  0  0  0  0
   11.5089   15.1948   21.2131 N   0  0  0  0  0  0  0  0  0  0  0  0
   10.3981   12.2572   22.5340 N   0  0  0  0  0  0  0  0  0  0  0  0
   12.4981   16.6187   22.7750 O   0  0  0  0  0  0  0  0  0  0  0  0
   10.5672   14.2169   23.8171 O   0  0  0  0  0  0  0  0  0  0  0  0
    8.3672   13.4974   23.9588 F   0  0  0  0  0  0  0  0  0  0  0  0
   10.4142   16.8801   19.5326 S   0  0  0  0  0  0  0  0  0  0  0  0
    6.1959   12.2089   25.4936 Cl  0  0  0  0  0  0  0  0  0  0  0  0
    8.5389    8.2835   23.8604 H   0  0  0  0  0  0  0  0  0  0  0  0
   10.2485    9.5944   22.6510 H   0  0  0  0  0  0  0  0  0  0  0  0
    6.7485    9.4261   25.1166 H   0  0  0  0  0  0  0  0  0  0  0  0
   10.6346   18.1789   21.5446 H   0  0  0  0  0  0  0  0  0  0  0  0
   12.1402   18.1894   20.5771 H   0  0  0  0  0  0  0  0  0  0  0  0
   11.2940   14.6620   19.2155 H   0  0  0  0  0  0  0  0  0  0  0  0
    9.7885   14.6486   20.1823 H   0  0  0  0  0  0  0  0  0  0  0  0
   12.0622   13.1838   21.0917 H   0  0  0  0  0  0  0  0  0  0  0  0
   12.8819   14.1161   22.3677 H   0  0  0  0  0  0  0  0  0  0  0  0
   10.7809   11.8105   21.7034 H   0  0  0  0  0  0  0  0  0  0  0  0
  1  2  1  0  0  0  0
  1  3  2  0  0  0  0
  2  4  2  0  0  0  0
  3  6  1  0  0  0  0
  4  5  1  0  0  0  0
  4 13  1  0  0  0  0
  5  6  2  0  0  0  0
  5 16  1  0  0  0  0
  6 18  1  0  0  0  0
  7  9  1  0  0  0  0
  7 12  1  0  0  0  0
  7 14  2  0  0  0  0
  8 11  1  0  0  0  0
  8 13  1  0  0  0  0
  8 15  2  0  0  0  0
  9 17  1  0  0  0  0
 10 12  1  0  0  0  0
 10 17  1  0  0  0  0
 11 12  1  0  0  0  0
  1 19  1  0  0  0  0
  2 20  1  0  0  0  0
  3 21  1  0  0  0  0
  9 22  1  0  0  0  0
  9 23  1  0  0  0  0
 10 24  1  0  0  0  0
 10 25  1  0  0  0  0
 11 26  1  0  0  0  0
 11 27  1  0  0  0  0
 13 28  1  0  0  0  0
M  END
> <Catalog ID>
Z27196692

> <PlateID>
1337959-R-11

> <Well>
G05

> <MW (desalted)>
288.726

> <CLogP>
1.933

> <HBD>
1

> <TPSA>
49.410

> <RotBonds>
3

> <ROCS_ShapeQuery>
x0446_0A_x1080_0A_x0929_0A_x0812_0A_x0719_0A_x1140_0A_x0528_0A_x0310_0A

> <ROCS_TanimotoCombo>
0.335 

> <ROCS_ShapeTanimoto>
0.220 

> <ROCS_ColorTanimoto>
0.116 

> <ROCS_RefTversky>
0.201 

> <ROCS_RefColorTversky>
0.123 

> <ROCS_RefTverskyCombo>
0.324 

> <ROCS_FitTversky>
1.742 

> <ROCS_FitColorTversky>
0.661 

> <ROCS_FitTverskyCombo>
2.404 

> <ROCS_ColorScore>
-4.371

> <ROCS_Overlap>
2371.356

> <ROCS_Rank>
92                  

$$$$
untitled-dbase-496_126
  -OEChem-02082415003D

 29 30  0     0  0  0  0  0  0999 V2000
    6.4346   10.8437   24.3769 C   0  0  0  0  0  0  0  0  0  0  0  0
    5.6137   11.9714   24.3863 C   0  0  0  0  0  0  0  0  0  0  0  0
    7.8153   10.9873   24.2398 C   0  0  0  0  0  0  0  0  0  0  0  0
    6.1734   13.2426   24.2586 C   0  0  0  0  0  0  0  0  0  0  0  0
   12.8049   14.3381   21.8473 C   0  0  0  0  0  0  0  0  0  0  0  0
    8.3750   12.2585   24.1120 C   0  0  0  0  0  0  0  0  0  0  0  0
    7.5541   13.3862   24.1215 C   0  0  0  0  0  0  0  0  0  0  0  0
   13.2478   15.5824   22.3281 C   0  0  0  0  0  0  0  0  0  0  0  0
   11.4405   14.4587   21.8399 C   0  0  0  0  0  0  0  0  0  0  0  0
   14.6348   16.0229   22.5468 C   0  0  0  0  0  0  0  0  0  0  0  0
   10.3177   13.5390   21.4556 C   0  0  0  0  0  0  0  0  0  0  0  0
   12.2356   16.4114   22.5982 N   0  0  0  0  0  0  0  0  0  0  0  0
   10.3222   12.3031   22.2513 N   0  0  0  0  0  0  0  0  0  0  0  0
   10.5359   13.6907   24.4113 O   0  0  0  0  0  0  0  0  0  0  0  0
   10.6957   11.1843   24.5408 O   0  0  0  0  0  0  0  0  0  0  0  0
   11.0885   15.6917   22.2860 O   0  0  0  0  0  0  0  0  0  0  0  0
   10.1153   12.3779   23.9449 S   0  0  0  0  0  0  0  0  0  0  0  0
    8.1962   14.9818   23.9666 Cl  0  0  0  0  0  0  0  0  0  0  0  0
    5.9987    9.8540   24.4771 H   0  0  0  0  0  0  0  0  0  0  0  0
    4.5388   11.8595   24.4936 H   0  0  0  0  0  0  0  0  0  0  0  0
    8.4430   10.1002   24.2346 H   0  0  0  0  0  0  0  0  0  0  0  0
    5.5189   14.1106   24.2681 H   0  0  0  0  0  0  0  0  0  0  0  0
   13.3898   13.4799   21.5504 H   0  0  0  0  0  0  0  0  0  0  0  0
   15.0513   16.5017   21.6435 H   0  0  0  0  0  0  0  0  0  0  0  0
   14.7171   16.7498   23.3750 H   0  0  0  0  0  0  0  0  0  0  0  0
   15.3026   15.1842   22.8151 H   0  0  0  0  0  0  0  0  0  0  0  0
    9.3494   14.0301   21.6009 H   0  0  0  0  0  0  0  0  0  0  0  0
   10.3844   13.2574   20.3995 H   0  0  0  0  0  0  0  0  0  0  0  0
   10.0420   11.4475   21.7565 H   0  0  0  0  0  0  0  0  0  0  0  0
  1  2  2  0  0  0  0
  1  3  1  0  0  0  0
  2  4  1  0  0  0  0
  3  6  2  0  0  0  0
  4  7  2  0  0  0  0
  5  8  1  0  0  0  0
  5  9  2  0  0  0  0
  6  7  1  0  0  0  0
  6 17  1  0  0  0  0
  7 18  1  0  0  0  0
  8 10  1  0  0  0  0
  8 12  2  0  0  0  0
  9 11  1  0  0  0  0
  9 16  1  0  0  0  0
 11 13  1  0  0  0  0
 12 16  1  0  0  0  0
 13 17  1  0  0  0  0
 14 17  2  0  0  0  0
 15 17  2  0  0  0  0
  1 19  1  0  0  0  0
  2 20  1  0  0  0  0
  3 21  1  0  0  0  0
  4 22  1  0  0  0  0
  5 23  1  0  0  0  0
 10 24  1  0  0  0  0
 10 25  1  0  0  0  0
 10 26  1  0  0  0  0
 11 27  1  0  0  0  0
 11 28  1  0  0  0  0
 13 29  1  0  0  0  0
M  END
> <Catalog ID>
Z857753866

> <PlateID>
1337959-R-11

> <Well>
G07

> <MW (desalted)>
286.735

> <CLogP>
1.652

> <HBD>
1

> <TPSA>
72.200

> <RotBonds>
3

> <ROCS_ShapeQuery>
x0446_0A_x1080_0A_x0929_0A_x0812_0A_x0719_0A_x1140_0A_x0528_0A_x0310_0A

> <ROCS_TanimotoCombo>
0.335 

> <ROCS_ShapeTanimoto>
0.201 

> <ROCS_ColorTanimoto>
0.134 

> <ROCS_RefTversky>
0.186 

> <ROCS_RefColorTversky>
0.143 

> <ROCS_RefTverskyCombo>
0.330 

> <ROCS_FitTversky>
1.626 

> <ROCS_FitColorTversky>
0.676 

> <ROCS_FitTverskyCombo>
2.302 

> <ROCS_ColorScore>
-5.112

> <ROCS_Overlap>
2200.232

> <ROCS_Rank>
93                  

$$$$
untitled-dbase-451_18
  -OEChem-02082415003D

 32 33  0     1  0  0  0  0  0999 V2000
    9.6418   15.4707   21.6462 C   0  0  0  0  0  0  0  0  0  0  0  0
   13.2366   15.5747   22.5822 C   0  0  0  0  0  0  0  0  0  0  0  0
   13.4750   14.2413   22.9151 C   0  0  0  0  0  0  0  0  0  0  0  0
   11.9668   15.9728   22.1639 C   0  0  0  0  0  0  0  0  0  0  0  0
   12.4438   13.3059   22.8294 C   0  0  0  0  0  0  0  0  0  0  0  0
   10.9356   15.0374   22.0782 C   0  0  0  0  0  0  0  0  0  0  0  0
   11.1741   13.7040   22.4110 C   0  0  0  0  0  0  0  0  0  0  0  0
    6.7882   12.9341   23.7046 C   0  0  0  0  0  0  0  0  0  0  0  0
    7.9358   10.7183   23.8238 C   0  0  0  0  0  0  0  0  0  0  0  0
    9.6674   12.1609   24.6684 C   0  0  0  0  0  0  0  0  0  0  0  0
    7.8848   12.0825   23.1377 C   0  0  2  0  0  0  0  0  0  0  0  0
    9.2412   10.7094   24.5980 C   0  0  2  0  0  0  0  0  0  0  0  0
   10.0889   12.6695   22.3310 C   0  0  0  0  0  0  0  0  0  0  0  0
    8.5927   15.8220   21.2958 N   0  0  0  0  0  0  0  0  0  0  0  0
    9.1423   12.7820   23.4408 N   0  0  2  0  0  0  0  0  0  0  0  0
    5.5334   12.3913   23.5595 N   0  0  0  0  0  0  0  0  0  0  0  0
    7.0151   14.0068   24.2588 O   0  0  0  0  0  0  0  0  0  0  0  0
   10.1708   10.0103   23.8925 F   0  0  0  0  0  0  0  0  0  0  0  0
   14.0397   16.3028   22.6490 H   0  0  0  0  0  0  0  0  0  0  0  0
   14.4637   13.9315   23.2408 H   0  0  0  0  0  0  0  0  0  0  0  0
   11.7979   17.0162   21.9081 H   0  0  0  0  0  0  0  0  0  0  0  0
   12.6404   12.2695   23.0910 H   0  0  0  0  0  0  0  0  0  0  0  0
    7.0843   10.5220   24.4896 H   0  0  0  0  0  0  0  0  0  0  0  0
    7.9494    9.9153   23.0724 H   0  0  0  0  0  0  0  0  0  0  0  0
    9.2688   12.6536   25.5771 H   0  0  0  0  0  0  0  0  0  0  0  0
   10.7740   12.2314   24.7320 H   0  0  0  0  0  0  0  0  0  0  0  0
    7.7065   11.9599   22.0591 H   0  0  0  0  0  0  0  0  0  0  0  0
    9.1332   10.2582   25.5798 H   0  0  0  0  0  0  0  0  0  0  0  0
    9.5266   12.7713   21.3964 H   0  0  0  0  0  0  0  0  0  0  0  0
   10.5081   11.6580   22.3498 H   0  0  0  0  0  0  0  0  0  0  0  0
    5.4422   11.4918   23.0990 H   0  0  0  0  0  0  0  0  0  0  0  0
    4.6947   12.8542   23.8946 H   0  0  0  0  0  0  0  0  0  0  0  0
  1  6  1  0  0  0  0
  1 14  3  0  0  0  0
  2  3  2  0  0  0  0
  2  4  1  0  0  0  0
  3  5  1  0  0  0  0
  4  6  2  0  0  0  0
  5  7  2  0  0  0  0
  6  7  1  0  0  0  0
  7 13  1  0  0  0  0
  8 11  1  1  0  0  0
  8 16  1  0  0  0  0
  8 17  2  0  0  0  0
  9 11  1  0  0  0  0
  9 12  1  0  0  0  0
 10 12  1  0  0  0  0
 10 15  1  0  0  0  0
 11 15  1  0  0  0  0
 12 18  1  6  0  0  0
 13 15  1  0  0  0  0
  2 19  1  0  0  0  0
  3 20  1  0  0  0  0
  4 21  1  0  0  0  0
  5 22  1  0  0  0  0
  9 23  1  0  0  0  0
  9 24  1  0  0  0  0
 10 25  1  0  0  0  0
 10 26  1  0  0  0  0
 11 27  1  0  0  0  0
 12 28  1  0  0  0  0
 13 29  1  0  0  0  0
 13 30  1  0  0  0  0
 16 31  1  0  0  0  0
 16 32  1  0  0  0  0
M  END
> <Catalog ID>
Z2054558134

> <PlateID>
1337959-R-10

> <Well>
G03

> <MW (desalted)>
247.268

> <CLogP>
0.859

> <HBD>
1

> <TPSA>
70.120

> <RotBonds>
3

> <ROCS_ShapeQuery>
x0446_0A_x1080_0A_x0929_0A_x0812_0A_x0719_0A_x1140_0A_x0528_0A_x0310_0A

> <ROCS_TanimotoCombo>
0.335 

> <ROCS_ShapeTanimoto>
0.223 

> <ROCS_ColorTanimoto>
0.112 

> <ROCS_RefTversky>
0.203 

> <ROCS_RefColorTversky>
0.122 

> <ROCS_RefTverskyCombo>
0.326 

> <ROCS_FitTversky>
1.740 

> <ROCS_FitColorTversky>
0.577 

> <ROCS_FitTverskyCombo>
2.317 

> <ROCS_ColorScore>
-4.359

> <ROCS_Overlap>
2399.144

> <ROCS_Rank>
94                  

$$$$
untitled-dbase-175_3
  -OEChem-02082415003D

 25 26  0     0  0  0  0  0  0999 V2000
    5.6809   12.2496   23.6782 C   0  0  0  0  0  0  0  0  0  0  0  0
    6.4322   13.3880   23.3845 C   0  0  0  0  0  0  0  0  0  0  0  0
    6.3211   11.0492   23.9876 C   0  0  0  0  0  0  0  0  0  0  0  0
    7.8260   13.3324   23.4093 C   0  0  0  0  0  0  0  0  0  0  0  0
    7.7149   10.9893   23.9997 C   0  0  0  0  0  0  0  0  0  0  0  0
    8.4669   12.1359   23.7319 C   0  0  0  0  0  0  0  0  0  0  0  0
    9.6720    9.7433   23.9403 C   0  0  0  0  0  0  0  0  0  0  0  0
   10.3678   10.9999   24.4261 C   0  0  0  0  0  0  0  0  0  0  0  0
    8.6065   14.5678   23.1001 C   0  0  0  0  0  0  0  0  0  0  0  0
    8.6684   14.8799   21.6043 C   0  0  0  0  0  0  0  0  0  0  0  0
    8.2856    9.7777   24.2907 O   0  0  0  0  0  0  0  0  0  0  0  0
    9.8370   12.1490   23.7604 O   0  0  0  0  0  0  0  0  0  0  0  0
    9.4554   16.0447   21.3909 O   0  0  0  0  0  0  0  0  0  0  0  0
    4.5959   12.2965   23.6618 H   0  0  0  0  0  0  0  0  0  0  0  0
    5.9206   14.3157   23.1409 H   0  0  0  0  0  0  0  0  0  0  0  0
    5.7278   10.1652   24.2052 H   0  0  0  0  0  0  0  0  0  0  0  0
    9.7557    9.6298   22.8524 H   0  0  0  0  0  0  0  0  0  0  0  0
   10.1122    8.8589   24.4113 H   0  0  0  0  0  0  0  0  0  0  0  0
   10.2481   11.1354   25.5082 H   0  0  0  0  0  0  0  0  0  0  0  0
   11.4386   10.9515   24.2045 H   0  0  0  0  0  0  0  0  0  0  0  0
    8.1739   15.4285   23.6320 H   0  0  0  0  0  0  0  0  0  0  0  0
    9.6335   14.4571   23.4784 H   0  0  0  0  0  0  0  0  0  0  0  0
    9.1427   14.0520   21.0675 H   0  0  0  0  0  0  0  0  0  0  0  0
    7.6708   15.0460   21.1845 H   0  0  0  0  0  0  0  0  0  0  0  0
    9.4663   16.2031   20.4333 H   0  0  0  0  0  0  0  0  0  0  0  0
  1  2  1  0  0  0  0
  1  3  2  0  0  0  0
  2  4  2  0  0  0  0
  3  5  1  0  0  0  0
  4  6  1  0  0  0  0
  4  9  1  0  0  0  0
  5  6  2  0  0  0  0
  5 11  1  0  0  0  0
  6 12  1  0  0  0  0
  7  8  1  0  0  0  0
  7 11  1  0  0  0  0
  8 12  1  0  0  0  0
  9 10  1  0  0  0  0
 10 13  1  0  0  0  0
  1 14  1  0  0  0  0
  2 15  1  0  0  0  0
  3 16  1  0  0  0  0
  7 17  1  0  0  0  0
  7 18  1  0  0  0  0
  8 19  1  0  0  0  0
  8 20  1  0  0  0  0
  9 21  1  0  0  0  0
  9 22  1  0  0  0  0
 10 23  1  0  0  0  0
 10 24  1  0  0  0  0
 13 25  1  0  0  0  0
M  END
> <Catalog ID>
Z3242705105

> <PlateID>
1337959-R-04

> <Well>
E08

> <MW (desalted)>
180.200

> <CLogP>
1.257

> <HBD>
1

> <TPSA>
38.690

> <RotBonds>
2

> <ROCS_ShapeQuery>
x0446_0A_x1080_0A_x0929_0A_x0812_0A_x0719_0A_x1140_0A_x0528_0A_x0310_0A

> <ROCS_TanimotoCombo>
0.335 

> <ROCS_ShapeTanimoto>
0.174 

> <ROCS_ColorTanimoto>
0.160 

> <ROCS_RefTversky>
0.163 

> <ROCS_RefColorTversky>
0.167 

> <ROCS_RefTverskyCombo>
0.331 

> <ROCS_FitTversky>
1.644 

> <ROCS_FitColorTversky>
0.788 

> <ROCS_FitTverskyCombo>
2.432 

> <ROCS_ColorScore>
-5.963

> <ROCS_Overlap>
1925.254

> <ROCS_Rank>
95                  

$$$$
untitled-dbase-602_16
  -OEChem-02082415003D

 35 36  0     0  0  0  0  0  0999 V2000
   13.0485   15.4225   22.0686 C   0  0  0  0  0  0  0  0  0  0  0  0
   12.5211   14.8205   23.2109 C   0  0  0  0  0  0  0  0  0  0  0  0
   10.9358   15.1235   20.9355 C   0  0  0  0  0  0  0  0  0  0  0  0
   12.2558   15.5740   20.9309 C   0  0  0  0  0  0  0  0  0  0  0  0
   10.4083   14.5214   22.0779 C   0  0  0  0  0  0  0  0  0  0  0  0
   11.2010   14.3699   23.2156 C   0  0  0  0  0  0  0  0  0  0  0  0
    9.4008   10.6573   23.4755 C   0  0  0  0  0  0  0  0  0  0  0  0
    7.7111   11.7427   24.8148 C   0  0  0  0  0  0  0  0  0  0  0  0
    9.5372   11.7463   22.7112 C   0  0  0  0  0  0  0  0  0  0  0  0
    8.4539   10.6526   24.5678 C   0  0  0  0  0  0  0  0  0  0  0  0
    7.8520   12.9680   23.9698 C   0  0  0  0  0  0  0  0  0  0  0  0
   12.8199   16.2191   19.7103 C   0  0  0  0  0  0  0  0  0  0  0  0
    8.3540    9.3995   25.3812 C   0  0  0  0  0  0  0  0  0  0  0  0
   11.5828   13.6690   25.4559 C   0  0  0  0  0  0  0  0  0  0  0  0
    8.9851   14.0435   22.0658 C   0  0  0  0  0  0  0  0  0  0  0  0
    8.7899   12.8888   22.9344 N   0  0  0  0  0  0  0  0  0  0  0  0
    7.1544   13.9479   24.2275 O   0  0  0  0  0  0  0  0  0  0  0  0
   10.7026   13.7827   24.3396 O   0  0  0  0  0  0  0  0  0  0  0  0
   14.0779   15.7713   22.0737 H   0  0  0  0  0  0  0  0  0  0  0  0
   13.1440   14.7075   24.0942 H   0  0  0  0  0  0  0  0  0  0  0  0
   10.3184   15.2425   20.0481 H   0  0  0  0  0  0  0  0  0  0  0  0
    9.9956    9.7707   23.2852 H   0  0  0  0  0  0  0  0  0  0  0  0
    6.9903   11.7778   25.6245 H   0  0  0  0  0  0  0  0  0  0  0  0
   10.2406   11.7736   21.8864 H   0  0  0  0  0  0  0  0  0  0  0  0
   13.2775   15.4661   19.0571 H   0  0  0  0  0  0  0  0  0  0  0  0
   12.0421   16.7458   19.1423 H   0  0  0  0  0  0  0  0  0  0  0  0
   13.5830   16.9645   19.9700 H   0  0  0  0  0  0  0  0  0  0  0  0
    9.0565    9.4456   26.2114 H   0  0  0  0  0  0  0  0  0  0  0  0
    8.5865    8.5383   24.7568 H   0  0  0  0  0  0  0  0  0  0  0  0
    7.3417    9.2943   25.7680 H   0  0  0  0  0  0  0  0  0  0  0  0
   11.0611   13.1835   26.2842 H   0  0  0  0  0  0  0  0  0  0  0  0
   11.9210   14.6636   25.7571 H   0  0  0  0  0  0  0  0  0  0  0  0
   12.4461   13.0645   25.1677 H   0  0  0  0  0  0  0  0  0  0  0  0
    8.3086   14.8367   22.4022 H   0  0  0  0  0  0  0  0  0  0  0  0
    8.6749   13.7584   21.0551 H   0  0  0  0  0  0  0  0  0  0  0  0
  1  2  1  0  0  0  0
  1  4  2  0  0  0  0
  2  6  2  0  0  0  0
  3  4  1  0  0  0  0
  3  5  2  0  0  0  0
  4 12  1  0  0  0  0
  5  6  1  0  0  0  0
  5 15  1  0  0  0  0
  6 18  1  0  0  0  0
  7  9  2  0  0  0  0
  7 10  1  0  0  0  0
  8 10  2  0  0  0  0
  8 11  1  0  0  0  0
  9 16  1  0  0  0  0
 10 13  1  0  0  0  0
 11 16  1  0  0  0  0
 11 17  2  0  0  0  0
 14 18  1  0  0  0  0
 15 16  1  0  0  0  0
  1 19  1  0  0  0  0
  2 20  1  0  0  0  0
  3 21  1  0  0  0  0
  7 22  1  0  0  0  0
  8 23  1  0  0  0  0
  9 24  1  0  0  0  0
 12 25  1  0  0  0  0
 12 26  1  0  0  0  0
 12 27  1  0  0  0  0
 13 28  1  0  0  0  0
 13 29  1  0  0  0  0
 13 30  1  0  0  0  0
 14 31  1  0  0  0  0
 14 32  1  0  0  0  0
 14 33  1  0  0  0  0
 15 34  1  0  0  0  0
 15 35  1  0  0  0  0
M  END
> <Catalog ID>
Z1134990361

> <PlateID>
1337959-R-14

> <Well>
A08

> <MW (desalted)>
243.301

> <CLogP>
2.599

> <HBD>
0

> <TPSA>
29.540

> <RotBonds>
3

> <ROCS_ShapeQuery>
x0446_0A_x1080_0A_x0929_0A_x0812_0A_x0719_0A_x1140_0A_x0528_0A_x0310_0A

> <ROCS_TanimotoCombo>
0.335 

> <ROCS_ShapeTanimoto>
0.218 

> <ROCS_ColorTanimoto>
0.116 

> <ROCS_RefTversky>
0.200 

> <ROCS_RefColorTversky>
0.121 

> <ROCS_RefTverskyCombo>
0.321 

> <ROCS_FitTversky>
1.709 

> <ROCS_FitColorTversky>
0.759 

> <ROCS_FitTverskyCombo>
2.469 

> <ROCS_ColorScore>
-4.298

> <ROCS_Overlap>
2359.940

> <ROCS_Rank>
96                  

$$$$
untitled-dbase-398_34
  -OEChem-02082415003D

 35 36  0     0  0  0  0  0  0999 V2000
    9.0107    9.9510   24.1640 C   0  0  0  0  0  0  0  0  0  0  0  0
    7.8760   10.6038   24.6454 C   0  0  0  0  0  0  0  0  0  0  0  0
   10.0026   10.6737   23.5009 C   0  0  0  0  0  0  0  0  0  0  0  0
    7.7330   11.9794   24.4636 C   0  0  0  0  0  0  0  0  0  0  0  0
    9.8596   12.0492   23.3191 C   0  0  0  0  0  0  0  0  0  0  0  0
    8.7248   12.7021   23.8004 C   0  0  0  0  0  0  0  0  0  0  0  0
   12.9902   14.2388   21.2489 C   0  0  0  0  0  0  0  0  0  0  0  0
   11.7684   13.6492   20.5502 C   0  0  0  0  0  0  0  0  0  0  0  0
   12.9936   13.9767   22.7522 C   0  0  0  0  0  0  0  0  0  0  0  0
   11.2220   12.4193   21.2720 C   0  0  0  0  0  0  0  0  0  0  0  0
   11.5836   13.8409   23.3224 C   0  0  0  0  0  0  0  0  0  0  0  0
    6.6963   15.7586   22.6016 C   0  0  0  0  0  0  0  0  0  0  0  0
   10.8618   12.7528   22.6542 N   0  0  0  0  0  0  0  0  0  0  0  0
    8.5545   14.1118   23.6237 N   0  0  0  0  0  0  0  0  0  0  0  0
    9.0512   15.5176   21.5227 O   0  0  0  0  0  0  0  0  0  0  0  0
    7.4301   13.6007   21.3160 O   0  0  0  0  0  0  0  0  0  0  0  0
    8.0136   14.6775   22.0913 S   0  0  0  0  0  0  0  0  0  0  0  0
    9.1218    8.8797   24.3049 H   0  0  0  0  0  0  0  0  0  0  0  0
    7.1038   10.0412   25.1621 H   0  0  0  0  0  0  0  0  0  0  0  0
   10.8824   10.1537   23.1307 H   0  0  0  0  0  0  0  0  0  0  0  0
    6.8449   12.4776   24.8431 H   0  0  0  0  0  0  0  0  0  0  0  0
   13.9110   13.8199   20.7982 H   0  0  0  0  0  0  0  0  0  0  0  0
   13.0342   15.3284   21.0623 H   0  0  0  0  0  0  0  0  0  0  0  0
   10.9799   14.4139   20.4818 H   0  0  0  0  0  0  0  0  0  0  0  0
   12.0311   13.3816   19.5170 H   0  0  0  0  0  0  0  0  0  0  0  0
   13.5639   13.0600   22.9629 H   0  0  0  0  0  0  0  0  0  0  0  0
   13.5210   14.7944   23.2677 H   0  0  0  0  0  0  0  0  0  0  0  0
   10.3440   12.0514   20.7269 H   0  0  0  0  0  0  0  0  0  0  0  0
   11.9753   11.6209   21.2673 H   0  0  0  0  0  0  0  0  0  0  0  0
   11.6356   13.6469   24.4016 H   0  0  0  0  0  0  0  0  0  0  0  0
   11.0547   14.7921   23.1818 H   0  0  0  0  0  0  0  0  0  0  0  0
    6.2486   16.2005   21.7101 H   0  0  0  0  0  0  0  0  0  0  0  0
    5.9587   15.1686   23.1477 H   0  0  0  0  0  0  0  0  0  0  0  0
    7.1168   16.5344   23.2432 H   0  0  0  0  0  0  0  0  0  0  0  0
    9.2956   14.6833   24.0589 H   0  0  0  0  0  0  0  0  0  0  0  0
  1  2  2  0  0  0  0
  1  3  1  0  0  0  0
  2  4  1  0  0  0  0
  3  5  2  0  0  0  0
  4  6  2  0  0  0  0
  5  6  1  0  0  0  0
  5 13  1  0  0  0  0
  6 14  1  0  0  0  0
  7  8  1  0  0  0  0
  7  9  1  0  0  0  0
  8 10  1  0  0  0  0
  9 11  1  0  0  0  0
 10 13  1  0  0  0  0
 11 13  1  0  0  0  0
 12 17  1  0  0  0  0
 14 17  1  0  0  0  0
 15 17  2  0  0  0  0
 16 17  2  0  0  0  0
  1 18  1  0  0  0  0
  2 19  1  0  0  0  0
  3 20  1  0  0  0  0
  4 21  1  0  0  0  0
  7 22  1  0  0  0  0
  7 23  1  0  0  0  0
  8 24  1  0  0  0  0
  8 25  1  0  0  0  0
  9 26  1  0  0  0  0
  9 27  1  0  0  0  0
 10 28  1  0  0  0  0
 10 29  1  0  0  0  0
 11 30  1  0  0  0  0
 11 31  1  0  0  0  0
 12 32  1  0  0  0  0
 12 33  1  0  0  0  0
 12 34  1  0  0  0  0
 14 35  1  0  0  0  0
M  END
> <Catalog ID>
Z45692835

> <PlateID>
1337959-R-09

> <Well>
E04

> <MW (desalted)>
254.349

> <CLogP>
1.789

> <HBD>
1

> <TPSA>
49.410

> <RotBonds>
2

> <ROCS_ShapeQuery>
x0446_0A_x1080_0A_x0929_0A_x0812_0A_x0719_0A_x1140_0A_x0528_0A_x0310_0A

> <ROCS_TanimotoCombo>
0.334 

> <ROCS_ShapeTanimoto>
0.217 

> <ROCS_ColorTanimoto>
0.118 

> <ROCS_RefTversky>
0.198 

> <ROCS_RefColorTversky>
0.125 

> <ROCS_RefTverskyCombo>
0.323 

> <ROCS_FitTversky>
1.787 

> <ROCS_FitColorTversky>
0.672 

> <ROCS_FitTverskyCombo>
2.459 

> <ROCS_ColorScore>
-4.446

> <ROCS_Overlap>
2333.451

> <ROCS_Rank>
97                  

$$$$
untitled-dbase-475_48
  -OEChem-02082415003D

 29 30  0     1  0  0  0  0  0999 V2000
    5.9559   13.1404   24.8788 C   0  0  0  0  0  0  0  0  0  0  0  0
    5.5354   11.8460   25.1635 C   0  0  0  0  0  0  0  0  0  0  0  0
    7.2570   13.3818   24.4282 C   0  0  0  0  0  0  0  0  0  0  0  0
    6.4008   10.7604   25.0065 C   0  0  0  0  0  0  0  0  0  0  0  0
    8.1518   12.3028   24.2609 C   0  0  0  0  0  0  0  0  0  0  0  0
    7.7063   11.0102   24.5537 C   0  0  0  0  0  0  0  0  0  0  0  0
    9.9971   11.1898   23.7886 C   0  0  0  0  0  0  0  0  0  0  0  0
   10.9778   12.3424   21.4373 C   0  0  0  0  0  0  0  0  0  0  0  0
   10.6417   14.3485   19.9963 C   0  0  0  0  0  0  0  0  0  0  0  0
   12.0430    9.7932   23.9441 C   0  0  0  0  0  0  0  0  0  0  0  0
   11.9769   11.7621   22.4054 C   0  0  0  0  0  0  0  0  0  0  0  0
    9.4657   12.3894   23.8242 N   0  0  0  0  0  0  0  0  0  0  0  0
   11.4027   13.5682   20.9453 N   0  0  0  0  0  0  0  0  0  0  0  0
   11.2748   10.9311   23.4027 N   0  0  3  0  0  0  0  0  0  0  0  0
    9.9273   11.7830   21.1338 O   0  0  0  0  0  0  0  0  0  0  0  0
    8.9880    9.8935   24.2653 S   0  0  0  0  0  0  0  0  0  0  0  0
    5.2688   13.9724   25.0066 H   0  0  0  0  0  0  0  0  0  0  0  0
    4.5205   11.6745   25.5127 H   0  0  0  0  0  0  0  0  0  0  0  0
    7.5746   14.3972   24.2086 H   0  0  0  0  0  0  0  0  0  0  0  0
    6.0657    9.7524   25.2307 H   0  0  0  0  0  0  0  0  0  0  0  0
   10.9304   14.0658   18.9732 H   0  0  0  0  0  0  0  0  0  0  0  0
    9.5683   14.1561   20.1407 H   0  0  0  0  0  0  0  0  0  0  0  0
   10.8469   15.4178   20.1529 H   0  0  0  0  0  0  0  0  0  0  0  0
   13.0458    9.7792   23.4924 H   0  0  0  0  0  0  0  0  0  0  0  0
   12.1338    9.8983   25.0353 H   0  0  0  0  0  0  0  0  0  0  0  0
   11.5216    8.8537   23.7084 H   0  0  0  0  0  0  0  0  0  0  0  0
   12.6978   11.1427   21.8638 H   0  0  0  0  0  0  0  0  0  0  0  0
   12.5069   12.5692   22.9196 H   0  0  0  0  0  0  0  0  0  0  0  0
   12.2932   13.9354   21.2683 H   0  0  0  0  0  0  0  0  0  0  0  0
  1  2  2  0  0  0  0
  1  3  1  0  0  0  0
  2  4  1  0  0  0  0
  3  5  2  0  0  0  0
  4  6  2  0  0  0  0
  5  6  1  0  0  0  0
  5 12  1  0  0  0  0
  6 16  1  0  0  0  0
  7 12  2  0  0  0  0
  7 14  1  0  0  0  0
  7 16  1  0  0  0  0
  8 11  1  0  0  0  0
  8 13  1  0  0  0  0
  8 15  2  0  0  0  0
  9 13  1  0  0  0  0
 10 14  1  0  0  0  0
 11 14  1  0  0  0  0
  1 17  1  0  0  0  0
  2 18  1  0  0  0  0
  3 19  1  0  0  0  0
  4 20  1  0  0  0  0
  9 21  1  0  0  0  0
  9 22  1  0  0  0  0
  9 23  1  0  0  0  0
 10 24  1  0  0  0  0
 10 25  1  0  0  0  0
 10 26  1  0  0  0  0
 11 27  1  0  0  0  0
 11 28  1  0  0  0  0
 13 29  1  0  0  0  0
M  END
> <Catalog ID>
Z94821784

> <PlateID>
1337959-R-11

> <Well>
D04

> <MW (desalted)>
235.305

> <CLogP>
1.761

> <HBD>
1

> <TPSA>
45.230

> <RotBonds>
3

> <ROCS_ShapeQuery>
x0446_0A_x1080_0A_x0929_0A_x0812_0A_x0719_0A_x1140_0A_x0528_0A_x0310_0A

> <ROCS_TanimotoCombo>
0.334 

> <ROCS_ShapeTanimoto>
0.191 

> <ROCS_ColorTanimoto>
0.144 

> <ROCS_RefTversky>
0.178 

> <ROCS_RefColorTversky>
0.149 

> <ROCS_RefTverskyCombo>
0.326 

> <ROCS_FitTversky>
1.632 

> <ROCS_FitColorTversky>
0.800 

> <ROCS_FitTverskyCombo>
2.432 

> <ROCS_ColorScore>
-5.300

> <ROCS_Overlap>
2094.431

> <ROCS_Rank>
98                  

$$$$
untitled-dbase-515_17
  -OEChem-02082415003D

 28 28  0     0  0  0  0  0  0999 V2000
    8.8644   11.8295   22.8292 C   0  0  0  0  0  0  0  0  0  0  0  0
    9.1357   10.4666   23.0399 C   0  0  0  0  0  0  0  0  0  0  0  0
    8.0330   12.1603   23.8663 C   0  0  0  0  0  0  0  0  0  0  0  0
    9.9802    9.5711   22.2309 C   0  0  0  0  0  0  0  0  0  0  0  0
    7.3608   13.3991   24.2799 C   0  0  0  0  0  0  0  0  0  0  0  0
   12.3925   12.9366   21.6930 C   0  0  0  0  0  0  0  0  0  0  0  0
   12.3110   15.4334   21.4080 C   0  0  0  0  0  0  0  0  0  0  0  0
   11.5486   14.1252   21.2572 C   0  0  0  0  0  0  0  0  0  0  0  0
    8.5197    9.9885   24.1247 N   0  0  0  0  0  0  0  0  0  0  0  0
    9.3556   12.6646   21.7655 N   0  0  0  0  0  0  0  0  0  0  0  0
    9.2165   15.2251   21.6022 O   0  0  0  0  0  0  0  0  0  0  0  0
   10.3832   14.2250   23.5981 O   0  0  0  0  0  0  0  0  0  0  0  0
    7.8198   11.0699   24.6464 O   0  0  0  0  0  0  0  0  0  0  0  0
   10.0407   14.1824   22.1885 S   0  0  0  0  0  0  0  0  0  0  0  0
   11.0254    9.5787   22.5846 H   0  0  0  0  0  0  0  0  0  0  0  0
    9.6267    8.5250   22.2606 H   0  0  0  0  0  0  0  0  0  0  0  0
    9.9882    9.8569   21.1638 H   0  0  0  0  0  0  0  0  0  0  0  0
    6.3602   13.4892   23.8201 H   0  0  0  0  0  0  0  0  0  0  0  0
    7.2258   13.4589   25.3761 H   0  0  0  0  0  0  0  0  0  0  0  0
    7.9342   14.3027   24.0001 H   0  0  0  0  0  0  0  0  0  0  0  0
   12.7055   13.0411   22.7369 H   0  0  0  0  0  0  0  0  0  0  0  0
   11.8377   11.9970   21.5947 H   0  0  0  0  0  0  0  0  0  0  0  0
   13.2942   12.8525   21.0769 H   0  0  0  0  0  0  0  0  0  0  0  0
   12.6225   15.5870   22.4462 H   0  0  0  0  0  0  0  0  0  0  0  0
   11.6976   16.2889   21.1046 H   0  0  0  0  0  0  0  0  0  0  0  0
   13.2098   15.4343   20.7820 H   0  0  0  0  0  0  0  0  0  0  0  0
   11.2492   13.9961   20.2115 H   0  0  0  0  0  0  0  0  0  0  0  0
    8.7493   12.6744   20.9342 H   0  0  0  0  0  0  0  0  0  0  0  0
  1  2  1  0  0  0  0
  1  3  2  0  0  0  0
  1 10  1  0  0  0  0
  2  4  1  0  0  0  0
  2  9  2  0  0  0  0
  3  5  1  0  0  0  0
  3 13  1  0  0  0  0
  6  8  1  0  0  0  0
  7  8  1  0  0  0  0
  8 14  1  0  0  0  0
  9 13  1  0  0  0  0
 10 14  1  0  0  0  0
 11 14  2  0  0  0  0
 12 14  2  0  0  0  0
  4 15  1  0  0  0  0
  4 16  1  0  0  0  0
  4 17  1  0  0  0  0
  5 18  1  0  0  0  0
  5 19  1  0  0  0  0
  5 20  1  0  0  0  0
  6 21  1  0  0  0  0
  6 22  1  0  0  0  0
  6 23  1  0  0  0  0
  7 24  1  0  0  0  0
  7 25  1  0  0  0  0
  7 26  1  0  0  0  0
  8 27  1  0  0  0  0
 10 28  1  0  0  0  0
M  END
> <Catalog ID>
Z1065888114

> <PlateID>
1337959-R-12

> <Well>
B09

> <MW (desalted)>
218.273

> <CLogP>
-0.202

> <HBD>
1

> <TPSA>
72.200

> <RotBonds>
2

> <ROCS_ShapeQuery>
x0446_0A_x1080_0A_x0929_0A_x0812_0A_x0719_0A_x1140_0A_x0528_0A_x0310_0A

> <ROCS_TanimotoCombo>
0.334 

> <ROCS_ShapeTanimoto>
0.196 

> <ROCS_ColorTanimoto>
0.139 

> <ROCS_RefTversky>
0.180 

> <ROCS_RefColorTversky>
0.148 

> <ROCS_RefTverskyCombo>
0.327 

> <ROCS_FitTversky>
1.811 

> <ROCS_FitColorTversky>
0.695 

> <ROCS_FitTverskyCombo>
2.506 

> <ROCS_ColorScore>
-5.256

> <ROCS_Overlap>
2121.129

> <ROCS_Rank>
99                  

$$$$
untitled-dbase-221_7
  -OEChem-02082415003D

 28 29  0     0  0  0  0  0  0999 V2000
    8.9391    9.9655   23.7706 C   0  0  0  0  0  0  0  0  0  0  0  0
    9.6885   10.8273   22.9699 C   0  0  0  0  0  0  0  0  0  0  0  0
    7.9658   10.4793   24.6277 C   0  0  0  0  0  0  0  0  0  0  0  0
    9.4647   12.2029   23.0261 C   0  0  0  0  0  0  0  0  0  0  0  0
    7.7421   11.8549   24.6840 C   0  0  0  0  0  0  0  0  0  0  0  0
    8.4915   12.7168   23.8832 C   0  0  0  0  0  0  0  0  0  0  0  0
    9.1949   14.9953   22.9677 C   0  0  0  0  0  0  0  0  0  0  0  0
   10.9187   16.0524   22.3957 C   0  0  0  0  0  0  0  0  0  0  0  0
    8.4742   14.8531   25.3591 C   0  0  0  0  0  0  0  0  0  0  0  0
    6.7382   14.4838   23.6348 C   0  0  0  0  0  0  0  0  0  0  0  0
    8.2519   14.1876   23.9440 C   0  0  0  0  0  0  0  0  0  0  0  0
    9.0054   15.3416   21.7160 N   0  0  0  0  0  0  0  0  0  0  0  0
   10.1395   16.0369   21.3396 N   0  0  0  0  0  0  0  0  0  0  0  0
   12.1433   16.5973   22.5626 N   0  0  0  0  0  0  0  0  0  0  0  0
   10.3889   15.4103   23.4727 O   0  0  0  0  0  0  0  0  0  0  0  0
    9.1126    8.8942   23.7257 H   0  0  0  0  0  0  0  0  0  0  0  0
   10.4456   10.4273   22.3017 H   0  0  0  0  0  0  0  0  0  0  0  0
    7.3815    9.8085   25.2505 H   0  0  0  0  0  0  0  0  0  0  0  0
   10.0535   12.8669   22.3987 H   0  0  0  0  0  0  0  0  0  0  0  0
    6.9818   12.2462   25.3547 H   0  0  0  0  0  0  0  0  0  0  0  0
    8.2776   15.9310   25.3154 H   0  0  0  0  0  0  0  0  0  0  0  0
    7.8006   14.4228   26.1094 H   0  0  0  0  0  0  0  0  0  0  0  0
    9.4964   14.7268   25.7379 H   0  0  0  0  0  0  0  0  0  0  0  0
    6.5574   15.5652   23.6786 H   0  0  0  0  0  0  0  0  0  0  0  0
    6.4113   14.1420   22.6456 H   0  0  0  0  0  0  0  0  0  0  0  0
    6.0812   14.0204   24.3801 H   0  0  0  0  0  0  0  0  0  0  0  0
   12.6471   17.0587   21.7912 H   0  0  0  0  0  0  0  0  0  0  0  0
   12.6724   16.4959   23.4410 H   0  0  0  0  0  0  0  0  0  0  0  0
  1  2  2  0  0  0  0
  1  3  1  0  0  0  0
  2  4  1  0  0  0  0
  3  5  2  0  0  0  0
  4  6  2  0  0  0  0
  5  6  1  0  0  0  0
  6 11  1  0  0  0  0
  7 11  1  0  0  0  0
  7 12  2  0  0  0  0
  7 15  1  0  0  0  0
  8 13  2  0  0  0  0
  8 14  1  0  0  0  0
  8 15  1  0  0  0  0
  9 11  1  0  0  0  0
 10 11  1  0  0  0  0
 12 13  1  0  0  0  0
  1 16  1  0  0  0  0
  2 17  1  0  0  0  0
  3 18  1  0  0  0  0
  4 19  1  0  0  0  0
  5 20  1  0  0  0  0
  9 21  1  0  0  0  0
  9 22  1  0  0  0  0
  9 23  1  0  0  0  0
 10 24  1  0  0  0  0
 10 25  1  0  0  0  0
 10 26  1  0  0  0  0
 14 27  1  0  0  0  0
 14 28  1  0  0  0  0
M  END
> <Catalog ID>
Z285233970

> <PlateID>
1337959-R-05

> <Well>
D07

> <MW (desalted)>
203.240

> <CLogP>
1.582

> <HBD>
1

> <TPSA>
64.940

> <RotBonds>
2

> <ROCS_ShapeQuery>
x0446_0A_x1080_0A_x0929_0A_x0812_0A_x0719_0A_x1140_0A_x0528_0A_x0310_0A

> <ROCS_TanimotoCombo>
0.334 

> <ROCS_ShapeTanimoto>
0.193 

> <ROCS_ColorTanimoto>
0.141 

> <ROCS_RefTversky>
0.179 

> <ROCS_RefColorTversky>
0.154 

> <ROCS_RefTverskyCombo>
0.333 

> <ROCS_FitTversky>
1.675 

> <ROCS_FitColorTversky>
0.626 

> <ROCS_FitTverskyCombo>
2.300 

> <ROCS_ColorScore>
-5.502

> <ROCS_Overlap>
2112.247

> <ROCS_Rank>
100                 

$$$$
untitled-dbase-330_29
  -OEChem-02082415003D

 36 37  0     0  0  0  0  0  0999 V2000
   10.1870   14.7730   21.5790 C   0  0  0  0  0  0  0  0  0  0  0  0
    5.6164   11.2192   24.6416 C   0  0  0  0  0  0  0  0  0  0  0  0
    6.8377   10.6826   24.2345 C   0  0  0  0  0  0  0  0  0  0  0  0
    5.5361   12.5578   25.0259 C   0  0  0  0  0  0  0  0  0  0  0  0
    7.8987   12.8229   24.5959 C   0  0  0  0  0  0  0  0  0  0  0  0
    7.9789   11.4843   24.2116 C   0  0  0  0  0  0  0  0  0  0  0  0
    6.6773   13.3596   25.0030 C   0  0  0  0  0  0  0  0  0  0  0  0
    9.7767   11.6919   22.5537 C   0  0  0  0  0  0  0  0  0  0  0  0
   10.1232    9.5892   25.6245 C   0  0  0  0  0  0  0  0  0  0  0  0
    9.5470    8.6205   24.5943 C   0  0  0  0  0  0  0  0  0  0  0  0
   10.3643   10.8980   24.8770 C   0  0  0  0  0  0  0  0  0  0  0  0
    9.3470    9.4322   23.3140 C   0  0  0  0  0  0  0  0  0  0  0  0
    9.3080   10.8996   23.7668 C   0  0  0  0  0  0  0  0  0  0  0  0
    6.5915   14.7907   25.4145 C   0  0  0  0  0  0  0  0  0  0  0  0
   11.1090   13.6756   21.8664 C   0  0  0  0  0  0  0  0  0  0  0  0
    9.4578   15.6457   21.3487 N   0  0  0  0  0  0  0  0  0  0  0  0
   10.5578   12.7883   22.8654 N   0  0  0  0  0  0  0  0  0  0  0  0
    9.4504   11.3264   21.4305 O   0  0  0  0  0  0  0  0  0  0  0  0
    4.7278   10.5948   24.6593 H   0  0  0  0  0  0  0  0  0  0  0  0
    6.8906    9.6386   23.9363 H   0  0  0  0  0  0  0  0  0  0  0  0
    4.5804   12.9673   25.3424 H   0  0  0  0  0  0  0  0  0  0  0  0
    8.7878   13.4487   24.5774 H   0  0  0  0  0  0  0  0  0  0  0  0
    9.4499    9.7213   26.4869 H   0  0  0  0  0  0  0  0  0  0  0  0
   11.0754    9.1944   26.0191 H   0  0  0  0  0  0  0  0  0  0  0  0
   10.2023    7.7582   24.4406 H   0  0  0  0  0  0  0  0  0  0  0  0
    8.5801    8.2420   24.9455 H   0  0  0  0  0  0  0  0  0  0  0  0
   10.2208   11.7409   25.5668 H   0  0  0  0  0  0  0  0  0  0  0  0
   11.3916   10.9526   24.4979 H   0  0  0  0  0  0  0  0  0  0  0  0
   10.1609    9.2395   22.6143 H   0  0  0  0  0  0  0  0  0  0  0  0
    8.4207    9.1182   22.8301 H   0  0  0  0  0  0  0  0  0  0  0  0
    6.7764   14.8901   26.4911 H   0  0  0  0  0  0  0  0  0  0  0  0
    7.3258   15.4044   24.8771 H   0  0  0  0  0  0  0  0  0  0  0  0
    5.6021   15.2107   25.1910 H   0  0  0  0  0  0  0  0  0  0  0  0
   11.3068   13.0818   20.9695 H   0  0  0  0  0  0  0  0  0  0  0  0
   12.0624   14.0518   22.2482 H   0  0  0  0  0  0  0  0  0  0  0  0
   10.7541   12.9798   23.8433 H   0  0  0  0  0  0  0  0  0  0  0  0
  1 15  1  0  0  0  0
  1 16  3  0  0  0  0
  2  3  2  0  0  0  0
  2  4  1  0  0  0  0
  3  6  1  0  0  0  0
  4  7  2  0  0  0  0
  5  6  2  0  0  0  0
  5  7  1  0  0  0  0
  6 13  1  0  0  0  0
  7 14  1  0  0  0  0
  8 13  1  0  0  0  0
  8 17  1  0  0  0  0
  8 18  2  0  0  0  0
  9 10  1  0  0  0  0
  9 11  1  0  0  0  0
 10 12  1  0  0  0  0
 11 13  1  0  0  0  0
 12 13  1  0  0  0  0
 15 17  1  0  0  0  0
  2 19  1  0  0  0  0
  3 20  1  0  0  0  0
  4 21  1  0  0  0  0
  5 22  1  0  0  0  0
  9 23  1  0  0  0  0
  9 24  1  0  0  0  0
 10 25  1  0  0  0  0
 10 26  1  0  0  0  0
 11 27  1  0  0  0  0
 11 28  1  0  0  0  0
 12 29  1  0  0  0  0
 12 30  1  0  0  0  0
 14 31  1  0  0  0  0
 14 32  1  0  0  0  0
 14 33  1  0  0  0  0
 15 34  1  0  0  0  0
 15 35  1  0  0  0  0
 17 36  1  0  0  0  0
M  END
> <Catalog ID>
Z1030455614

> <PlateID>
1337959-R-08

> <Well>
A04

> <MW (desalted)>
242.316

> <CLogP>
2.244

> <HBD>
1

> <TPSA>
52.890

> <RotBonds>
3

> <ROCS_ShapeQuery>
x0446_0A_x1080_0A_x0929_0A_x0812_0A_x0719_0A_x1140_0A_x0528_0A_x0310_0A

> <ROCS_TanimotoCombo>
0.334 

> <ROCS_ShapeTanimoto>
0.219 

> <ROCS_ColorTanimoto>
0.115 

> <ROCS_RefTversky>
0.200 

> <ROCS_RefColorTversky>
0.123 

> <ROCS_RefTverskyCombo>
0.323 

> <ROCS_FitTversky>
1.728 

> <ROCS_FitColorTversky>
0.660 

> <ROCS_FitTverskyCombo>
2.388 

> <ROCS_ColorScore>
-4.362

> <ROCS_Overlap>
2363.176

> <ROCS_Rank>
101                 

$$$$
untitled-dbase-459_15
  -OEChem-02082415003D

 28 28  0     0  0  0  0  0  0999 V2000
    7.8575   10.1715   24.7154 C   0  0  0  0  0  0  0  0  0  0  0  0
    7.2743   11.3368   24.2179 C   0  0  0  0  0  0  0  0  0  0  0  0
    9.1874    9.8747   24.4168 C   0  0  0  0  0  0  0  0  0  0  0  0
    8.0209   12.2053   23.4217 C   0  0  0  0  0  0  0  0  0  0  0  0
    9.3508   11.9085   23.1231 C   0  0  0  0  0  0  0  0  0  0  0  0
    9.9340   10.7432   23.6206 C   0  0  0  0  0  0  0  0  0  0  0  0
    7.3817   13.4147   22.9185 C   0  0  0  0  0  0  0  0  0  0  0  0
   10.8811   13.8302   22.9199 C   0  0  0  0  0  0  0  0  0  0  0  0
   13.0647   14.2513   21.6964 C   0  0  0  0  0  0  0  0  0  0  0  0
   10.1541   12.5964   20.8408 C   0  0  0  0  0  0  0  0  0  0  0  0
   11.6569   14.7514   21.9826 C   0  0  0  0  0  0  0  0  0  0  0  0
   10.1436   12.7980   22.2982 N   0  0  0  0  0  0  0  0  0  0  0  0
    7.2395   13.7031   21.7276 O   0  0  0  0  0  0  0  0  0  0  0  0
   10.9090   14.0450   24.1344 O   0  0  0  0  0  0  0  0  0  0  0  0
    6.9407   14.2219   23.9204 O   0  0  0  0  0  0  0  0  0  0  0  0
   11.2116   10.4476   23.3412 F   0  0  0  0  0  0  0  0  0  0  0  0
    7.2761    9.4955   25.3355 H   0  0  0  0  0  0  0  0  0  0  0  0
    6.2372   11.5564   24.4583 H   0  0  0  0  0  0  0  0  0  0  0  0
    9.6417    8.9679   24.8046 H   0  0  0  0  0  0  0  0  0  0  0  0
   13.0296   13.2571   21.2402 H   0  0  0  0  0  0  0  0  0  0  0  0
   13.6534   14.1842   22.6173 H   0  0  0  0  0  0  0  0  0  0  0  0
   13.5892   14.9238   21.0095 H   0  0  0  0  0  0  0  0  0  0  0  0
    9.3441   13.1833   20.3831 H   0  0  0  0  0  0  0  0  0  0  0  0
   11.1210   12.9253   20.4323 H   0  0  0  0  0  0  0  0  0  0  0  0
   10.0053   11.5297   20.6173 H   0  0  0  0  0  0  0  0  0  0  0  0
   11.7260   15.7454   22.4373 H   0  0  0  0  0  0  0  0  0  0  0  0
   11.1152   14.8232   21.0334 H   0  0  0  0  0  0  0  0  0  0  0  0
    6.5078   15.0386   23.5918 H   0  0  0  0  0  0  0  0  0  0  0  0
  1  2  1  0  0  0  0
  1  3  2  0  0  0  0
  2  4  2  0  0  0  0
  3  6  1  0  0  0  0
  4  5  1  0  0  0  0
  4  7  1  0  0  0  0
  5  6  2  0  0  0  0
  5 12  1  0  0  0  0
  6 16  1  0  0  0  0
  7 13  2  0  0  0  0
  7 15  1  0  0  0  0
  8 11  1  0  0  0  0
  8 12  1  0  0  0  0
  8 14  2  0  0  0  0
  9 11  1  0  0  0  0
 10 12  1  0  0  0  0
  1 17  1  0  0  0  0
  2 18  1  0  0  0  0
  3 19  1  0  0  0  0
  9 20  1  0  0  0  0
  9 21  1  0  0  0  0
  9 22  1  0  0  0  0
 10 23  1  0  0  0  0
 10 24  1  0  0  0  0
 10 25  1  0  0  0  0
 11 26  1  0  0  0  0
 11 27  1  0  0  0  0
 15 28  1  0  0  0  0
M  END
> <Catalog ID>
Z910841134

> <PlateID>
1337959-R-11

> <Well>
A03

> <MW (desalted)>
225.216

> <CLogP>
2.900

> <HBD>
1

> <TPSA>
57.610

> <RotBonds>
3

> <ROCS_ShapeQuery>
x0446_0A_x1080_0A_x0929_0A_x0812_0A_x0719_0A_x1140_0A_x0528_0A_x0310_0A

> <ROCS_TanimotoCombo>
0.334 

> <ROCS_ShapeTanimoto>
0.221 

> <ROCS_ColorTanimoto>
0.113 

> <ROCS_RefTversky>
0.201 

> <ROCS_RefColorTversky>
0.123 

> <ROCS_RefTverskyCombo>
0.324 

> <ROCS_FitTversky>
1.838 

> <ROCS_FitColorTversky>
0.579 

> <ROCS_FitTverskyCombo>
2.416 

> <ROCS_ColorScore>
-4.380

> <ROCS_Overlap>
2369.868

> <ROCS_Rank>
102                 

$$$$
untitled-dbase-208_30
  -OEChem-02082415003D

 35 36  0     0  0  0  0  0  0999 V2000
    9.5675   11.7695   22.9842 C   0  0  0  0  0  0  0  0  0  0  0  0
    7.6790   13.1010   23.6896 C   0  0  0  0  0  0  0  0  0  0  0  0
    7.8729   10.8028   24.4092 C   0  0  0  0  0  0  0  0  0  0  0  0
    8.8734   12.9794   22.9794 C   0  0  0  0  0  0  0  0  0  0  0  0
    9.0673   10.6812   23.6990 C   0  0  0  0  0  0  0  0  0  0  0  0
    7.1788   12.0127   24.4045 C   0  0  0  0  0  0  0  0  0  0  0  0
    9.4002   14.1241   22.2271 C   0  0  0  0  0  0  0  0  0  0  0  0
   11.4729   14.8452   20.9313 C   0  0  0  0  0  0  0  0  0  0  0  0
   11.6660   13.7602   23.1454 C   0  0  0  0  0  0  0  0  0  0  0  0
   12.1828   16.1317   21.3359 C   0  0  0  0  0  0  0  0  0  0  0  0
   12.4010   14.9186   23.8093 C   0  0  0  0  0  0  0  0  0  0  0  0
    9.1762    8.4287   24.4541 C   0  0  0  0  0  0  0  0  0  0  0  0
    5.3549   13.3961   25.0491 C   0  0  0  0  0  0  0  0  0  0  0  0
   10.7858   14.2317   22.0758 N   0  0  0  0  0  0  0  0  0  0  0  0
    8.5648   14.9066   21.7766 O   0  0  0  0  0  0  0  0  0  0  0  0
    9.7442    9.5001   23.7025 O   0  0  0  0  0  0  0  0  0  0  0  0
    6.0131   12.1311   25.0972 O   0  0  0  0  0  0  0  0  0  0  0  0
   13.4409   15.8203   22.6161 S   0  0  0  0  0  0  0  0  0  0  0  0
   10.4989   11.6697   22.4316 H   0  0  0  0  0  0  0  0  0  0  0  0
    7.1346   14.0425   23.6888 H   0  0  0  0  0  0  0  0  0  0  0  0
    7.4831    9.9547   24.9662 H   0  0  0  0  0  0  0  0  0  0  0  0
   10.7667   15.0669   20.1266 H   0  0  0  0  0  0  0  0  0  0  0  0
   12.1821   14.1098   20.5314 H   0  0  0  0  0  0  0  0  0  0  0  0
   12.3677   13.0347   22.7162 H   0  0  0  0  0  0  0  0  0  0  0  0
   11.0807   13.2286   23.9035 H   0  0  0  0  0  0  0  0  0  0  0  0
   12.6862   16.5661   20.4665 H   0  0  0  0  0  0  0  0  0  0  0  0
   11.4687   16.8740   21.7081 H   0  0  0  0  0  0  0  0  0  0  0  0
   11.6949   15.6189   24.2687 H   0  0  0  0  0  0  0  0  0  0  0  0
   13.0501   14.5382   24.6044 H   0  0  0  0  0  0  0  0  0  0  0  0
    9.8155    7.5462   24.3722 H   0  0  0  0  0  0  0  0  0  0  0  0
    8.1769    8.2046   24.0727 H   0  0  0  0  0  0  0  0  0  0  0  0
    9.1052    8.7283   25.5024 H   0  0  0  0  0  0  0  0  0  0  0  0
    4.4387   13.3538   25.6432 H   0  0  0  0  0  0  0  0  0  0  0  0
    5.1180   13.6453   24.0117 H   0  0  0  0  0  0  0  0  0  0  0  0
    6.0195   14.1586   25.4622 H   0  0  0  0  0  0  0  0  0  0  0  0
  1  4  1  0  0  0  0
  1  5  2  0  0  0  0
  2  4  2  0  0  0  0
  2  6  1  0  0  0  0
  3  5  1  0  0  0  0
  3  6  2  0  0  0  0
  4  7  1  0  0  0  0
  5 16  1  0  0  0  0
  6 17  1  0  0  0  0
  7 14  1  0  0  0  0
  7 15  2  0  0  0  0
  8 10  1  0  0  0  0
  8 14  1  0  0  0  0
  9 11  1  0  0  0  0
  9 14  1  0  0  0  0
 10 18  1  0  0  0  0
 11 18  1  0  0  0  0
 12 16  1  0  0  0  0
 13 17  1  0  0  0  0
  1 19  1  0  0  0  0
  2 20  1  0  0  0  0
  3 21  1  0  0  0  0
  8 22  1  0  0  0  0
  8 23  1  0  0  0  0
  9 24  1  0  0  0  0
  9 25  1  0  0  0  0
 10 26  1  0  0  0  0
 10 27  1  0  0  0  0
 11 28  1  0  0  0  0
 11 29  1  0  0  0  0
 12 30  1  0  0  0  0
 12 31  1  0  0  0  0
 12 32  1  0  0  0  0
 13 33  1  0  0  0  0
 13 34  1  0  0  0  0
 13 35  1  0  0  0  0
M  END
> <Catalog ID>
Z437581300

> <PlateID>
1337959-R-05

> <Well>
A11

> <MW (desalted)>
267.344

> <CLogP>
1.755

> <HBD>
0

> <TPSA>
38.770

> <RotBonds>
3

> <ROCS_ShapeQuery>
x0446_0A_x1080_0A_x0929_0A_x0812_0A_x0719_0A_x1140_0A_x0528_0A_x0310_0A

> <ROCS_TanimotoCombo>
0.334 

> <ROCS_ShapeTanimoto>
0.229 

> <ROCS_ColorTanimoto>
0.105 

> <ROCS_RefTversky>
0.207 

> <ROCS_RefColorTversky>
0.113 

> <ROCS_RefTverskyCombo>
0.320 

> <ROCS_FitTversky>
1.804 

> <ROCS_FitColorTversky>
0.608 

> <ROCS_FitTverskyCombo>
2.412 

> <ROCS_ColorScore>
-4.017

> <ROCS_Overlap>
2448.316

> <ROCS_Rank>
103                 

$$$$
untitled-dbase-439_17
  -OEChem-02082415003D

 32 33  0     0  0  0  0  0  0999 V2000
    8.1520    9.9096   24.9026 C   0  0  0  0  0  0  0  0  0  0  0  0
    7.7173   11.2335   24.9648 C   0  0  0  0  0  0  0  0  0  0  0  0
    9.6760   10.4936   23.1212 C   0  0  0  0  0  0  0  0  0  0  0  0
    9.2413   11.8176   23.1834 C   0  0  0  0  0  0  0  0  0  0  0  0
    9.1314    9.5396   23.9808 C   0  0  0  0  0  0  0  0  0  0  0  0
    8.2620   12.1875   24.1052 C   0  0  0  0  0  0  0  0  0  0  0  0
    9.8227   12.8310   22.2658 C   0  0  0  0  0  0  0  0  0  0  0  0
    9.9935   15.6952   21.2569 C   0  0  0  0  0  0  0  0  0  0  0  0
   13.1586   14.9928   22.6218 C   0  0  0  0  0  0  0  0  0  0  0  0
   12.3621   14.5445   21.3839 C   0  0  0  0  0  0  0  0  0  0  0  0
   11.9659   15.8903   22.9956 C   0  0  0  0  0  0  0  0  0  0  0  0
   11.0564   14.9784   22.1170 C   0  0  0  0  0  0  0  0  0  0  0  0
    9.5960    8.1241   23.9143 C   0  0  0  0  0  0  0  0  0  0  0  0
   10.4525   13.8812   22.8862 N   0  0  0  0  0  0  0  0  0  0  0  0
    9.6931   12.6868   21.0530 O   0  0  0  0  0  0  0  0  0  0  0  0
    8.7876   15.6497   21.4495 O   0  0  0  0  0  0  0  0  0  0  0  0
   10.5799   16.3860   20.2488 O   0  0  0  0  0  0  0  0  0  0  0  0
    7.8367   13.4569   24.1733 F   0  0  0  0  0  0  0  0  0  0  0  0
    7.7211    9.1729   25.5754 H   0  0  0  0  0  0  0  0  0  0  0  0
    6.9543   11.5212   25.6820 H   0  0  0  0  0  0  0  0  0  0  0  0
   10.4396   10.2028   22.4030 H   0  0  0  0  0  0  0  0  0  0  0  0
   13.3464   14.1872   23.3406 H   0  0  0  0  0  0  0  0  0  0  0  0
   14.0982   15.5127   22.4185 H   0  0  0  0  0  0  0  0  0  0  0  0
   12.5840   15.1319   20.4846 H   0  0  0  0  0  0  0  0  0  0  0  0
   12.4524   13.4834   21.1328 H   0  0  0  0  0  0  0  0  0  0  0  0
   11.7315   15.9305   24.0636 H   0  0  0  0  0  0  0  0  0  0  0  0
   12.0586   16.9181   22.6238 H   0  0  0  0  0  0  0  0  0  0  0  0
    8.9844    7.5542   23.2041 H   0  0  0  0  0  0  0  0  0  0  0  0
   10.6451    8.0635   23.5967 H   0  0  0  0  0  0  0  0  0  0  0  0
    9.5330    7.6375   24.8964 H   0  0  0  0  0  0  0  0  0  0  0  0
   10.4755   13.9832   23.8845 H   0  0  0  0  0  0  0  0  0  0  0  0
    9.9200   16.8477   19.6887 H   0  0  0  0  0  0  0  0  0  0  0  0
  1  2  1  0  0  0  0
  1  5  2  0  0  0  0
  2  6  2  0  0  0  0
  3  4  2  0  0  0  0
  3  5  1  0  0  0  0
  4  6  1  0  0  0  0
  4  7  1  0  0  0  0
  5 13  1  0  0  0  0
  6 18  1  0  0  0  0
  7 14  1  0  0  0  0
  7 15  2  0  0  0  0
  8 12  1  0  0  0  0
  8 16  2  0  0  0  0
  8 17  1  0  0  0  0
  9 10  1  0  0  0  0
  9 11  1  0  0  0  0
 10 12  1  0  0  0  0
 11 12  1  0  0  0  0
 12 14  1  0  0  0  0
  1 19  1  0  0  0  0
  2 20  1  0  0  0  0
  3 21  1  0  0  0  0
  9 22  1  0  0  0  0
  9 23  1  0  0  0  0
 10 24  1  0  0  0  0
 10 25  1  0  0  0  0
 11 26  1  0  0  0  0
 11 27  1  0  0  0  0
 13 28  1  0  0  0  0
 13 29  1  0  0  0  0
 13 30  1  0  0  0  0
 14 31  1  0  0  0  0
 17 32  1  0  0  0  0
M  END
> <Catalog ID>
Z1436302305

> <PlateID>
1337959-R-10

> <Well>
D03

> <MW (desalted)>
251.254

> <CLogP>
1.900

> <HBD>
2

> <TPSA>
66.400

> <RotBonds>
3

> <ROCS_ShapeQuery>
x0446_0A_x1080_0A_x0929_0A_x0812_0A_x0719_0A_x1140_0A_x0528_0A_x0310_0A

> <ROCS_TanimotoCombo>
0.333 

> <ROCS_ShapeTanimoto>
0.222 

> <ROCS_ColorTanimoto>
0.111 

> <ROCS_RefTversky>
0.203 

> <ROCS_RefColorTversky>
0.124 

> <ROCS_RefTverskyCombo>
0.327 

> <ROCS_FitTversky>
1.733 

> <ROCS_FitColorTversky>
0.519 

> <ROCS_FitTverskyCombo>
2.253 

> <ROCS_ColorScore>
-4.425

> <ROCS_Overlap>
2397.100

> <ROCS_Rank>
104                 

$$$$
untitled-dbase-528_0
  -OEChem-02082415003D

 28 29  0     0  0  0  0  0  0999 V2000
   11.9076   10.4476   23.6290 C   0  0  0  0  0  0  0  0  0  0  0  0
   12.1530   11.6658   23.0088 C   0  0  0  0  0  0  0  0  0  0  0  0
   10.6103   10.1166   24.0094 C   0  0  0  0  0  0  0  0  0  0  0  0
   11.1014   12.5543   22.7736 C   0  0  0  0  0  0  0  0  0  0  0  0
    9.5545   11.0124   23.7767 C   0  0  0  0  0  0  0  0  0  0  0  0
    9.7840   12.2515   23.1653 C   0  0  0  0  0  0  0  0  0  0  0  0
    8.1909   10.6206   24.1921 C   0  0  0  0  0  0  0  0  0  0  0  0
    7.4493   12.9696   23.8379 C   0  0  0  0  0  0  0  0  0  0  0  0
    8.6217   13.1852   22.8676 C   0  0  0  0  0  0  0  0  0  0  0  0
    8.0960   12.8780   21.4504 C   0  0  0  0  0  0  0  0  0  0  0  0
    9.0209   14.6769   22.9300 C   0  0  0  0  0  0  0  0  0  0  0  0
    5.9434   11.3160   24.8351 C   0  0  0  0  0  0  0  0  0  0  0  0
    7.2259   11.6389   24.2196 N   0  0  0  0  0  0  0  0  0  0  0  0
    7.9811    9.4567   24.5287 O   0  0  0  0  0  0  0  0  0  0  0  0
    6.7279   13.9037   24.1966 O   0  0  0  0  0  0  0  0  0  0  0  0
   12.7245    9.7586   23.8209 H   0  0  0  0  0  0  0  0  0  0  0  0
   13.1637   11.9320   22.7134 H   0  0  0  0  0  0  0  0  0  0  0  0
   10.4399    9.1531   24.4826 H   0  0  0  0  0  0  0  0  0  0  0  0
   11.3407   13.4961   22.2884 H   0  0  0  0  0  0  0  0  0  0  0  0
    7.2675   13.5402   21.2323 H   0  0  0  0  0  0  0  0  0  0  0  0
    7.7662   11.8474   21.4143 H   0  0  0  0  0  0  0  0  0  0  0  0
    8.8953   13.0370   20.7376 H   0  0  0  0  0  0  0  0  0  0  0  0
    8.1518   15.2857   22.7094 H   0  0  0  0  0  0  0  0  0  0  0  0
    9.7983   14.8663   22.1991 H   0  0  0  0  0  0  0  0  0  0  0  0
    9.3870   14.9042   23.9245 H   0  0  0  0  0  0  0  0  0  0  0  0
    5.9816   11.5521   25.9088 H   0  0  0  0  0  0  0  0  0  0  0  0
    5.1484   11.9077   24.3578 H   0  0  0  0  0  0  0  0  0  0  0  0
    5.7327   10.2445   24.7027 H   0  0  0  0  0  0  0  0  0  0  0  0
  1  2  2  0  0  0  0
  1  3  1  0  0  0  0
  2  4  1  0  0  0  0
  3  5  2  0  0  0  0
  4  6  2  0  0  0  0
  5  6  1  0  0  0  0
  5  7  1  0  0  0  0
  6  9  1  0  0  0  0
  7 13  1  0  0  0  0
  7 14  2  0  0  0  0
  8  9  1  0  0  0  0
  8 13  1  0  0  0  0
  8 15  2  0  0  0  0
  9 10  1  0  0  0  0
  9 11  1  0  0  0  0
 12 13  1  0  0  0  0
  1 16  1  0  0  0  0
  2 17  1  0  0  0  0
  3 18  1  0  0  0  0
  4 19  1  0  0  0  0
 10 20  1  0  0  0  0
 10 21  1  0  0  0  0
 10 22  1  0  0  0  0
 11 23  1  0  0  0  0
 11 24  1  0  0  0  0
 11 25  1  0  0  0  0
 12 26  1  0  0  0  0
 12 27  1  0  0  0  0
 12 28  1  0  0  0  0
M  END
> <Catalog ID>
Z1509616486

> <PlateID>
1337959-R-12

> <Well>
D11

> <MW (desalted)>
203.237

> <CLogP>
2.441

> <HBD>
0

> <TPSA>
37.380

> <RotBonds>
0

> <ROCS_ShapeQuery>
x0446_0A_x1080_0A_x0929_0A_x0812_0A_x0719_0A_x1140_0A_x0528_0A_x0310_0A

> <ROCS_TanimotoCombo>
0.333 

> <ROCS_ShapeTanimoto>
0.211 

> <ROCS_ColorTanimoto>
0.122 

> <ROCS_RefTversky>
0.193 

> <ROCS_RefColorTversky>
0.129 

> <ROCS_RefTverskyCombo>
0.322 

> <ROCS_FitTversky>
1.798 

> <ROCS_FitColorTversky>
0.696 

> <ROCS_FitTverskyCombo>
2.494 

> <ROCS_ColorScore>
-4.602

> <ROCS_Overlap>
2275.290

> <ROCS_Rank>
105                 

$$$$
untitled-dbase-556_0
  -OEChem-02082415003D

 29 31  0     1  0  0  0  0  0999 V2000
    5.9488   11.6080   24.5047 C   0  0  0  0  0  0  0  0  0  0  0  0
    6.2122   12.9853   24.4551 C   0  0  0  0  0  0  0  0  0  0  0  0
    6.9189   10.6835   24.1130 C   0  0  0  0  0  0  0  0  0  0  0  0
    7.4492   13.4579   24.0118 C   0  0  0  0  0  0  0  0  0  0  0  0
    8.1475   11.1602   23.6863 C   0  0  0  0  0  0  0  0  0  0  0  0
    8.4121   12.5351   23.6302 C   0  0  0  0  0  0  0  0  0  0  0  0
    9.3146   10.3667   23.1924 C   0  0  0  0  0  0  0  0  0  0  0  0
   10.4426   11.4011   23.3120 C   0  0  0  0  0  0  0  0  0  0  0  0
   11.6895   14.5979   21.9725 C   0  0  0  0  0  0  0  0  0  0  0  0
    9.7434   13.2433   21.6258 C   0  0  0  0  0  0  0  0  0  0  0  0
   11.7464   14.1243   23.4186 C   0  0  0  0  0  0  0  0  0  0  0  0
    9.7999   12.7973   23.0964 C   0  0  1  0  0  0  0  0  0  0  0  0
   11.0815   13.5704   21.1267 N   0  0  0  0  0  0  0  0  0  0  0  0
   10.4416   13.7926   23.8969 O   0  0  0  0  0  0  0  0  0  0  0  0
    4.9784   11.2590   24.8474 H   0  0  0  0  0  0  0  0  0  0  0  0
    5.4434   13.6901   24.7600 H   0  0  0  0  0  0  0  0  0  0  0  0
    6.7098    9.6196   24.1438 H   0  0  0  0  0  0  0  0  0  0  0  0
    7.6442   14.5241   23.9662 H   0  0  0  0  0  0  0  0  0  0  0  0
    9.5143    9.4868   23.8102 H   0  0  0  0  0  0  0  0  0  0  0  0
    9.1564   10.0672   22.1515 H   0  0  0  0  0  0  0  0  0  0  0  0
   10.8758   11.3461   24.3215 H   0  0  0  0  0  0  0  0  0  0  0  0
   11.2601   11.1863   22.6156 H   0  0  0  0  0  0  0  0  0  0  0  0
   11.1049   15.5231   21.9013 H   0  0  0  0  0  0  0  0  0  0  0  0
   12.7011   14.8141   21.6138 H   0  0  0  0  0  0  0  0  0  0  0  0
    9.3089   12.4594   20.9944 H   0  0  0  0  0  0  0  0  0  0  0  0
    9.1020   14.1281   21.5175 H   0  0  0  0  0  0  0  0  0  0  0  0
   12.4155   13.2639   23.5356 H   0  0  0  0  0  0  0  0  0  0  0  0
   12.1355   14.9257   24.0551 H   0  0  0  0  0  0  0  0  0  0  0  0
   11.0107   13.9161   20.1702 H   0  0  0  0  0  0  0  0  0  0  0  0
  1  2  2  0  0  0  0
  1  3  1  0  0  0  0
  2  4  1  0  0  0  0
  3  5  2  0  0  0  0
  4  6  2  0  0  0  0
  5  6  1  0  0  0  0
  5  7  1  0  0  0  0
  6 12  1  0  0  0  0
  7  8  1  0  0  0  0
  8 12  1  0  0  0  0
  9 11  1  0  0  0  0
  9 13  1  0  0  0  0
 10 12  1  0  0  0  0
 10 13  1  0  0  0  0
 11 14  1  0  0  0  0
 12 14  1  0  0  0  0
  1 15  1  0  0  0  0
  2 16  1  0  0  0  0
  3 17  1  0  0  0  0
  4 18  1  0  0  0  0
  7 19  1  0  0  0  0
  7 20  1  0  0  0  0
  8 21  1  0  0  0  0
  8 22  1  0  0  0  0
  9 23  1  0  0  0  0
  9 24  1  0  0  0  0
 10 25  1  0  0  0  0
 10 26  1  0  0  0  0
 11 27  1  0  0  0  0
 11 28  1  0  0  0  0
 13 29  1  0  0  0  0
M  END
> <Catalog ID>
Z1251362656

> <PlateID>
1337959-R-13

> <Well>
A07

> <MW (desalted)>
189.254

> <CLogP>
1.534

> <HBD>
1

> <TPSA>
21.260

> <RotBonds>
0

> <ROCS_ShapeQuery>
x0446_0A_x1080_0A_x0929_0A_x0812_0A_x0719_0A_x1140_0A_x0528_0A_x0310_0A

> <ROCS_TanimotoCombo>
0.333 

> <ROCS_ShapeTanimoto>
0.212 

> <ROCS_ColorTanimoto>
0.121 

> <ROCS_RefTversky>
0.193 

> <ROCS_RefColorTversky>
0.131 

> <ROCS_RefTverskyCombo>
0.324 

> <ROCS_FitTversky>
1.859 

> <ROCS_FitColorTversky>
0.617 

> <ROCS_FitTverskyCombo>
2.476 

> <ROCS_ColorScore>
-4.672

> <ROCS_Overlap>
2277.464

> <ROCS_Rank>
106                 

$$$$
untitled-dbase-361_4
  -OEChem-02082415003D

 25 26  0     0  0  0  0  0  0999 V2000
    9.4915   12.7723   23.2541 C   0  0  0  0  0  0  0  0  0  0  0  0
   10.1427   10.6997   22.4206 C   0  0  0  0  0  0  0  0  0  0  0  0
    7.9819   11.6103   25.1468 C   0  0  0  0  0  0  0  0  0  0  0  0
    6.9179   12.0085   23.3255 C   0  0  0  0  0  0  0  0  0  0  0  0
    6.7071   12.4133   24.8018 C   0  0  0  0  0  0  0  0  0  0  0  0
    8.3933   11.7211   23.6659 C   0  0  0  0  0  0  0  0  0  0  0  0
    4.2230   13.3893   23.9824 C   0  0  0  0  0  0  0  0  0  0  0  0
    4.5084   12.9771   25.4107 C   0  0  0  0  0  0  0  0  0  0  0  0
   10.4381   12.0587   22.5446 N   0  0  0  0  0  0  0  0  0  0  0  0
    8.9252   10.4741   23.0826 N   0  0  0  0  0  0  0  0  0  0  0  0
    9.5374   13.9733   23.4904 O   0  0  0  0  0  0  0  0  0  0  0  0
   10.8182    9.8589   21.8425 O   0  0  0  0  0  0  0  0  0  0  0  0
    5.4874   11.9549   25.4086 O   0  0  0  0  0  0  0  0  0  0  0  0
    8.6518   12.0985   25.8610 H   0  0  0  0  0  0  0  0  0  0  0  0
    7.7860   10.5893   25.4951 H   0  0  0  0  0  0  0  0  0  0  0  0
    6.3371   11.1315   23.0161 H   0  0  0  0  0  0  0  0  0  0  0  0
    6.7473   12.8112   22.6017 H   0  0  0  0  0  0  0  0  0  0  0  0
    6.8346   13.4910   24.9647 H   0  0  0  0  0  0  0  0  0  0  0  0
    5.1260   13.7721   23.4988 H   0  0  0  0  0  0  0  0  0  0  0  0
    3.8448   12.5402   23.4037 H   0  0  0  0  0  0  0  0  0  0  0  0
    3.4502   14.1647   23.9517 H   0  0  0  0  0  0  0  0  0  0  0  0
    3.6013   12.5953   25.8886 H   0  0  0  0  0  0  0  0  0  0  0  0
    4.8869   13.8265   25.9872 H   0  0  0  0  0  0  0  0  0  0  0  0
   11.2705   12.4827   22.1503 H   0  0  0  0  0  0  0  0  0  0  0  0
    8.4929    9.5583   23.1350 H   0  0  0  0  0  0  0  0  0  0  0  0
  1  6  1  0  0  0  0
  1  9  1  0  0  0  0
  1 11  2  0  0  0  0
  2  9  1  0  0  0  0
  2 10  1  0  0  0  0
  2 12  2  0  0  0  0
  3  5  1  0  0  0  0
  3  6  1  0  0  0  0
  4  5  1  0  0  0  0
  4  6  1  0  0  0  0
  5 13  1  0  0  0  0
  6 10  1  0  0  0  0
  7  8  1  0  0  0  0
  8 13  1  0  0  0  0
  3 14  1  0  0  0  0
  3 15  1  0  0  0  0
  4 16  1  0  0  0  0
  4 17  1  0  0  0  0
  5 18  1  0  0  0  0
  7 19  1  0  0  0  0
  7 20  1  0  0  0  0
  7 21  1  0  0  0  0
  8 22  1  0  0  0  0
  8 23  1  0  0  0  0
  9 24  1  0  0  0  0
 10 25  1  0  0  0  0
M  END
> <Catalog ID>
Z1796622199

> <PlateID>
1337959-R-08

> <Well>
G11

> <MW (desalted)>
184.192

> <CLogP>
-1.800

> <HBD>
2

> <TPSA>
67.430

> <RotBonds>
2

> <ROCS_ShapeQuery>
x0446_0A_x1080_0A_x0929_0A_x0812_0A_x0719_0A_x1140_0A_x0528_0A_x0310_0A

> <ROCS_TanimotoCombo>
0.332 

> <ROCS_ShapeTanimoto>
0.176 

> <ROCS_ColorTanimoto>
0.156 

> <ROCS_RefTversky>
0.164 

> <ROCS_RefColorTversky>
0.168 

> <ROCS_RefTverskyCombo>
0.332 

> <ROCS_FitTversky>
1.669 

> <ROCS_FitColorTversky>
0.701 

> <ROCS_FitTverskyCombo>
2.370 

> <ROCS_ColorScore>
-5.978

> <ROCS_Overlap>
1938.866

> <ROCS_Rank>
107                 

$$$$
untitled-dbase-267_0
  -OEChem-02082415003D

 23 24  0     0  0  0  0  0  0999 V2000
    9.6243   13.1272   23.5487 C   0  0  0  0  0  0  0  0  0  0  0  0
    8.4151   12.9605   24.4539 C   0  0  0  0  0  0  0  0  0  0  0  0
    7.1752   10.9044   23.6454 C   0  0  0  0  0  0  0  0  0  0  0  0
    9.0681   10.6531   25.2972 C   0  0  0  0  0  0  0  0  0  0  0  0
    8.0777   10.6514   22.4418 C   0  0  0  0  0  0  0  0  0  0  0  0
    9.8383   10.0106   24.1436 C   0  0  0  0  0  0  0  0  0  0  0  0
    7.9252   11.5538   24.8119 C   0  0  0  0  0  0  0  0  0  0  0  0
    9.5632   10.6949   22.8055 C   0  0  0  0  0  0  0  0  0  0  0  0
   10.0692   12.0636   22.8081 N   0  0  0  0  0  0  0  0  0  0  0  0
   10.1693   14.2332   23.4676 O   0  0  0  0  0  0  0  0  0  0  0  0
    8.6735   13.4723   25.3912 H   0  0  0  0  0  0  0  0  0  0  0  0
    7.5949   13.5324   24.0023 H   0  0  0  0  0  0  0  0  0  0  0  0
    6.3183   11.5187   23.3438 H   0  0  0  0  0  0  0  0  0  0  0  0
    6.7568    9.9473   23.9840 H   0  0  0  0  0  0  0  0  0  0  0  0
    8.6615    9.8548   25.9310 H   0  0  0  0  0  0  0  0  0  0  0  0
    9.7536   11.2236   25.9358 H   0  0  0  0  0  0  0  0  0  0  0  0
    7.8327    9.6684   22.0199 H   0  0  0  0  0  0  0  0  0  0  0  0
    7.8612   11.3755   21.6462 H   0  0  0  0  0  0  0  0  0  0  0  0
   10.9124   10.0101   24.3667 H   0  0  0  0  0  0  0  0  0  0  0  0
    9.5468    8.9552   24.0655 H   0  0  0  0  0  0  0  0  0  0  0  0
    7.2131   11.6675   25.6402 H   0  0  0  0  0  0  0  0  0  0  0  0
   10.1281   10.1797   22.0195 H   0  0  0  0  0  0  0  0  0  0  0  0
   10.8477   12.2512   22.1834 H   0  0  0  0  0  0  0  0  0  0  0  0
  1  2  1  0  0  0  0
  1  9  1  0  0  0  0
  1 10  2  0  0  0  0
  2  7  1  0  0  0  0
  3  5  1  0  0  0  0
  3  7  1  0  0  0  0
  4  6  1  0  0  0  0
  4  7  1  0  0  0  0
  5  8  1  0  0  0  0
  6  8  1  0  0  0  0
  8  9  1  0  0  0  0
  2 11  1  0  0  0  0
  2 12  1  0  0  0  0
  3 13  1  0  0  0  0
  3 14  1  0  0  0  0
  4 15  1  0  0  0  0
  4 16  1  0  0  0  0
  5 17  1  0  0  0  0
  5 18  1  0  0  0  0
  6 19  1  0  0  0  0
  6 20  1  0  0  0  0
  7 21  1  0  0  0  0
  8 22  1  0  0  0  0
  9 23  1  0  0  0  0
M  END
> <Catalog ID>
Z1203732929

> <PlateID>
1337959-R-06

> <Well>
E06

> <MW (desalted)>
139.195

> <CLogP>
0.459

> <HBD>
1

> <TPSA>
29.100

> <RotBonds>
0

> <ROCS_ShapeQuery>
x0446_0A_x1080_0A_x0929_0A_x0812_0A_x0719_0A_x1140_0A_x0528_0A_x0310_0A

> <ROCS_TanimotoCombo>
0.332 

> <ROCS_ShapeTanimoto>
0.165 

> <ROCS_ColorTanimoto>
0.167 

> <ROCS_RefTversky>
0.154 

> <ROCS_RefColorTversky>
0.179 

> <ROCS_RefTverskyCombo>
0.333 

> <ROCS_FitTversky>
1.761 

> <ROCS_FitColorTversky>
0.708 

> <ROCS_FitTverskyCombo>
2.470 

> <ROCS_ColorScore>
-6.406

> <ROCS_Overlap>
1816.021

> <ROCS_Rank>
108                 

$$$$
untitled-dbase-93_0
  -OEChem-02082415003D

 21 22  0     0  0  0  0  0  0999 V2000
   10.0891   13.4680   23.6924 C   0  0  0  0  0  0  0  0  0  0  0  0
    8.5930   11.7303   25.1002 C   0  0  0  0  0  0  0  0  0  0  0  0
    7.7837   12.1717   23.2096 C   0  0  0  0  0  0  0  0  0  0  0  0
    8.8078   10.0066   23.4398 C   0  0  0  0  0  0  0  0  0  0  0  0
    9.2431   12.2159   23.7654 C   0  0  0  0  0  0  0  0  0  0  0  0
    7.7522   10.8883   24.0939 C   0  0  0  0  0  0  0  0  0  0  0  0
    6.4619   10.2407   24.4947 C   0  0  0  0  0  0  0  0  0  0  0  0
    9.8684   10.9959   23.2034 N   0  0  0  0  0  0  0  0  0  0  0  0
   11.1191   13.6569   24.3224 O   0  0  0  0  0  0  0  0  0  0  0  0
    9.5472   14.3623   22.8298 O   0  0  0  0  0  0  0  0  0  0  0  0
    9.2338   11.1749   25.7935 H   0  0  0  0  0  0  0  0  0  0  0  0
    8.0430   12.4897   25.6691 H   0  0  0  0  0  0  0  0  0  0  0  0
    7.1260   12.9901   23.5269 H   0  0  0  0  0  0  0  0  0  0  0  0
    7.6655   12.0304   22.1300 H   0  0  0  0  0  0  0  0  0  0  0  0
    9.1485    9.2058   24.1052 H   0  0  0  0  0  0  0  0  0  0  0  0
    8.4639    9.5717   22.4959 H   0  0  0  0  0  0  0  0  0  0  0  0
    6.0142    9.6916   23.6546 H   0  0  0  0  0  0  0  0  0  0  0  0
    5.7298   10.9875   24.8323 H   0  0  0  0  0  0  0  0  0  0  0  0
    6.6132    9.5270   25.3165 H   0  0  0  0  0  0  0  0  0  0  0  0
   10.7180   10.7059   23.6870 H   0  0  0  0  0  0  0  0  0  0  0  0
   10.0810   15.1831   22.7698 H   0  0  0  0  0  0  0  0  0  0  0  0
  1  5  1  0  0  0  0
  1  9  2  0  0  0  0
  1 10  1  0  0  0  0
  2  5  1  0  0  0  0
  2  6  1  0  0  0  0
  3  5  1  0  0  0  0
  3  6  1  0  0  0  0
  4  6  1  0  0  0  0
  4  8  1  0  0  0  0
  5  8  1  0  0  0  0
  6  7  1  0  0  0  0
  2 11  1  0  0  0  0
  2 12  1  0  0  0  0
  3 13  1  0  0  0  0
  3 14  1  0  0  0  0
  4 15  1  0  0  0  0
  4 16  1  0  0  0  0
  7 17  1  0  0  0  0
  7 18  1  0  0  0  0
  7 19  1  0  0  0  0
  8 20  1  0  0  0  0
 10 21  1  0  0  0  0
M  END
> <Catalog ID>
Z2517220205

> <PlateID>
1337959-R-02

> <Well>
G02

> <MW (desalted)>
141.168

> <CLogP>
0.254

> <HBD>
2

> <TPSA>
49.330

> <RotBonds>
1

> <ROCS_ShapeQuery>
x0446_0A_x1080_0A_x0929_0A_x0812_0A_x0719_0A_x1140_0A_x0528_0A_x0310_0A

> <ROCS_TanimotoCombo>
0.332 

> <ROCS_ShapeTanimoto>
0.165 

> <ROCS_ColorTanimoto>
0.166 

> <ROCS_RefTversky>
0.155 

> <ROCS_RefColorTversky>
0.195 

> <ROCS_RefTverskyCombo>
0.349 

> <ROCS_FitTversky>
1.750 

> <ROCS_FitColorTversky>
0.533 

> <ROCS_FitTverskyCombo>
2.283 

> <ROCS_ColorScore>
-6.996

> <ROCS_Overlap>
1821.074

> <ROCS_Rank>
109                 

$$$$
untitled-dbase-489_27
  -OEChem-02082415003D

 33 34  0     0  0  0  0  0  0999 V2000
    7.3365   11.7664   24.3074 C   0  0  0  0  0  0  0  0  0  0  0  0
    7.5987   10.3899   24.4435 C   0  0  0  0  0  0  0  0  0  0  0  0
    8.4628   12.2726   23.7060 C   0  0  0  0  0  0  0  0  0  0  0  0
    5.3986   14.7625   21.9125 C   0  0  0  0  0  0  0  0  0  0  0  0
    8.7520   13.6622   23.3184 C   0  0  0  0  0  0  0  0  0  0  0  0
    6.2775   14.0672   22.9429 C   0  0  0  0  0  0  0  0  0  0  0  0
    7.3503   16.1747   21.2704 C   0  0  0  0  0  0  0  0  0  0  0  0
    7.9249   15.8852   22.6385 C   0  0  0  0  0  0  0  0  0  0  0  0
   10.9179    9.9407   22.1658 C   0  0  0  0  0  0  0  0  0  0  0  0
   11.7028   11.5526   23.9524 C   0  0  0  0  0  0  0  0  0  0  0  0
   10.6133   11.2323   22.9273 C   0  0  0  0  0  0  0  0  0  0  0  0
    8.7974   10.0437   23.9667 N   0  0  0  0  0  0  0  0  0  0  0  0
    9.2984   11.2099   23.5252 N   0  0  0  0  0  0  0  0  0  0  0  0
    5.9519   15.8079   21.2092 N   0  0  0  0  0  0  0  0  0  0  0  0
    7.6786   14.4864   22.9639 N   0  0  0  0  0  0  0  0  0  0  0  0
    4.2227   14.4211   21.7679 O   0  0  0  0  0  0  0  0  0  0  0  0
    9.9348   14.0000   23.3410 O   0  0  0  0  0  0  0  0  0  0  0  0
    6.4514   12.3099   24.6051 H   0  0  0  0  0  0  0  0  0  0  0  0
    6.9662    9.6245   24.8697 H   0  0  0  0  0  0  0  0  0  0  0  0
    5.8645   14.2809   23.9353 H   0  0  0  0  0  0  0  0  0  0  0  0
    6.2070   12.9904   22.7620 H   0  0  0  0  0  0  0  0  0  0  0  0
    7.4253   17.2404   21.0333 H   0  0  0  0  0  0  0  0  0  0  0  0
    7.8751   15.6115   20.4910 H   0  0  0  0  0  0  0  0  0  0  0  0
    8.9957   16.1109   22.6517 H   0  0  0  0  0  0  0  0  0  0  0  0
    7.4480   16.5004   23.4107 H   0  0  0  0  0  0  0  0  0  0  0  0
   10.9407    9.0703   22.8302 H   0  0  0  0  0  0  0  0  0  0  0  0
   11.8925   10.0071   21.6706 H   0  0  0  0  0  0  0  0  0  0  0  0
   10.1607    9.7534   21.3963 H   0  0  0  0  0  0  0  0  0  0  0  0
   11.7595   10.7718   24.7188 H   0  0  0  0  0  0  0  0  0  0  0  0
   11.4911   12.5028   24.4543 H   0  0  0  0  0  0  0  0  0  0  0  0
   12.6907   11.6350   23.4867 H   0  0  0  0  0  0  0  0  0  0  0  0
   10.6093   12.0481   22.1930 H   0  0  0  0  0  0  0  0  0  0  0  0
    5.3414   16.3555   20.6106 H   0  0  0  0  0  0  0  0  0  0  0  0
  1  2  1  0  0  0  0
  1  3  2  0  0  0  0
  2 12  2  0  0  0  0
  3  5  1  0  0  0  0
  3 13  1  0  0  0  0
  4  6  1  0  0  0  0
  4 14  1  0  0  0  0
  4 16  2  0  0  0  0
  5 15  1  0  0  0  0
  5 17  2  0  0  0  0
  6 15  1  0  0  0  0
  7  8  1  0  0  0  0
  7 14  1  0  0  0  0
  8 15  1  0  0  0  0
  9 11  1  0  0  0  0
 10 11  1  0  0  0  0
 11 13  1  0  0  0  0
 12 13  1  0  0  0  0
  1 18  1  0  0  0  0
  2 19  1  0  0  0  0
  6 20  1  0  0  0  0
  6 21  1  0  0  0  0
  7 22  1  0  0  0  0
  7 23  1  0  0  0  0
  8 24  1  0  0  0  0
  8 25  1  0  0  0  0
  9 26  1  0  0  0  0
  9 27  1  0  0  0  0
  9 28  1  0  0  0  0
 10 29  1  0  0  0  0
 10 30  1  0  0  0  0
 10 31  1  0  0  0  0
 11 32  1  0  0  0  0
 14 33  1  0  0  0  0
M  END
> <Catalog ID>
Z1436940824

> <PlateID>
1337959-R-11

> <Well>
F09

> <MW (desalted)>
236.270

> <CLogP>
-0.198

> <HBD>
1

> <TPSA>
67.230

> <RotBonds>
2

> <ROCS_ShapeQuery>
x0446_0A_x1080_0A_x0929_0A_x0812_0A_x0719_0A_x1140_0A_x0528_0A_x0310_0A

> <ROCS_TanimotoCombo>
0.332 

> <ROCS_ShapeTanimoto>
0.209 

> <ROCS_ColorTanimoto>
0.123 

> <ROCS_RefTversky>
0.193 

> <ROCS_RefColorTversky>
0.135 

> <ROCS_RefTverskyCombo>
0.328 

> <ROCS_FitTversky>
1.692 

> <ROCS_FitColorTversky>
0.567 

> <ROCS_FitTverskyCombo>
2.260 

> <ROCS_ColorScore>
-4.829

> <ROCS_Overlap>
2272.554

> <ROCS_Rank>
110                 

$$$$
untitled-dbase-353_2
  -OEChem-02082415003D

 29 30  0     0  0  0  0  0  0999 V2000
    9.3919   10.2438   23.6140 C   0  0  0  0  0  0  0  0  0  0  0  0
   10.1211   11.3951   23.3170 C   0  0  0  0  0  0  0  0  0  0  0  0
    8.0876   10.3495   24.0971 C   0  0  0  0  0  0  0  0  0  0  0  0
    8.2419   12.7580   23.9865 C   0  0  0  0  0  0  0  0  0  0  0  0
    9.5462   12.6523   23.5033 C   0  0  0  0  0  0  0  0  0  0  0  0
    7.5127   11.6067   24.2834 C   0  0  0  0  0  0  0  0  0  0  0  0
   10.1995   14.3862   21.8049 C   0  0  0  0  0  0  0  0  0  0  0  0
   11.6679   14.0668   23.8758 C   0  0  0  0  0  0  0  0  0  0  0  0
   10.5068   14.9114   24.2900 C   0  0  0  0  0  0  0  0  0  0  0  0
   10.3257   13.8820   23.1857 C   0  0  0  0  0  0  0  0  0  0  0  0
   11.1878   14.2231   19.5291 C   0  0  0  0  0  0  0  0  0  0  0  0
    6.1182   11.7192   24.8003 C   0  0  0  0  0  0  0  0  0  0  0  0
   11.1328   13.8661   20.9286 N   0  0  0  0  0  0  0  0  0  0  0  0
    9.3180   15.1934   21.5346 O   0  0  0  0  0  0  0  0  0  0  0  0
    5.5268   10.5129   25.0473 F   0  0  0  0  0  0  0  0  0  0  0  0
    6.0248   12.4087   25.9757 F   0  0  0  0  0  0  0  0  0  0  0  0
    5.2863   12.3634   23.9309 F   0  0  0  0  0  0  0  0  0  0  0  0
    9.8394    9.2648   23.4689 H   0  0  0  0  0  0  0  0  0  0  0  0
   11.1368   11.3021   22.9409 H   0  0  0  0  0  0  0  0  0  0  0  0
    7.5272    9.4470   24.3257 H   0  0  0  0  0  0  0  0  0  0  0  0
    7.7927   13.7377   24.1322 H   0  0  0  0  0  0  0  0  0  0  0  0
   12.4689   14.5478   23.3261 H   0  0  0  0  0  0  0  0  0  0  0  0
   12.0088   13.3061   24.5685 H   0  0  0  0  0  0  0  0  0  0  0  0
   10.0663   14.7188   25.2619 H   0  0  0  0  0  0  0  0  0  0  0  0
   10.5266   15.9609   24.0194 H   0  0  0  0  0  0  0  0  0  0  0  0
   10.5565   13.5338   18.9492 H   0  0  0  0  0  0  0  0  0  0  0  0
   10.8224   15.2524   19.3988 H   0  0  0  0  0  0  0  0  0  0  0  0
   12.2267   14.1552   19.1741 H   0  0  0  0  0  0  0  0  0  0  0  0
   11.8127   13.2012   21.2850 H   0  0  0  0  0  0  0  0  0  0  0  0
  1  2  1  0  0  0  0
  1  3  2  0  0  0  0
  2  5  2  0  0  0  0
  3  6  1  0  0  0  0
  4  5  1  0  0  0  0
  4  6  2  0  0  0  0
  5 10  1  0  0  0  0
  6 12  1  0  0  0  0
  7 10  1  0  0  0  0
  7 13  1  0  0  0  0
  7 14  2  0  0  0  0
  8  9  1  0  0  0  0
  8 10  1  0  0  0  0
  9 10  1  0  0  0  0
 11 13  1  0  0  0  0
 12 15  1  0  0  0  0
 12 16  1  0  0  0  0
 12 17  1  0  0  0  0
  1 18  1  0  0  0  0
  2 19  1  0  0  0  0
  3 20  1  0  0  0  0
  4 21  1  0  0  0  0
  8 22  1  0  0  0  0
  8 23  1  0  0  0  0
  9 24  1  0  0  0  0
  9 25  1  0  0  0  0
 11 26  1  0  0  0  0
 11 27  1  0  0  0  0
 11 28  1  0  0  0  0
 13 29  1  0  0  0  0
M  END
> <Catalog ID>
Z1068186302

> <PlateID>
1337959-R-08

> <Well>
F03

> <MW (desalted)>
243.225

> <CLogP>
1.917

> <HBD>
1

> <TPSA>
29.100

> <RotBonds>
3

> <ROCS_ShapeQuery>
x0446_0A_x1080_0A_x0929_0A_x0812_0A_x0719_0A_x1140_0A_x0528_0A_x0310_0A

> <ROCS_TanimotoCombo>
0.331 

> <ROCS_ShapeTanimoto>
0.209 

> <ROCS_ColorTanimoto>
0.122 

> <ROCS_RefTversky>
0.193 

> <ROCS_RefColorTversky>
0.123 

> <ROCS_RefTverskyCombo>
0.316 

> <ROCS_FitTversky>
1.697 

> <ROCS_FitColorTversky>
0.926 

> <ROCS_FitTverskyCombo>
2.623 

> <ROCS_ColorScore>
-4.361

> <ROCS_Overlap>
2275.054

> <ROCS_Rank>
111                 

$$$$
untitled-dbase-419_22
  -OEChem-02082415003D

 36 37  0     0  0  0  0  0  0999 V2000
    8.0313   14.7605   22.5772 C   0  0  0  0  0  0  0  0  0  0  0  0
    9.4150   15.0284   22.3723 C   0  0  0  0  0  0  0  0  0  0  0  0
    7.2768   15.4149   21.6278 C   0  0  0  0  0  0  0  0  0  0  0  0
    7.4616   13.9227   23.6261 C   0  0  0  0  0  0  0  0  0  0  0  0
    9.2599   11.1882   25.1323 C   0  0  0  0  0  0  0  0  0  0  0  0
    9.5141   11.0726   22.6234 C   0  0  0  0  0  0  0  0  0  0  0  0
    7.9007   11.8593   24.9370 C   0  0  0  0  0  0  0  0  0  0  0  0
    8.1467   11.7386   22.4841 C   0  0  0  0  0  0  0  0  0  0  0  0
    9.6611   10.2983   23.9442 C   0  0  0  0  0  0  0  0  0  0  0  0
   10.5212   14.4964   23.1980 C   0  0  0  0  0  0  0  0  0  0  0  0
    8.8688    8.9887   23.9258 C   0  0  0  0  0  0  0  0  0  0  0  0
    5.2197   16.1563   20.4261 C   0  0  0  0  0  0  0  0  0  0  0  0
    9.7375   15.8222   21.3540 N   0  0  0  0  0  0  0  0  0  0  0  0
    7.8535   12.5714   23.6587 N   0  0  0  0  0  0  0  0  0  0  0  0
    5.9311   15.4240   21.4713 N   0  0  0  0  0  0  0  0  0  0  0  0
    6.6724   14.4033   24.4414 O   0  0  0  0  0  0  0  0  0  0  0  0
    8.3326   16.2807   20.5937 S   0  0  0  0  0  0  0  0  0  0  0  0
   10.0266   11.9648   25.2896 H   0  0  0  0  0  0  0  0  0  0  0  0
    9.2372   10.5898   26.0595 H   0  0  0  0  0  0  0  0  0  0  0  0
    9.6768   10.3943   21.7678 H   0  0  0  0  0  0  0  0  0  0  0  0
   10.3004   11.8427   22.5559 H   0  0  0  0  0  0  0  0  0  0  0  0
    7.1058   11.1085   24.9940 H   0  0  0  0  0  0  0  0  0  0  0  0
    7.7162   12.5935   25.7306 H   0  0  0  0  0  0  0  0  0  0  0  0
    8.1281   12.3958   21.6061 H   0  0  0  0  0  0  0  0  0  0  0  0
    7.3830   10.9719   22.3296 H   0  0  0  0  0  0  0  0  0  0  0  0
   10.7327   10.0379   24.0652 H   0  0  0  0  0  0  0  0  0  0  0  0
   10.8830   13.5355   22.8001 H   0  0  0  0  0  0  0  0  0  0  0  0
   11.3766   15.1905   23.2347 H   0  0  0  0  0  0  0  0  0  0  0  0
   10.2118   14.3343   24.2435 H   0  0  0  0  0  0  0  0  0  0  0  0
    7.8071    9.2005   23.8081 H   0  0  0  0  0  0  0  0  0  0  0  0
    9.0231    8.4501   24.8596 H   0  0  0  0  0  0  0  0  0  0  0  0
    9.2020    8.3666   23.0963 H   0  0  0  0  0  0  0  0  0  0  0  0
    5.9442   16.6910   19.7943 H   0  0  0  0  0  0  0  0  0  0  0  0
    4.6463   15.4493   19.8086 H   0  0  0  0  0  0  0  0  0  0  0  0
    4.5325   16.8801   20.8886 H   0  0  0  0  0  0  0  0  0  0  0  0
    5.3387   14.8876   22.1194 H   0  0  0  0  0  0  0  0  0  0  0  0
  1  2  1  0  0  0  0
  1  3  2  0  0  0  0
  1  4  1  0  0  0  0
  2 10  1  0  0  0  0
  2 13  2  0  0  0  0
  3 15  1  0  0  0  0
  3 17  1  0  0  0  0
  4 14  1  0  0  0  0
  4 16  2  0  0  0  0
  5  7  1  0  0  0  0
  5  9  1  0  0  0  0
  6  8  1  0  0  0  0
  6  9  1  0  0  0  0
  7 14  1  0  0  0  0
  8 14  1  0  0  0  0
  9 11  1  0  0  0  0
 12 15  1  0  0  0  0
 13 17  1  0  0  0  0
  5 18  1  0  0  0  0
  5 19  1  0  0  0  0
  6 20  1  0  0  0  0
  6 21  1  0  0  0  0
  7 22  1  0  0  0  0
  7 23  1  0  0  0  0
  8 24  1  0  0  0  0
  8 25  1  0  0  0  0
  9 26  1  0  0  0  0
 10 27  1  0  0  0  0
 10 28  1  0  0  0  0
 10 29  1  0  0  0  0
 11 30  1  0  0  0  0
 11 31  1  0  0  0  0
 11 32  1  0  0  0  0
 12 33  1  0  0  0  0
 12 34  1  0  0  0  0
 12 35  1  0  0  0  0
 15 36  1  0  0  0  0
M  END
> <Catalog ID>
Z119914894

> <PlateID>
1337959-R-09

> <Well>
H06

> <MW (desalted)>
253.364

> <CLogP>
1.953

> <HBD>
1

> <TPSA>
45.230

> <RotBonds>
2

> <ROCS_ShapeQuery>
x0446_0A_x1080_0A_x0929_0A_x0812_0A_x0719_0A_x1140_0A_x0528_0A_x0310_0A

> <ROCS_TanimotoCombo>
0.331 

> <ROCS_ShapeTanimoto>
0.190 

> <ROCS_ColorTanimoto>
0.141 

> <ROCS_RefTversky>
0.178 

> <ROCS_RefColorTversky>
0.146 

> <ROCS_RefTverskyCombo>
0.324 

> <ROCS_FitTversky>
1.601 

> <ROCS_FitColorTversky>
0.788 

> <ROCS_FitTverskyCombo>
2.389 

> <ROCS_ColorScore>
-5.208

> <ROCS_Overlap>
2094.564

> <ROCS_Rank>
112                 

$$$$
untitled-dbase-183_1
  -OEChem-02082415003D

 28 29  0     1  0  0  0  0  0999 V2000
    9.4786   12.7976   23.3348 C   0  0  0  0  0  0  0  0  0  0  0  0
    9.8805   10.6901   22.6001 C   0  0  0  0  0  0  0  0  0  0  0  0
    8.2145   11.9685   25.3455 C   0  0  0  0  0  0  0  0  0  0  0  0
    6.9850   12.4831   23.1998 C   0  0  0  0  0  0  0  0  0  0  0  0
    6.9280   11.3279   25.8421 C   0  0  0  0  0  0  0  0  0  0  0  0
    8.2859   11.9614   23.8205 C   0  0  1  0  0  0  0  0  0  0  0  0
    5.6981   11.9304   23.8507 C   0  0  0  0  0  0  0  0  0  0  0  0
    5.3417   10.5166   23.3702 C   0  0  0  0  0  0  0  0  0  0  0  0
    4.5246   12.8541   23.4817 C   0  0  0  0  0  0  0  0  0  0  0  0
   10.3358   11.9858   22.6344 N   0  0  0  0  0  0  0  0  0  0  0  0
    8.6752   10.6655   23.2997 N   0  0  0  0  0  0  0  0  0  0  0  0
    9.6273   13.9945   23.5433 O   0  0  0  0  0  0  0  0  0  0  0  0
   10.4273    9.7352   22.0655 O   0  0  0  0  0  0  0  0  0  0  0  0
    5.7861   11.9707   25.2821 O   0  0  0  0  0  0  0  0  0  0  0  0
    8.2967   12.9832   25.7462 H   0  0  0  0  0  0  0  0  0  0  0  0
    9.0530   11.3835   25.7409 H   0  0  0  0  0  0  0  0  0  0  0  0
    6.9619   13.5752   23.1883 H   0  0  0  0  0  0  0  0  0  0  0  0
    6.9834   12.1567   22.1539 H   0  0  0  0  0  0  0  0  0  0  0  0
    6.8990   10.2806   25.5214 H   0  0  0  0  0  0  0  0  0  0  0  0
    6.8690   11.3200   26.9348 H   0  0  0  0  0  0  0  0  0  0  0  0
    4.4326   10.1910   23.8640 H   0  0  0  0  0  0  0  0  0  0  0  0
    6.1541    9.8414   23.6158 H   0  0  0  0  0  0  0  0  0  0  0  0
    5.1901   10.5327   22.2964 H   0  0  0  0  0  0  0  0  0  0  0  0
    3.6117   12.4768   23.9334 H   0  0  0  0  0  0  0  0  0  0  0  0
    4.4109   12.8801   22.4018 H   0  0  0  0  0  0  0  0  0  0  0  0
    4.7240   13.8564   23.8497 H   0  0  0  0  0  0  0  0  0  0  0  0
   11.1941   12.3004   22.1984 H   0  0  0  0  0  0  0  0  0  0  0  0
    8.1252    9.8233   23.4146 H   0  0  0  0  0  0  0  0  0  0  0  0
  1  6  1  0  0  0  0
  1 10  1  0  0  0  0
  1 12  2  0  0  0  0
  2 10  1  0  0  0  0
  2 11  1  0  0  0  0
  2 13  2  0  0  0  0
  3  5  1  0  0  0  0
  3  6  1  0  0  0  0
  4  6  1  0  0  0  0
  4  7  1  0  0  0  0
  5 14  1  0  0  0  0
  6 11  1  0  0  0  0
  7  8  1  0  0  0  0
  7  9  1  0  0  0  0
  7 14  1  0  0  0  0
  3 15  1  0  0  0  0
  3 16  1  0  0  0  0
  4 17  1  0  0  0  0
  4 18  1  0  0  0  0
  5 19  1  0  0  0  0
  5 20  1  0  0  0  0
  8 21  1  0  0  0  0
  8 22  1  0  0  0  0
  8 23  1  0  0  0  0
  9 24  1  0  0  0  0
  9 25  1  0  0  0  0
  9 26  1  0  0  0  0
 10 27  1  0  0  0  0
 11 28  1  0  0  0  0
M  END
> <Catalog ID>
Z1192350880

> <PlateID>
1337959-R-04

> <Well>
F11

> <MW (desalted)>
198.219

> <CLogP>
-1.061

> <HBD>
2

> <TPSA>
67.430

> <RotBonds>
0

> <ROCS_ShapeQuery>
x0446_0A_x1080_0A_x0929_0A_x0812_0A_x0719_0A_x1140_0A_x0528_0A_x0310_0A

> <ROCS_TanimotoCombo>
0.331 

> <ROCS_ShapeTanimoto>
0.183 

> <ROCS_ColorTanimoto>
0.148 

> <ROCS_RefTversky>
0.171 

> <ROCS_RefColorTversky>
0.163 

> <ROCS_RefTverskyCombo>
0.334 

> <ROCS_FitTversky>
1.656 

> <ROCS_FitColorTversky>
0.614 

> <ROCS_FitTverskyCombo>
2.271 

> <ROCS_ColorScore>
-5.821

> <ROCS_Overlap>
2014.720

> <ROCS_Rank>
113                 

$$$$
untitled-dbase-346_4
  -OEChem-02082415003D

 29 30  0     0  0  0  0  0  0999 V2000
   12.7158   11.9412   22.8402 C   0  0  0  0  0  0  0  0  0  0  0  0
    8.7677   10.8297   25.3189 C   0  0  0  0  0  0  0  0  0  0  0  0
   12.8047   12.0283   24.2250 C   0  0  0  0  0  0  0  0  0  0  0  0
    9.2695    9.9178   24.3903 C   0  0  0  0  0  0  0  0  0  0  0  0
    8.2482   12.0502   24.8873 C   0  0  0  0  0  0  0  0  0  0  0  0
   11.8380   12.7713   22.1519 C   0  0  0  0  0  0  0  0  0  0  0  0
    8.7322   11.4468   22.5985 C   0  0  0  0  0  0  0  0  0  0  0  0
   12.0007   12.9546   24.8696 C   0  0  0  0  0  0  0  0  0  0  0  0
    9.2517   10.2264   23.0301 C   0  0  0  0  0  0  0  0  0  0  0  0
    8.2304   12.3587   23.5271 C   0  0  0  0  0  0  0  0  0  0  0  0
   11.0771   13.6642   22.8893 C   0  0  0  0  0  0  0  0  0  0  0  0
   10.1186   14.5757   22.1790 C   0  0  0  0  0  0  0  0  0  0  0  0
   11.1361   13.7777   24.2351 N   0  0  0  0  0  0  0  0  0  0  0  0
    8.9513   14.9022   23.0105 N   0  0  0  0  0  0  0  0  0  0  0  0
    7.1287   13.7416   21.6077 O   0  0  0  0  0  0  0  0  0  0  0  0
    6.6377   14.3499   23.9979 O   0  0  0  0  0  0  0  0  0  0  0  0
    9.7339    9.3505   22.1386 F   0  0  0  0  0  0  0  0  0  0  0  0
    7.5780   13.8849   22.9868 S   0  0  0  0  0  0  0  0  0  0  0  0
   13.3294   11.2278   22.2985 H   0  0  0  0  0  0  0  0  0  0  0  0
    8.7820   10.5891   26.3778 H   0  0  0  0  0  0  0  0  0  0  0  0
   13.4819   11.3913   24.7822 H   0  0  0  0  0  0  0  0  0  0  0  0
    9.6742    8.9676   24.7262 H   0  0  0  0  0  0  0  0  0  0  0  0
    7.8591   12.7530   25.6194 H   0  0  0  0  0  0  0  0  0  0  0  0
   11.7592   12.7133   21.0716 H   0  0  0  0  0  0  0  0  0  0  0  0
    8.7240   11.6764   21.5363 H   0  0  0  0  0  0  0  0  0  0  0  0
   12.0325   13.0618   25.9488 H   0  0  0  0  0  0  0  0  0  0  0  0
   10.6106   15.5152   21.9046 H   0  0  0  0  0  0  0  0  0  0  0  0
    9.7530   14.1178   21.2539 H   0  0  0  0  0  0  0  0  0  0  0  0
    9.1398   15.4586   23.8533 H   0  0  0  0  0  0  0  0  0  0  0  0
  1  3  2  0  0  0  0
  1  6  1  0  0  0  0
  2  4  1  0  0  0  0
  2  5  2  0  0  0  0
  3  8  1  0  0  0  0
  4  9  2  0  0  0  0
  5 10  1  0  0  0  0
  6 11  2  0  0  0  0
  7  9  1  0  0  0  0
  7 10  2  0  0  0  0
  8 13  2  0  0  0  0
  9 17  1  0  0  0  0
 10 18  1  0  0  0  0
 11 12  1  0  0  0  0
 11 13  1  0  0  0  0
 12 14  1  0  0  0  0
 14 18  1  0  0  0  0
 15 18  2  0  0  0  0
 16 18  2  0  0  0  0
  1 19  1  0  0  0  0
  2 20  1  0  0  0  0
  3 21  1  0  0  0  0
  4 22  1  0  0  0  0
  5 23  1  0  0  0  0
  6 24  1  0  0  0  0
  7 25  1  0  0  0  0
  8 26  1  0  0  0  0
 12 27  1  0  0  0  0
 12 28  1  0  0  0  0
 14 29  1  0  0  0  0
M  END
> <Catalog ID>
Z45524387

> <PlateID>
1337959-R-08

> <Well>
D05

> <MW (desalted)>
266.291

> <CLogP>
1.637

> <HBD>
1

> <TPSA>
59.060

> <RotBonds>
3

> <ROCS_ShapeQuery>
x0446_0A_x1080_0A_x0929_0A_x0812_0A_x0719_0A_x1140_0A_x0528_0A_x0310_0A

> <ROCS_TanimotoCombo>
0.331 

> <ROCS_ShapeTanimoto>
0.215 

> <ROCS_ColorTanimoto>
0.116 

> <ROCS_RefTversky>
0.197 

> <ROCS_RefColorTversky>
0.126 

> <ROCS_RefTverskyCombo>
0.323 

> <ROCS_FitTversky>
1.711 

> <ROCS_FitColorTversky>
0.594 

> <ROCS_FitTverskyCombo>
2.305 

> <ROCS_ColorScore>
-4.496

> <ROCS_Overlap>
2327.558

> <ROCS_Rank>
114                 

$$$$
untitled-dbase-502_33
  -OEChem-02082415003D

 28 29  0     1  0  0  0  0  0999 V2000
   10.4172   15.3053   22.6496 C   0  0  0  0  0  0  0  0  0  0  0  0
   11.4360   16.2574   22.6161 C   0  0  0  0  0  0  0  0  0  0  0  0
   12.8395   14.7126   21.3991 C   0  0  0  0  0  0  0  0  0  0  0  0
   11.8206   13.7605   21.4326 C   0  0  0  0  0  0  0  0  0  0  0  0
   10.6095   14.0568   22.0579 C   0  0  0  0  0  0  0  0  0  0  0  0
   12.6472   15.9610   21.9908 C   0  0  0  0  0  0  0  0  0  0  0  0
    7.1694   11.5153   24.5848 C   0  0  0  0  0  0  0  0  0  0  0  0
    8.0956   12.7010   24.5312 C   0  0  0  0  0  0  0  0  0  0  0  0
    9.0623   10.0440   23.8570 C   0  0  0  0  0  0  0  0  0  0  0  0
    9.9958   11.1956   24.1635 C   0  0  0  0  0  0  0  0  0  0  0  0
    7.7240   10.2734   24.3658 N   0  0  0  0  0  0  0  0  0  0  0  0
    9.3350   12.4616   23.7655 N   0  0  1  0  0  0  0  0  0  0  0  0
    5.9834   11.6617   24.8873 O   0  0  0  0  0  0  0  0  0  0  0  0
    8.0752   13.5284   21.7910 O   0  0  0  0  0  0  0  0  0  0  0  0
    9.7530   11.7030   21.3437 O   0  0  0  0  0  0  0  0  0  0  0  0
   12.0177   12.5633   20.8629 F   0  0  0  0  0  0  0  0  0  0  0  0
    9.3173   12.8547   22.1045 S   0  0  0  0  0  0  0  0  0  0  0  0
   13.9047   17.1351   21.9474 Cl  0  0  0  0  0  0  0  0  0  0  0  0
    9.4776   15.5463   23.1394 H   0  0  0  0  0  0  0  0  0  0  0  0
   11.2719   17.2258   23.0816 H   0  0  0  0  0  0  0  0  0  0  0  0
   13.7775   14.4678   20.9076 H   0  0  0  0  0  0  0  0  0  0  0  0
    7.5424   13.5372   24.0884 H   0  0  0  0  0  0  0  0  0  0  0  0
    8.3639   12.9552   25.5629 H   0  0  0  0  0  0  0  0  0  0  0  0
    8.9876    9.8747   22.7770 H   0  0  0  0  0  0  0  0  0  0  0  0
    9.4203    9.1168   24.3220 H   0  0  0  0  0  0  0  0  0  0  0  0
   10.2127   11.2073   25.2435 H   0  0  0  0  0  0  0  0  0  0  0  0
   10.9559   11.0846   23.6324 H   0  0  0  0  0  0  0  0  0  0  0  0
    7.1530    9.4574   24.5765 H   0  0  0  0  0  0  0  0  0  0  0  0
  1  2  1  0  0  0  0
  1  5  2  0  0  0  0
  2  6  2  0  0  0  0
  3  4  2  0  0  0  0
  3  6  1  0  0  0  0
  4  5  1  0  0  0  0
  4 16  1  0  0  0  0
  5 17  1  0  0  0  0
  6 18  1  0  0  0  0
  7  8  1  0  0  0  0
  7 11  1  0  0  0  0
  7 13  2  0  0  0  0
  8 12  1  0  0  0  0
  9 10  1  0  0  0  0
  9 11  1  0  0  0  0
 10 12  1  0  0  0  0
 12 17  1  0  0  0  0
 14 17  2  0  0  0  0
 15 17  2  0  0  0  0
  1 19  1  0  0  0  0
  2 20  1  0  0  0  0
  3 21  1  0  0  0  0
  8 22  1  0  0  0  0
  8 23  1  0  0  0  0
  9 24  1  0  0  0  0
  9 25  1  0  0  0  0
 10 26  1  0  0  0  0
 10 27  1  0  0  0  0
 11 28  1  0  0  0  0
M  END
> <Catalog ID>
Z45462978

> <PlateID>
1337959-R-11

> <Well>
H04

> <MW (desalted)>
292.714

> <CLogP>
1.803

> <HBD>
1

> <TPSA>
66.480

> <RotBonds>
1

> <ROCS_ShapeQuery>
x0446_0A_x1080_0A_x0929_0A_x0812_0A_x0719_0A_x1140_0A_x0528_0A_x0310_0A

> <ROCS_TanimotoCombo>
0.331 

> <ROCS_ShapeTanimoto>
0.212 

> <ROCS_ColorTanimoto>
0.119 

> <ROCS_RefTversky>
0.195 

> <ROCS_RefColorTversky>
0.129 

> <ROCS_RefTverskyCombo>
0.324 

> <ROCS_FitTversky>
1.694 

> <ROCS_FitColorTversky>
0.608 

> <ROCS_FitTverskyCombo>
2.302 

> <ROCS_ColorScore>
-4.596

> <ROCS_Overlap>
2299.096

> <ROCS_Rank>
115                 

$$$$
untitled-dbase-107_2
  -OEChem-02082415003D

 19 20  0     0  0  0  0  0  0999 V2000
   10.1797   12.9695   23.0324 C   0  0  0  0  0  0  0  0  0  0  0  0
    7.6769   12.1749   23.6104 C   0  0  0  0  0  0  0  0  0  0  0  0
    9.0547   11.6921   25.1170 C   0  0  0  0  0  0  0  0  0  0  0  0
    8.3100    9.8631   23.7568 C   0  0  0  0  0  0  0  0  0  0  0  0
    7.7641   10.9894   24.6122 C   0  0  0  0  0  0  0  0  0  0  0  0
    9.2204   11.9380   23.5834 C   0  0  0  0  0  0  0  0  0  0  0  0
    9.3552   10.5776   23.0124 N   0  0  0  0  0  0  0  0  0  0  0  0
   10.9291   12.5191   21.9714 N   0  0  0  0  0  0  0  0  0  0  0  0
   10.2536   14.1052   23.4952 O   0  0  0  0  0  0  0  0  0  0  0  0
    7.1257   11.9951   22.6813 H   0  0  0  0  0  0  0  0  0  0  0  0
    7.3456   13.1323   24.0307 H   0  0  0  0  0  0  0  0  0  0  0  0
    8.9024   12.5869   25.7325 H   0  0  0  0  0  0  0  0  0  0  0  0
    9.8016   11.0582   25.6062 H   0  0  0  0  0  0  0  0  0  0  0  0
    8.7284    9.0531   24.3635 H   0  0  0  0  0  0  0  0  0  0  0  0
    7.5552    9.4532   23.0786 H   0  0  0  0  0  0  0  0  0  0  0  0
    6.9447   10.8142   25.3062 H   0  0  0  0  0  0  0  0  0  0  0  0
   10.2597   10.1418   23.1909 H   0  0  0  0  0  0  0  0  0  0  0  0
   10.7913   11.5675   21.6471 H   0  0  0  0  0  0  0  0  0  0  0  0
   11.6144   13.1001   21.4995 H   0  0  0  0  0  0  0  0  0  0  0  0
  1  6  1  0  0  0  0
  1  8  1  0  0  0  0
  1  9  2  0  0  0  0
  2  5  1  0  0  0  0
  2  6  1  0  0  0  0
  3  5  1  0  0  0  0
  3  6  1  0  0  0  0
  4  5  1  0  0  0  0
  4  7  1  0  0  0  0
  6  7  1  0  0  0  0
  2 10  1  0  0  0  0
  2 11  1  0  0  0  0
  3 12  1  0  0  0  0
  3 13  1  0  0  0  0
  4 14  1  0  0  0  0
  4 15  1  0  0  0  0
  5 16  1  0  0  0  0
  7 17  1  0  0  0  0
  8 18  1  0  0  0  0
  8 19  1  0  0  0  0
M  END
> <Catalog ID>
Z2587654810

> <PlateID>
1337959-R-03

> <Well>
A07

> <MW (desalted)>
126.156

> <CLogP>
-1.103

> <HBD>
2

> <TPSA>
55.120

> <RotBonds>
1

> <ROCS_ShapeQuery>
x0446_0A_x1080_0A_x0929_0A_x0812_0A_x0719_0A_x1140_0A_x0528_0A_x0310_0A

> <ROCS_TanimotoCombo>
0.331 

> <ROCS_ShapeTanimoto>
0.159 

> <ROCS_ColorTanimoto>
0.172 

> <ROCS_RefTversky>
0.148 

> <ROCS_RefColorTversky>
0.197 

> <ROCS_RefTverskyCombo>
0.345 

> <ROCS_FitTversky>
1.751 

> <ROCS_FitColorTversky>
0.580 

> <ROCS_FitTverskyCombo>
2.331 

> <ROCS_ColorScore>
-7.054

> <ROCS_Overlap>
1749.732

> <ROCS_Rank>
116                 

$$$$
untitled-dbase-561_15
  -OEChem-02082415003D

 27 28  0     0  0  0  0  0  0999 V2000
    6.2362   16.2424   25.7455 C   0  0  0  0  0  0  0  0  0  0  0  0
    6.9596   17.0864   24.9029 C   0  0  0  0  0  0  0  0  0  0  0  0
    6.2002   14.8706   25.4951 C   0  0  0  0  0  0  0  0  0  0  0  0
    7.6469   16.5587   23.8098 C   0  0  0  0  0  0  0  0  0  0  0  0
    8.9755   11.3131   22.4381 C   0  0  0  0  0  0  0  0  0  0  0  0
    9.0964   12.0539   24.7230 C   0  0  0  0  0  0  0  0  0  0  0  0
    8.4838   10.1073   22.9116 C   0  0  0  0  0  0  0  0  0  0  0  0
    8.5992   10.8151   25.0943 C   0  0  0  0  0  0  0  0  0  0  0  0
    9.2852   12.2997   23.3676 C   0  0  0  0  0  0  0  0  0  0  0  0
    6.8875   14.3429   24.4020 C   0  0  0  0  0  0  0  0  0  0  0  0
    7.6109   15.1869   23.5593 C   0  0  0  0  0  0  0  0  0  0  0  0
    9.8206   13.6216   22.9107 C   0  0  0  0  0  0  0  0  0  0  0  0
    8.2870    9.8319   24.2204 N   0  0  0  0  0  0  0  0  0  0  0  0
    7.5971   13.5799   21.5217 O   0  0  0  0  0  0  0  0  0  0  0  0
    9.0596   15.6291   21.4325 O   0  0  0  0  0  0  0  0  0  0  0  0
    6.8451   13.0232   24.1711 F   0  0  0  0  0  0  0  0  0  0  0  0
    8.4733   14.5317   22.1897 S   0  0  0  0  0  0  0  0  0  0  0  0
    5.7012   16.6532   26.5966 H   0  0  0  0  0  0  0  0  0  0  0  0
    6.9882   18.1543   25.0984 H   0  0  0  0  0  0  0  0  0  0  0  0
    5.6372   14.2133   26.1509 H   0  0  0  0  0  0  0  0  0  0  0  0
    8.2073   17.2255   23.1600 H   0  0  0  0  0  0  0  0  0  0  0  0
    9.1122   11.4732   21.3739 H   0  0  0  0  0  0  0  0  0  0  0  0
    9.3283   12.8034   25.4718 H   0  0  0  0  0  0  0  0  0  0  0  0
    8.2282    9.3047   22.2275 H   0  0  0  0  0  0  0  0  0  0  0  0
    8.4339   10.5739   26.1391 H   0  0  0  0  0  0  0  0  0  0  0  0
   10.5999   13.5080   22.1519 H   0  0  0  0  0  0  0  0  0  0  0  0
   10.2234   14.2095   23.7403 H   0  0  0  0  0  0  0  0  0  0  0  0
  1  2  2  0  0  0  0
  1  3  1  0  0  0  0
  2  4  1  0  0  0  0
  3 10  2  0  0  0  0
  4 11  2  0  0  0  0
  5  7  1  0  0  0  0
  5  9  2  0  0  0  0
  6  8  2  0  0  0  0
  6  9  1  0  0  0  0
  7 13  2  0  0  0  0
  8 13  1  0  0  0  0
  9 12  1  0  0  0  0
 10 11  1  0  0  0  0
 10 16  1  0  0  0  0
 11 17  1  0  0  0  0
 12 17  1  0  0  0  0
 14 17  2  0  0  0  0
 15 17  2  0  0  0  0
  1 18  1  0  0  0  0
  2 19  1  0  0  0  0
  3 20  1  0  0  0  0
  4 21  1  0  0  0  0
  5 22  1  0  0  0  0
  6 23  1  0  0  0  0
  7 24  1  0  0  0  0
  8 25  1  0  0  0  0
 12 26  1  0  0  0  0
 12 27  1  0  0  0  0
M  END
> <Catalog ID>
Z931213482

> <PlateID>
1337959-R-13

> <Well>
B05

> <MW (desalted)>
251.277

> <CLogP>
0.841

> <HBD>
0

> <TPSA>
47.030

> <RotBonds>
3

> <ROCS_ShapeQuery>
x0446_0A_x1080_0A_x0929_0A_x0812_0A_x0719_0A_x1140_0A_x0528_0A_x0310_0A

> <ROCS_TanimotoCombo>
0.331 

> <ROCS_ShapeTanimoto>
0.187 

> <ROCS_ColorTanimoto>
0.143 

> <ROCS_RefTversky>
0.176 

> <ROCS_RefColorTversky>
0.148 

> <ROCS_RefTverskyCombo>
0.324 

> <ROCS_FitTversky>
1.564 

> <ROCS_FitColorTversky>
0.799 

> <ROCS_FitTverskyCombo>
2.363 

> <ROCS_ColorScore>
-5.282

> <ROCS_Overlap>
2072.358

> <ROCS_Rank>
117                 

$$$$
untitled-dbase-298_84
  -OEChem-02082415003D

 33 34  0     0  0  0  0  0  0999 V2000
   13.2104   14.9529   22.4862 C   0  0  0  0  0  0  0  0  0  0  0  0
   12.5709   16.1792   22.3050 C   0  0  0  0  0  0  0  0  0  0  0  0
   12.4875   13.7655   22.3708 C   0  0  0  0  0  0  0  0  0  0  0  0
   11.2085   16.2181   22.0084 C   0  0  0  0  0  0  0  0  0  0  0  0
   11.1251   13.8045   22.0742 C   0  0  0  0  0  0  0  0  0  0  0  0
   10.4855   15.0308   21.8930 C   0  0  0  0  0  0  0  0  0  0  0  0
   10.3832   12.5432   21.9574 C   0  0  0  0  0  0  0  0  0  0  0  0
    7.6152   11.2297   24.8346 C   0  0  0  0  0  0  0  0  0  0  0  0
    8.1110   10.3227   23.7079 C   0  0  0  0  0  0  0  0  0  0  0  0
    7.8967   12.6996   24.5225 C   0  0  0  0  0  0  0  0  0  0  0  0
    9.5789   10.5934   23.3893 C   0  0  0  0  0  0  0  0  0  0  0  0
    9.3676   12.9224   24.1795 C   0  0  0  0  0  0  0  0  0  0  0  0
    8.7882   15.0735   20.2273 C   0  0  0  0  0  0  0  0  0  0  0  0
    9.7900   12.0198   23.1083 N   0  0  0  0  0  0  0  0  0  0  0  0
   10.3509   12.0340   20.8383 O   0  0  0  0  0  0  0  0  0  0  0  0
    9.1555   15.0894   21.6007 O   0  0  0  0  0  0  0  0  0  0  0  0
    7.5675   14.4849   20.1382 F   0  0  0  0  0  0  0  0  0  0  0  0
    8.6342   16.3483   19.7926 F   0  0  0  0  0  0  0  0  0  0  0  0
   14.2714   14.9229   22.7172 H   0  0  0  0  0  0  0  0  0  0  0  0
   13.1342   17.1033   22.3955 H   0  0  0  0  0  0  0  0  0  0  0  0
   12.9964   12.8157   22.5137 H   0  0  0  0  0  0  0  0  0  0  0  0
   10.7164   17.1768   21.8682 H   0  0  0  0  0  0  0  0  0  0  0  0
    6.5362   11.0861   24.9701 H   0  0  0  0  0  0  0  0  0  0  0  0
    8.0981   10.9498   25.7774 H   0  0  0  0  0  0  0  0  0  0  0  0
    7.9850    9.2719   23.9970 H   0  0  0  0  0  0  0  0  0  0  0  0
    7.5020   10.4845   22.8114 H   0  0  0  0  0  0  0  0  0  0  0  0
    7.2686   13.0238   23.6853 H   0  0  0  0  0  0  0  0  0  0  0  0
    7.6248   13.3175   25.3871 H   0  0  0  0  0  0  0  0  0  0  0  0
   10.2024   10.2486   24.2178 H   0  0  0  0  0  0  0  0  0  0  0  0
    9.8868   10.0367   22.4961 H   0  0  0  0  0  0  0  0  0  0  0  0
    9.5300   13.9483   23.8286 H   0  0  0  0  0  0  0  0  0  0  0  0
    9.9839   12.7782   25.0727 H   0  0  0  0  0  0  0  0  0  0  0  0
    9.4901   14.5198   19.5944 H   0  0  0  0  0  0  0  0  0  0  0  0
  1  2  2  0  0  0  0
  1  3  1  0  0  0  0
  2  4  1  0  0  0  0
  3  5  2  0  0  0  0
  4  6  2  0  0  0  0
  5  6  1  0  0  0  0
  5  7  1  0  0  0  0
  6 16  1  0  0  0  0
  7 14  1  0  0  0  0
  7 15  2  0  0  0  0
  8  9  1  0  0  0  0
  8 10  1  0  0  0  0
  9 11  1  0  0  0  0
 10 12  1  0  0  0  0
 11 14  1  0  0  0  0
 12 14  1  0  0  0  0
 13 16  1  0  0  0  0
 13 17  1  0  0  0  0
 13 18  1  0  0  0  0
  1 19  1  0  0  0  0
  2 20  1  0  0  0  0
  3 21  1  0  0  0  0
  4 22  1  0  0  0  0
  8 23  1  0  0  0  0
  8 24  1  0  0  0  0
  9 25  1  0  0  0  0
  9 26  1  0  0  0  0
 10 27  1  0  0  0  0
 10 28  1  0  0  0  0
 11 29  1  0  0  0  0
 11 30  1  0  0  0  0
 12 31  1  0  0  0  0
 12 32  1  0  0  0  0
 13 33  1  0  0  0  0
M  END
> <Catalog ID>
Z54409038

> <PlateID>
1337959-R-07

> <Well>
B11

> <MW (desalted)>
255.261

> <CLogP>
2.466

> <HBD>
0

> <TPSA>
29.540

> <RotBonds>
3

> <ROCS_ShapeQuery>
x0446_0A_x1080_0A_x0929_0A_x0812_0A_x0719_0A_x1140_0A_x0528_0A_x0310_0A

> <ROCS_TanimotoCombo>
0.331 

> <ROCS_ShapeTanimoto>
0.206 

> <ROCS_ColorTanimoto>
0.125 

> <ROCS_RefTversky>
0.191 

> <ROCS_RefColorTversky>
0.128 

> <ROCS_RefTverskyCombo>
0.319 

> <ROCS_FitTversky>
1.634 

> <ROCS_FitColorTversky>
0.806 

> <ROCS_FitTverskyCombo>
2.440 

> <ROCS_ColorScore>
-4.563

> <ROCS_Overlap>
2251.482

> <ROCS_Rank>
118                 

$$$$
untitled-dbase-421_43
  -OEChem-02082415003D

 29 30  0     0  0  0  0  0  0999 V2000
    6.4782   13.7713   25.4824 C   0  0  0  0  0  0  0  0  0  0  0  0
    5.3796   14.5104   25.0439 C   0  0  0  0  0  0  0  0  0  0  0  0
    7.6500   13.7482   24.7261 C   0  0  0  0  0  0  0  0  0  0  0  0
    5.4527   15.2265   23.8491 C   0  0  0  0  0  0  0  0  0  0  0  0
    9.0537   11.7147   22.9893 C   0  0  0  0  0  0  0  0  0  0  0  0
    7.7232   14.4642   23.5313 C   0  0  0  0  0  0  0  0  0  0  0  0
    6.6246   15.2034   23.0927 C   0  0  0  0  0  0  0  0  0  0  0  0
    7.9608   10.8360   23.0853 C   0  0  0  0  0  0  0  0  0  0  0  0
    9.8841   11.3136   24.0021 C   0  0  0  0  0  0  0  0  0  0  0  0
    6.7508   10.7936   22.2467 C   0  0  0  0  0  0  0  0  0  0  0  0
   11.1918   11.7706   24.4909 C   0  0  0  0  0  0  0  0  0  0  0  0
    8.1026    9.9571   24.0815 N   0  0  0  0  0  0  0  0  0  0  0  0
    9.2378   12.7802   22.0411 N   0  0  0  0  0  0  0  0  0  0  0  0
   10.3147   14.5542   23.5733 O   0  0  0  0  0  0  0  0  0  0  0  0
    9.1211   15.3242   21.5041 O   0  0  0  0  0  0  0  0  0  0  0  0
    9.3275   10.2653   24.6612 O   0  0  0  0  0  0  0  0  0  0  0  0
    9.2211   14.3998   22.6242 S   0  0  0  0  0  0  0  0  0  0  0  0
    6.6629   16.1068   21.6214 Cl  0  0  0  0  0  0  0  0  0  0  0  0
    6.4214   13.2144   26.4131 H   0  0  0  0  0  0  0  0  0  0  0  0
    4.4675   14.5288   25.6331 H   0  0  0  0  0  0  0  0  0  0  0  0
    8.4985   13.1685   25.0799 H   0  0  0  0  0  0  0  0  0  0  0  0
    4.5872   15.7973   23.5223 H   0  0  0  0  0  0  0  0  0  0  0  0
    6.8899   10.1297   21.3763 H   0  0  0  0  0  0  0  0  0  0  0  0
    5.8693   10.4303   22.8045 H   0  0  0  0  0  0  0  0  0  0  0  0
    6.4745   11.7919   21.8626 H   0  0  0  0  0  0  0  0  0  0  0  0
   11.0837   12.5489   25.2676 H   0  0  0  0  0  0  0  0  0  0  0  0
   11.7880   10.9486   24.9293 H   0  0  0  0  0  0  0  0  0  0  0  0
   11.8176   12.1957   23.6838 H   0  0  0  0  0  0  0  0  0  0  0  0
    8.7928   12.6248   21.1269 H   0  0  0  0  0  0  0  0  0  0  0  0
  1  2  2  0  0  0  0
  1  3  1  0  0  0  0
  2  4  1  0  0  0  0
  3  6  2  0  0  0  0
  4  7  2  0  0  0  0
  5  8  1  0  0  0  0
  5  9  2  0  0  0  0
  5 13  1  0  0  0  0
  6  7  1  0  0  0  0
  6 17  1  0  0  0  0
  7 18  1  0  0  0  0
  8 10  1  0  0  0  0
  8 12  2  0  0  0  0
  9 11  1  0  0  0  0
  9 16  1  0  0  0  0
 12 16  1  0  0  0  0
 13 17  1  0  0  0  0
 14 17  2  0  0  0  0
 15 17  2  0  0  0  0
  1 19  1  0  0  0  0
  2 20  1  0  0  0  0
  3 21  1  0  0  0  0
  4 22  1  0  0  0  0
 10 23  1  0  0  0  0
 10 24  1  0  0  0  0
 10 25  1  0  0  0  0
 11 26  1  0  0  0  0
 11 27  1  0  0  0  0
 11 28  1  0  0  0  0
 13 29  1  0  0  0  0
M  END
> <Catalog ID>
Z915546900

> <PlateID>
1337959-R-09

> <Well>
H08

> <MW (desalted)>
286.735

> <CLogP>
1.040

> <HBD>
1

> <TPSA>
72.200

> <RotBonds>
2

> <ROCS_ShapeQuery>
x0446_0A_x1080_0A_x0929_0A_x0812_0A_x0719_0A_x1140_0A_x0528_0A_x0310_0A

> <ROCS_TanimotoCombo>
0.331 

> <ROCS_ShapeTanimoto>
0.201 

> <ROCS_ColorTanimoto>
0.130 

> <ROCS_RefTversky>
0.186 

> <ROCS_RefColorTversky>
0.139 

> <ROCS_RefTverskyCombo>
0.326 

> <ROCS_FitTversky>
1.619 

> <ROCS_FitColorTversky>
0.657 

> <ROCS_FitTverskyCombo>
2.275 

> <ROCS_ColorScore>
-4.966

> <ROCS_Overlap>
2199.550

> <ROCS_Rank>
119                 

$$$$
untitled-dbase-562_0
  -OEChem-02082415003D

 32 33  0     1  0  0  0  0  0999 V2000
   12.4468   14.9017   23.3885 C   0  0  0  0  0  0  0  0  0  0  0  0
   13.2704   15.5099   22.4413 C   0  0  0  0  0  0  0  0  0  0  0  0
   11.3792   15.7624   20.9591 C   0  0  0  0  0  0  0  0  0  0  0  0
   11.0894   14.7236   23.1210 C   0  0  0  0  0  0  0  0  0  0  0  0
   10.5556   15.1540   21.9063 C   0  0  0  0  0  0  0  0  0  0  0  0
   12.7366   15.9403   21.2266 C   0  0  0  0  0  0  0  0  0  0  0  0
    7.7406   11.2499   23.9474 C   0  0  0  0  0  0  0  0  0  0  0  0
    8.4175   12.5063   24.4539 C   0  0  0  0  0  0  0  0  0  0  0  0
    9.9102   10.5565   22.9256 C   0  0  0  0  0  0  0  0  0  0  0  0
   10.5426   11.7392   23.6382 C   0  0  0  0  0  0  0  0  0  0  0  0
    8.7707   15.4575   20.3643 C   0  0  0  0  0  0  0  0  0  0  0  0
   10.2180   14.0662   24.1518 C   0  0  0  0  0  0  0  0  0  0  0  0
    8.5420   10.3158   23.3319 N   0  0  0  0  0  0  0  0  0  0  0  0
    9.5870   12.8494   23.6398 N   0  0  2  0  0  0  0  0  0  0  0  0
    6.5430   11.0526   24.1614 O   0  0  0  0  0  0  0  0  0  0  0  0
    9.2318   14.9884   21.6297 O   0  0  0  0  0  0  0  0  0  0  0  0
   13.7533   16.6922   20.0595 Cl  0  0  0  0  0  0  0  0  0  0  0  0
   12.8724   14.5688   24.3314 H   0  0  0  0  0  0  0  0  0  0  0  0
   14.3265   15.6409   22.6620 H   0  0  0  0  0  0  0  0  0  0  0  0
   10.9561   16.0953   20.0141 H   0  0  0  0  0  0  0  0  0  0  0  0
    7.6804   13.3162   24.3999 H   0  0  0  0  0  0  0  0  0  0  0  0
    8.6828   12.3464   25.5064 H   0  0  0  0  0  0  0  0  0  0  0  0
    9.8864   10.7289   21.8434 H   0  0  0  0  0  0  0  0  0  0  0  0
   10.4811    9.6402   23.1061 H   0  0  0  0  0  0  0  0  0  0  0  0
   10.8344   11.4605   24.6592 H   0  0  0  0  0  0  0  0  0  0  0  0
   11.4577   12.0161   23.1007 H   0  0  0  0  0  0  0  0  0  0  0  0
    7.6992   15.2643   20.2716 H   0  0  0  0  0  0  0  0  0  0  0  0
    9.3143   14.9471   19.5653 H   0  0  0  0  0  0  0  0  0  0  0  0
    8.9519   16.5328   20.2963 H   0  0  0  0  0  0  0  0  0  0  0  0
   10.8040   13.7954   25.0369 H   0  0  0  0  0  0  0  0  0  0  0  0
    9.4225   14.7420   24.4828 H   0  0  0  0  0  0  0  0  0  0  0  0
    8.1478    9.3978   23.1509 H   0  0  0  0  0  0  0  0  0  0  0  0
  1  2  1  0  0  0  0
  1  4  2  0  0  0  0
  2  6  2  0  0  0  0
  3  5  2  0  0  0  0
  3  6  1  0  0  0  0
  4  5  1  0  0  0  0
  4 12  1  0  0  0  0
  5 16  1  0  0  0  0
  6 17  1  0  0  0  0
  7  8  1  0  0  0  0
  7 13  1  0  0  0  0
  7 15  2  0  0  0  0
  8 14  1  0  0  0  0
  9 10  1  0  0  0  0
  9 13  1  0  0  0  0
 10 14  1  0  0  0  0
 11 16  1  0  0  0  0
 12 14  1  0  0  0  0
  1 18  1  0  0  0  0
  2 19  1  0  0  0  0
  3 20  1  0  0  0  0
  8 21  1  0  0  0  0
  8 22  1  0  0  0  0
  9 23  1  0  0  0  0
  9 24  1  0  0  0  0
 10 25  1  0  0  0  0
 10 26  1  0  0  0  0
 11 27  1  0  0  0  0
 11 28  1  0  0  0  0
 11 29  1  0  0  0  0
 12 30  1  0  0  0  0
 12 31  1  0  0  0  0
 13 32  1  0  0  0  0
M  END
> <Catalog ID>
Z1961194937

> <PlateID>
1337959-R-13

> <Well>
B06

> <MW (desalted)>
254.713

> <CLogP>
2.307

> <HBD>
1

> <TPSA>
41.570

> <RotBonds>
3

> <ROCS_ShapeQuery>
x0446_0A_x1080_0A_x0929_0A_x0812_0A_x0719_0A_x1140_0A_x0528_0A_x0310_0A

> <ROCS_TanimotoCombo>
0.330 

> <ROCS_ShapeTanimoto>
0.203 

> <ROCS_ColorTanimoto>
0.127 

> <ROCS_RefTversky>
0.187 

> <ROCS_RefColorTversky>
0.137 

> <ROCS_RefTverskyCombo>
0.324 

> <ROCS_FitTversky>
1.669 

> <ROCS_FitColorTversky>
0.646 

> <ROCS_FitTverskyCombo>
2.314 

> <ROCS_ColorScore>
-4.883

> <ROCS_Overlap>
2211.760

> <ROCS_Rank>
120                 

$$$$
untitled-dbase-468_43
  -OEChem-02082415003D

 34 35  0     0  0  0  0  0  0999 V2000
    9.2846   10.4780   24.0390 C   0  0  0  0  0  0  0  0  0  0  0  0
    9.7958   11.4587   23.1891 C   0  0  0  0  0  0  0  0  0  0  0  0
    7.8381   12.8191   23.5815 C   0  0  0  0  0  0  0  0  0  0  0  0
    7.3269   11.8383   24.4314 C   0  0  0  0  0  0  0  0  0  0  0  0
    8.0502   10.6677   24.6601 C   0  0  0  0  0  0  0  0  0  0  0  0
    9.0726   12.6293   22.9603 C   0  0  0  0  0  0  0  0  0  0  0  0
   13.2184   15.8679   21.5788 C   0  0  0  0  0  0  0  0  0  0  0  0
   13.0770   14.3513   21.4641 C   0  0  0  0  0  0  0  0  0  0  0  0
   11.8624   16.5315   21.8120 C   0  0  0  0  0  0  0  0  0  0  0  0
   12.3363   13.7722   22.6641 C   0  0  0  0  0  0  0  0  0  0  0  0
   11.1426   15.9152   23.0061 C   0  0  0  0  0  0  0  0  0  0  0  0
    5.4366   13.2438   24.7585 C   0  0  0  0  0  0  0  0  0  0  0  0
   11.0167   14.4409   22.8365 N   0  0  0  0  0  0  0  0  0  0  0  0
   10.2508   13.2082   20.7131 O   0  0  0  0  0  0  0  0  0  0  0  0
    8.7294   14.9184   21.7659 O   0  0  0  0  0  0  0  0  0  0  0  0
    6.1222   12.0239   25.0369 O   0  0  0  0  0  0  0  0  0  0  0  0
    7.5631    9.7212   25.4741 F   0  0  0  0  0  0  0  0  0  0  0  0
    9.7195   13.8702   21.8846 S   0  0  0  0  0  0  0  0  0  0  0  0
    9.8468    9.5660   24.2171 H   0  0  0  0  0  0  0  0  0  0  0  0
   10.7586   11.3003   22.7106 H   0  0  0  0  0  0  0  0  0  0  0  0
    7.2708   13.7302   23.4063 H   0  0  0  0  0  0  0  0  0  0  0  0
   13.8942   16.1118   22.4096 H   0  0  0  0  0  0  0  0  0  0  0  0
   13.6766   16.2688   20.6662 H   0  0  0  0  0  0  0  0  0  0  0  0
   12.5305   14.1096   20.5441 H   0  0  0  0  0  0  0  0  0  0  0  0
   14.0682   13.8924   21.3819 H   0  0  0  0  0  0  0  0  0  0  0  0
   11.9997   17.6061   21.9748 H   0  0  0  0  0  0  0  0  0  0  0  0
   11.2458   16.4163   20.9121 H   0  0  0  0  0  0  0  0  0  0  0  0
   12.1822   12.6956   22.5008 H   0  0  0  0  0  0  0  0  0  0  0  0
   12.9335   13.8910   23.5810 H   0  0  0  0  0  0  0  0  0  0  0  0
   11.6829   16.1354   23.9394 H   0  0  0  0  0  0  0  0  0  0  0  0
   10.1403   16.3609   23.0853 H   0  0  0  0  0  0  0  0  0  0  0  0
    4.4903   13.2636   25.3046 H   0  0  0  0  0  0  0  0  0  0  0  0
    5.2514   13.3217   23.6842 H   0  0  0  0  0  0  0  0  0  0  0  0
    6.0583   14.0825   25.0808 H   0  0  0  0  0  0  0  0  0  0  0  0
  1  2  1  0  0  0  0
  1  5  2  0  0  0  0
  2  6  2  0  0  0  0
  3  4  2  0  0  0  0
  3  6  1  0  0  0  0
  4  5  1  0  0  0  0
  4 16  1  0  0  0  0
  5 17  1  0  0  0  0
  6 18  1  0  0  0  0
  7  8  1  0  0  0  0
  7  9  1  0  0  0  0
  8 10  1  0  0  0  0
  9 11  1  0  0  0  0
 10 13  1  0  0  0  0
 11 13  1  0  0  0  0
 12 16  1  0  0  0  0
 13 18  1  0  0  0  0
 14 18  2  0  0  0  0
 15 18  2  0  0  0  0
  1 19  1  0  0  0  0
  2 20  1  0  0  0  0
  3 21  1  0  0  0  0
  7 22  1  0  0  0  0
  7 23  1  0  0  0  0
  8 24  1  0  0  0  0
  8 25  1  0  0  0  0
  9 26  1  0  0  0  0
  9 27  1  0  0  0  0
 10 28  1  0  0  0  0
 10 29  1  0  0  0  0
 11 30  1  0  0  0  0
 11 31  1  0  0  0  0
 12 32  1  0  0  0  0
 12 33  1  0  0  0  0
 12 34  1  0  0  0  0
M  END
> <Catalog ID>
Z57464510

> <PlateID>
1337959-R-11

> <Well>
C02

> <MW (desalted)>
273.324

> <CLogP>
2.691

> <HBD>
0

> <TPSA>
46.610

> <RotBonds>
2

> <ROCS_ShapeQuery>
x0446_0A_x1080_0A_x0929_0A_x0812_0A_x0719_0A_x1140_0A_x0528_0A_x0310_0A

> <ROCS_TanimotoCombo>
0.330 

> <ROCS_ShapeTanimoto>
0.217 

> <ROCS_ColorTanimoto>
0.113 

> <ROCS_RefTversky>
0.199 

> <ROCS_RefColorTversky>
0.120 

> <ROCS_RefTverskyCombo>
0.319 

> <ROCS_FitTversky>
1.735 

> <ROCS_FitColorTversky>
0.648 

> <ROCS_FitTverskyCombo>
2.383 

> <ROCS_ColorScore>
-4.287

> <ROCS_Overlap>
2343.721

> <ROCS_Rank>
121                 

$$$$
untitled-dbase-14_30
  -OEChem-02082415003D

 33 34  0     0  0  0  0  0  0999 V2000
    9.0989   10.0755   24.0409 C   0  0  0  0  0  0  0  0  0  0  0  0
    7.9555   10.7070   24.5304 C   0  0  0  0  0  0  0  0  0  0  0  0
   10.0160   10.7916   23.2717 C   0  0  0  0  0  0  0  0  0  0  0  0
    8.6463   12.7708   23.4813 C   0  0  0  0  0  0  0  0  0  0  0  0
    7.7292   12.0546   24.2506 C   0  0  0  0  0  0  0  0  0  0  0  0
    9.7897   12.1393   22.9919 C   0  0  0  0  0  0  0  0  0  0  0  0
    6.5374   12.7128   24.7616 C   0  0  0  0  0  0  0  0  0  0  0  0
   13.1572   15.7705   22.2460 C   0  0  0  0  0  0  0  0  0  0  0  0
   12.6597   15.0236   23.4788 C   0  0  0  0  0  0  0  0  0  0  0  0
   12.5651   15.1744   20.9734 C   0  0  0  0  0  0  0  0  0  0  0  0
   11.1322   14.9202   23.4869 C   0  0  0  0  0  0  0  0  0  0  0  0
   11.0409   15.0657   21.0676 C   0  0  0  0  0  0  0  0  0  0  0  0
   10.7767   12.9101   22.1638 C   0  0  0  0  0  0  0  0  0  0  0  0
   10.5616   14.3520   22.2585 N   0  0  0  0  0  0  0  0  0  0  0  0
    5.6630   12.1769   25.4505 O   0  0  0  0  0  0  0  0  0  0  0  0
    6.4706   14.0233   24.3993 O   0  0  0  0  0  0  0  0  0  0  0  0
    9.2745    9.0258   24.2579 H   0  0  0  0  0  0  0  0  0  0  0  0
    7.2477   10.1395   25.1293 H   0  0  0  0  0  0  0  0  0  0  0  0
   10.9044   10.2916   22.8950 H   0  0  0  0  0  0  0  0  0  0  0  0
    8.4709   13.8214   23.2612 H   0  0  0  0  0  0  0  0  0  0  0  0
   12.8732   16.8292   22.3204 H   0  0  0  0  0  0  0  0  0  0  0  0
   14.2532   15.7367   22.2026 H   0  0  0  0  0  0  0  0  0  0  0  0
   13.0955   14.0169   23.4979 H   0  0  0  0  0  0  0  0  0  0  0  0
   13.0002   15.5371   24.3846 H   0  0  0  0  0  0  0  0  0  0  0  0
   12.8388   15.7944   20.1127 H   0  0  0  0  0  0  0  0  0  0  0  0
   12.9937   14.1794   20.8011 H   0  0  0  0  0  0  0  0  0  0  0  0
   10.8398   14.2933   24.3544 H   0  0  0  0  0  0  0  0  0  0  0  0
   10.7000   15.9244   23.6876 H   0  0  0  0  0  0  0  0  0  0  0  0
   10.5993   16.0847   21.0215 H   0  0  0  0  0  0  0  0  0  0  0  0
   10.6815   14.5458   20.1557 H   0  0  0  0  0  0  0  0  0  0  0  0
   11.8013   12.6999   22.4893 H   0  0  0  0  0  0  0  0  0  0  0  0
   10.7070   12.6300   21.1075 H   0  0  0  0  0  0  0  0  0  0  0  0
    5.6702   14.4768   24.7400 H   0  0  0  0  0  0  0  0  0  0  0  0
  1  2  1  0  0  0  0
  1  3  2  0  0  0  0
  2  5  2  0  0  0  0
  3  6  1  0  0  0  0
  4  5  1  0  0  0  0
  4  6  2  0  0  0  0
  5  7  1  0  0  0  0
  6 13  1  0  0  0  0
  7 15  2  0  0  0  0
  7 16  1  0  0  0  0
  8  9  1  0  0  0  0
  8 10  1  0  0  0  0
  9 11  1  0  0  0  0
 10 12  1  0  0  0  0
 11 14  1  0  0  0  0
 12 14  1  0  0  0  0
 13 14  1  0  0  0  0
  1 17  1  0  0  0  0
  2 18  1  0  0  0  0
  3 19  1  0  0  0  0
  4 20  1  0  0  0  0
  8 21  1  0  0  0  0
  8 22  1  0  0  0  0
  9 23  1  0  0  0  0
  9 24  1  0  0  0  0
 10 25  1  0  0  0  0
 10 26  1  0  0  0  0
 11 27  1  0  0  0  0
 11 28  1  0  0  0  0
 12 29  1  0  0  0  0
 12 30  1  0  0  0  0
 13 31  1  0  0  0  0
 13 32  1  0  0  0  0
 16 33  1  0  0  0  0
M  END
> <Catalog ID>
Z2306626585

> <PlateID>
1337959-R-01

> <Well>
B11

> <MW (desalted)>
219.280

> <CLogP>
0.642

> <HBD>
1

> <TPSA>
40.540

> <RotBonds>
3

> <ROCS_ShapeQuery>
x0446_0A_x1080_0A_x0929_0A_x0812_0A_x0719_0A_x1140_0A_x0528_0A_x0310_0A

> <ROCS_TanimotoCombo>
0.330 

> <ROCS_ShapeTanimoto>
0.218 

> <ROCS_ColorTanimoto>
0.112 

> <ROCS_RefTversky>
0.198 

> <ROCS_RefColorTversky>
0.122 

> <ROCS_RefTverskyCombo>
0.320 

> <ROCS_FitTversky>
1.824 

> <ROCS_FitColorTversky>
0.576 

> <ROCS_FitTverskyCombo>
2.399 

> <ROCS_ColorScore>
-4.357

> <ROCS_Overlap>
2338.421

> <ROCS_Rank>
122                 

$$$$
untitled-dbase-580_18
  -OEChem-02082415003D

 29 30  0     0  0  0  0  0  0999 V2000
   10.1632    9.2757   23.0551 C   0  0  0  0  0  0  0  0  0  0  0  0
    7.7747   11.6994   24.5639 C   0  0  0  0  0  0  0  0  0  0  0  0
    8.4252   10.5038   24.2591 C   0  0  0  0  0  0  0  0  0  0  0  0
    8.1967   12.8923   23.9769 C   0  0  0  0  0  0  0  0  0  0  0  0
    9.9198   11.6939   22.7803 C   0  0  0  0  0  0  0  0  0  0  0  0
    9.4978   10.5010   23.3674 C   0  0  0  0  0  0  0  0  0  0  0  0
    9.2692   12.8896   23.0851 C   0  0  0  0  0  0  0  0  0  0  0  0
    9.7058   14.1237   22.4791 C   0  0  0  0  0  0  0  0  0  0  0  0
   10.9592   15.7978   21.8997 C   0  0  0  0  0  0  0  0  0  0  0  0
   12.2291   12.3409   25.1541 C   0  0  0  0  0  0  0  0  0  0  0  0
   11.5836   13.3721   24.5978 C   0  0  0  0  0  0  0  0  0  0  0  0
   12.1360   16.6785   21.7909 C   0  0  0  0  0  0  0  0  0  0  0  0
   12.0587   14.0896   23.3729 C   0  0  0  0  0  0  0  0  0  0  0  0
   10.7036    8.2805   22.8014 N   0  0  0  0  0  0  0  0  0  0  0  0
    8.9825   14.9135   21.7178 N   0  0  0  0  0  0  0  0  0  0  0  0
    9.7799   15.9786   21.3493 N   0  0  0  0  0  0  0  0  0  0  0  0
   10.9573   14.6420   22.6201 N   0  0  0  0  0  0  0  0  0  0  0  0
    6.9398   11.7016   25.2585 H   0  0  0  0  0  0  0  0  0  0  0  0
    8.0846    9.5820   24.7248 H   0  0  0  0  0  0  0  0  0  0  0  0
    7.6794   13.8163   24.2252 H   0  0  0  0  0  0  0  0  0  0  0  0
   10.7569   11.6912   22.0837 H   0  0  0  0  0  0  0  0  0  0  0  0
   11.8509   11.8478   26.0428 H   0  0  0  0  0  0  0  0  0  0  0  0
   13.1543   11.9747   24.7228 H   0  0  0  0  0  0  0  0  0  0  0  0
   10.6675   13.7245   25.0653 H   0  0  0  0  0  0  0  0  0  0  0  0
   12.1452   17.4340   22.5946 H   0  0  0  0  0  0  0  0  0  0  0  0
   13.0840   16.1155   21.8517 H   0  0  0  0  0  0  0  0  0  0  0  0
   12.1649   17.2168   20.8271 H   0  0  0  0  0  0  0  0  0  0  0  0
   12.6247   13.4356   22.6988 H   0  0  0  0  0  0  0  0  0  0  0  0
   12.7231   14.9148   23.6539 H   0  0  0  0  0  0  0  0  0  0  0  0
  1  6  1  0  0  0  0
  1 14  3  0  0  0  0
  2  3  2  0  0  0  0
  2  4  1  0  0  0  0
  3  6  1  0  0  0  0
  4  7  2  0  0  0  0
  5  6  2  0  0  0  0
  5  7  1  0  0  0  0
  7  8  1  0  0  0  0
  8 15  2  0  0  0  0
  8 17  1  0  0  0  0
  9 12  1  0  0  0  0
  9 16  2  0  0  0  0
  9 17  1  0  0  0  0
 10 11  2  0  0  0  0
 11 13  1  0  0  0  0
 13 17  1  0  0  0  0
 15 16  1  0  0  0  0
  2 18  1  0  0  0  0
  3 19  1  0  0  0  0
  4 20  1  0  0  0  0
  5 21  1  0  0  0  0
 10 22  1  0  0  0  0
 10 23  1  0  0  0  0
 11 24  1  0  0  0  0
 12 25  1  0  0  0  0
 12 26  1  0  0  0  0
 12 27  1  0  0  0  0
 13 28  1  0  0  0  0
 13 29  1  0  0  0  0
M  END
> <Catalog ID>
Z1245829523

> <PlateID>
1337959-R-13

> <Well>
E09

> <MW (desalted)>
224.261

> <CLogP>
1.502

> <HBD>
0

> <TPSA>
54.500

> <RotBonds>
3

> <ROCS_ShapeQuery>
x0446_0A_x1080_0A_x0929_0A_x0812_0A_x0719_0A_x1140_0A_x0528_0A_x0310_0A

> <ROCS_TanimotoCombo>
0.330 

> <ROCS_ShapeTanimoto>
0.217 

> <ROCS_ColorTanimoto>
0.113 

> <ROCS_RefTversky>
0.199 

> <ROCS_RefColorTversky>
0.123 

> <ROCS_RefTverskyCombo>
0.322 

> <ROCS_FitTversky>
1.742 

> <ROCS_FitColorTversky>
0.561 

> <ROCS_FitTverskyCombo>
2.303 

> <ROCS_ColorScore>
-4.398

> <ROCS_Overlap>
2346.454

> <ROCS_Rank>
123                 

$$$$
untitled-dbase-534_5
  -OEChem-02082415003D

 31 32  0     0  0  0  0  0  0999 V2000
   11.9763   10.6095   23.6921 C   0  0  0  0  0  0  0  0  0  0  0  0
   11.9146   11.9790   23.4243 C   0  0  0  0  0  0  0  0  0  0  0  0
   10.8136    9.8711   23.9464 C   0  0  0  0  0  0  0  0  0  0  0  0
   10.6929   12.6597   23.4005 C   0  0  0  0  0  0  0  0  0  0  0  0
    9.5775   10.5389   23.9268 C   0  0  0  0  0  0  0  0  0  0  0  0
    9.5482   11.9042   23.6567 C   0  0  0  0  0  0  0  0  0  0  0  0
    7.5179   11.0969   24.0045 C   0  0  0  0  0  0  0  0  0  0  0  0
    8.9096   13.9524   21.3174 C   0  0  0  0  0  0  0  0  0  0  0  0
    6.9004   15.3276   21.8987 C   0  0  0  0  0  0  0  0  0  0  0  0
    6.0471   11.0937   24.1436 C   0  0  0  0  0  0  0  0  0  0  0  0
    7.6617   13.5511   23.4997 C   0  0  0  0  0  0  0  0  0  0  0  0
    7.5484   13.9466   22.0166 C   0  0  0  0  0  0  0  0  0  0  0  0
    8.3072   10.0550   24.1400 N   0  0  0  0  0  0  0  0  0  0  0  0
    8.2183   12.2343   23.7129 N   0  0  0  0  0  0  0  0  0  0  0  0
    5.6748   11.6855   25.3877 O   0  0  0  0  0  0  0  0  0  0  0  0
   12.9406   10.1081   23.7023 H   0  0  0  0  0  0  0  0  0  0  0  0
   12.8335   12.5273   23.2308 H   0  0  0  0  0  0  0  0  0  0  0  0
   10.8724    8.8074   24.1527 H   0  0  0  0  0  0  0  0  0  0  0  0
   10.6458   13.7226   23.1917 H   0  0  0  0  0  0  0  0  0  0  0  0
    9.5917   14.6586   21.8031 H   0  0  0  0  0  0  0  0  0  0  0  0
    9.3748   12.9613   21.3446 H   0  0  0  0  0  0  0  0  0  0  0  0
    8.8170   14.2576   20.2706 H   0  0  0  0  0  0  0  0  0  0  0  0
    7.5067   16.0867   22.4041 H   0  0  0  0  0  0  0  0  0  0  0  0
    6.8041   15.6235   20.8488 H   0  0  0  0  0  0  0  0  0  0  0  0
    5.9012   15.3379   22.3475 H   0  0  0  0  0  0  0  0  0  0  0  0
    5.5526   11.6598   23.3352 H   0  0  0  0  0  0  0  0  0  0  0  0
    5.6338   10.0707   24.1130 H   0  0  0  0  0  0  0  0  0  0  0  0
    8.2732   14.2747   24.0527 H   0  0  0  0  0  0  0  0  0  0  0  0
    6.6719   13.5480   23.9742 H   0  0  0  0  0  0  0  0  0  0  0  0
    6.9036   13.2272   21.4961 H   0  0  0  0  0  0  0  0  0  0  0  0
    4.7068   11.6573   25.4261 H   0  0  0  0  0  0  0  0  0  0  0  0
  1  2  2  0  0  0  0
  1  3  1  0  0  0  0
  2  4  1  0  0  0  0
  3  5  2  0  0  0  0
  4  6  2  0  0  0  0
  5  6  1  0  0  0  0
  5 13  1  0  0  0  0
  6 14  1  0  0  0  0
  7 10  1  0  0  0  0
  7 13  2  0  0  0  0
  7 14  1  0  0  0  0
  8 12  1  0  0  0  0
  9 12  1  0  0  0  0
 10 15  1  0  0  0  0
 11 12  1  0  0  0  0
 11 14  1  0  0  0  0
  1 16  1  0  0  0  0
  2 17  1  0  0  0  0
  3 18  1  0  0  0  0
  4 19  1  0  0  0  0
  8 20  1  0  0  0  0
  8 21  1  0  0  0  0
  8 22  1  0  0  0  0
  9 23  1  0  0  0  0
  9 24  1  0  0  0  0
  9 25  1  0  0  0  0
 10 26  1  0  0  0  0
 10 27  1  0  0  0  0
 11 28  1  0  0  0  0
 11 29  1  0  0  0  0
 12 30  1  0  0  0  0
 15 31  1  0  0  0  0
M  END
> <Catalog ID>
Z57299924

> <PlateID>
1337959-R-12

> <Well>
F03

> <MW (desalted)>
204.268

> <CLogP>
2.000

> <HBD>
1

> <TPSA>
38.050

> <RotBonds>
3

> <ROCS_ShapeQuery>
x0446_0A_x1080_0A_x0929_0A_x0812_0A_x0719_0A_x1140_0A_x0528_0A_x0310_0A

> <ROCS_TanimotoCombo>
0.330 

> <ROCS_ShapeTanimoto>
0.209 

> <ROCS_ColorTanimoto>
0.121 

> <ROCS_RefTversky>
0.191 

> <ROCS_RefColorTversky>
0.134 

> <ROCS_RefTverskyCombo>
0.325 

> <ROCS_FitTversky>
1.797 

> <ROCS_FitColorTversky>
0.559 

> <ROCS_FitTverskyCombo>
2.356 

> <ROCS_ColorScore>
-4.767

> <ROCS_Overlap>
2254.599

> <ROCS_Rank>
124                 

$$$$
untitled-dbase-146_0
  -OEChem-02082415003D

 28 30  0     1  0  0  0  0  0999 V2000
    5.6916   12.0935   25.3078 C   0  0  0  0  0  0  0  0  0  0  0  0
    6.0886   13.4212   25.1489 C   0  0  0  0  0  0  0  0  0  0  0  0
    6.5284   11.0577   24.8920 C   0  0  0  0  0  0  0  0  0  0  0  0
    7.3202   13.7180   24.5646 C   0  0  0  0  0  0  0  0  0  0  0  0
    7.7625   11.3590   24.3099 C   0  0  0  0  0  0  0  0  0  0  0  0
    8.1545   12.6864   24.1304 C   0  0  0  0  0  0  0  0  0  0  0  0
    8.6866   10.2802   23.9167 C   0  0  0  0  0  0  0  0  0  0  0  0
   10.0494   10.7203   23.4540 C   0  0  0  0  0  0  0  0  0  0  0  0
    9.2743   11.9921   21.3469 C   0  0  0  0  0  0  0  0  0  0  0  0
   10.1180   12.8760   20.4306 C   0  0  0  0  0  0  0  0  0  0  0  0
   11.3567   12.5808   22.3788 C   0  0  0  0  0  0  0  0  0  0  0  0
    9.9592   12.0587   22.7243 C   0  0  2  0  0  0  0  0  0  0  0  0
   11.0921   13.5304   21.2981 N   0  0  0  0  0  0  0  0  0  0  0  0
    8.3762    9.1000   24.0248 O   0  0  0  0  0  0  0  0  0  0  0  0
    9.3372   13.0609   23.5514 O   0  0  0  0  0  0  0  0  0  0  0  0
    4.7323   11.8656   25.7634 H   0  0  0  0  0  0  0  0  0  0  0  0
    5.4375   14.2253   25.4793 H   0  0  0  0  0  0  0  0  0  0  0  0
    6.2085   10.0301   25.0397 H   0  0  0  0  0  0  0  0  0  0  0  0
    7.6177   14.7559   24.4403 H   0  0  0  0  0  0  0  0  0  0  0  0
   10.6812   10.8015   24.3470 H   0  0  0  0  0  0  0  0  0  0  0  0
   10.4684    9.9477   22.7996 H   0  0  0  0  0  0  0  0  0  0  0  0
    8.2423   12.3570   21.3771 H   0  0  0  0  0  0  0  0  0  0  0  0
    9.2650   10.9703   20.9502 H   0  0  0  0  0  0  0  0  0  0  0  0
   10.6290   12.2603   19.6811 H   0  0  0  0  0  0  0  0  0  0  0  0
    9.5066   13.6138   19.9025 H   0  0  0  0  0  0  0  0  0  0  0  0
   11.8366   13.0899   23.2205 H   0  0  0  0  0  0  0  0  0  0  0  0
   12.0150   11.7806   22.0194 H   0  0  0  0  0  0  0  0  0  0  0  0
   11.9453   13.7487   20.7869 H   0  0  0  0  0  0  0  0  0  0  0  0
  1  2  2  0  0  0  0
  1  3  1  0  0  0  0
  2  4  1  0  0  0  0
  3  5  2  0  0  0  0
  4  6  2  0  0  0  0
  5  6  1  0  0  0  0
  5  7  1  0  0  0  0
  6 15  1  0  0  0  0
  7  8  1  0  0  0  0
  7 14  2  0  0  0  0
  8 12  1  0  0  0  0
  9 10  1  0  0  0  0
  9 12  1  0  0  0  0
 10 13  1  0  0  0  0
 11 12  1  0  0  0  0
 11 13  1  0  0  0  0
 12 15  1  0  0  0  0
  1 16  1  0  0  0  0
  2 17  1  0  0  0  0
  3 18  1  0  0  0  0
  4 19  1  0  0  0  0
  8 20  1  0  0  0  0
  8 21  1  0  0  0  0
  9 22  1  0  0  0  0
  9 23  1  0  0  0  0
 10 24  1  0  0  0  0
 10 25  1  0  0  0  0
 11 26  1  0  0  0  0
 11 27  1  0  0  0  0
 13 28  1  0  0  0  0
M  END
> <Catalog ID>
Z1681343197

> <PlateID>
1337959-R-03

> <Well>
H06

> <MW (desalted)>
203.237

> <CLogP>
1.130

> <HBD>
1

> <TPSA>
38.330

> <RotBonds>
0

> <ROCS_ShapeQuery>
x0446_0A_x1080_0A_x0929_0A_x0812_0A_x0719_0A_x1140_0A_x0528_0A_x0310_0A

> <ROCS_TanimotoCombo>
0.329 

> <ROCS_ShapeTanimoto>
0.213 

> <ROCS_ColorTanimoto>
0.117 

> <ROCS_RefTversky>
0.194 

> <ROCS_RefColorTversky>
0.129 

> <ROCS_RefTverskyCombo>
0.324 

> <ROCS_FitTversky>
1.797 

> <ROCS_FitColorTversky>
0.542 

> <ROCS_FitTverskyCombo>
2.340 

> <ROCS_ColorScore>
-4.618

> <ROCS_Overlap>
2294.208

> <ROCS_Rank>
125                 

$$$$
untitled-dbase-624_5
  -OEChem-02082415003D

 29 30  0     1  0  0  0  0  0999 V2000
   12.0504   12.3009   23.2215 C   0  0  0  0  0  0  0  0  0  0  0  0
   11.7696   10.9353   23.2647 C   0  0  0  0  0  0  0  0  0  0  0  0
    7.4330   11.3653   26.0395 C   0  0  0  0  0  0  0  0  0  0  0  0
    8.0330   12.4086   25.3432 C   0  0  0  0  0  0  0  0  0  0  0  0
   11.0390   13.2116   22.9160 C   0  0  0  0  0  0  0  0  0  0  0  0
   10.4773   10.4804   23.0023 C   0  0  0  0  0  0  0  0  0  0  0  0
    6.0599   11.2164   25.9283 C   0  0  0  0  0  0  0  0  0  0  0  0
    5.8877   13.0252   24.5223 C   0  0  0  0  0  0  0  0  0  0  0  0
    7.2527   13.2590   24.5678 C   0  0  0  0  0  0  0  0  0  0  0  0
    9.7468   12.7568   22.6536 C   0  0  0  0  0  0  0  0  0  0  0  0
    9.4659   11.3911   22.6968 C   0  0  0  0  0  0  0  0  0  0  0  0
    8.5736   15.3723   24.6344 C   0  0  0  0  0  0  0  0  0  0  0  0
    5.2690   12.0224   25.1850 N   0  0  0  0  0  0  0  0  0  0  0  0
    7.8491   14.3543   23.8286 N   0  0  1  0  0  0  0  0  0  0  0  0
    9.1866   15.1210   21.7329 O   0  0  0  0  0  0  0  0  0  0  0  0
    7.4968   13.2909   21.4683 O   0  0  0  0  0  0  0  0  0  0  0  0
    8.5165   13.9466   22.2775 S   0  0  0  0  0  0  0  0  0  0  0  0
    7.8837   10.7760   22.3799 Cl  0  0  0  0  0  0  0  0  0  0  0  0
   13.0564   12.6551   23.4266 H   0  0  0  0  0  0  0  0  0  0  0  0
   12.5570   10.2264   23.5031 H   0  0  0  0  0  0  0  0  0  0  0  0
    8.0213   10.6898   26.6497 H   0  0  0  0  0  0  0  0  0  0  0  0
    9.1083   12.5492   25.4098 H   0  0  0  0  0  0  0  0  0  0  0  0
   11.2718   14.2728   22.8863 H   0  0  0  0  0  0  0  0  0  0  0  0
   10.2760    9.4128   23.0405 H   0  0  0  0  0  0  0  0  0  0  0  0
    5.5438   10.4180   26.4512 H   0  0  0  0  0  0  0  0  0  0  0  0
    5.2277   13.6544   23.9325 H   0  0  0  0  0  0  0  0  0  0  0  0
    8.9794   16.1474   23.9677 H   0  0  0  0  0  0  0  0  0  0  0  0
    7.8794   15.8332   25.3525 H   0  0  0  0  0  0  0  0  0  0  0  0
    9.3980   14.8894   25.1795 H   0  0  0  0  0  0  0  0  0  0  0  0
  1  2  2  0  0  0  0
  1  5  1  0  0  0  0
  2  6  1  0  0  0  0
  3  4  1  0  0  0  0
  3  7  2  0  0  0  0
  4  9  2  0  0  0  0
  5 10  2  0  0  0  0
  6 11  2  0  0  0  0
  7 13  1  0  0  0  0
  8  9  1  0  0  0  0
  8 13  2  0  0  0  0
  9 14  1  0  0  0  0
 10 11  1  0  0  0  0
 10 17  1  0  0  0  0
 11 18  1  0  0  0  0
 12 14  1  0  0  0  0
 14 17  1  0  0  0  0
 15 17  2  0  0  0  0
 16 17  2  0  0  0  0
  1 19  1  0  0  0  0
  2 20  1  0  0  0  0
  3 21  1  0  0  0  0
  4 22  1  0  0  0  0
  5 23  1  0  0  0  0
  6 24  1  0  0  0  0
  7 25  1  0  0  0  0
  8 26  1  0  0  0  0
 12 27  1  0  0  0  0
 12 28  1  0  0  0  0
 12 29  1  0  0  0  0
M  END
> <Catalog ID>
Z1190187691

> <PlateID>
1337959-R-14

> <Well>
G02

> <MW (desalted)>
282.746

> <CLogP>
2.261

> <HBD>
0

> <TPSA>
50.270

> <RotBonds>
2

> <ROCS_ShapeQuery>
x0446_0A_x1080_0A_x0929_0A_x0812_0A_x0719_0A_x1140_0A_x0528_0A_x0310_0A

> <ROCS_TanimotoCombo>
0.329 

> <ROCS_ShapeTanimoto>
0.202 

> <ROCS_ColorTanimoto>
0.127 

> <ROCS_RefTversky>
0.188 

> <ROCS_RefColorTversky>
0.137 

> <ROCS_RefTverskyCombo>
0.324 

> <ROCS_FitTversky>
1.634 

> <ROCS_FitColorTversky>
0.644 

> <ROCS_FitTverskyCombo>
2.278 

> <ROCS_ColorScore>
-4.868

> <ROCS_Overlap>
2214.425

> <ROCS_Rank>
126                 

$$$$
untitled-dbase-440_188
  -OEChem-02082415003D

 35 36  0     1  0  0  0  0  0999 V2000
    6.0454   13.4116   24.5116 C   0  0  0  0  0  0  0  0  0  0  0  0
    6.0027   12.4696   25.5394 C   0  0  0  0  0  0  0  0  0  0  0  0
    6.9000   13.2208   23.4257 C   0  0  0  0  0  0  0  0  0  0  0  0
    6.8146   11.3368   25.4814 C   0  0  0  0  0  0  0  0  0  0  0  0
    7.7118   12.0880   23.3677 C   0  0  0  0  0  0  0  0  0  0  0  0
    7.6692   11.1460   24.3956 C   0  0  0  0  0  0  0  0  0  0  0  0
   10.5155   13.2583   23.0480 C   0  0  0  0  0  0  0  0  0  0  0  0
   12.9404   16.0904   22.8678 C   0  0  0  0  0  0  0  0  0  0  0  0
   12.6317   15.7868   21.4058 C   0  0  0  0  0  0  0  0  0  0  0  0
   12.4182   14.8651   23.6015 C   0  0  0  0  0  0  0  0  0  0  0  0
   11.3026   15.0323   21.4662 C   0  0  2  0  0  0  0  0  0  0  0  0
    8.6302   11.8861   22.1972 C   0  0  0  0  0  0  0  0  0  0  0  0
   10.1035   15.9761   21.3893 C   0  0  0  0  0  0  0  0  0  0  0  0
   11.3513   14.3365   22.7538 N   0  0  0  0  0  0  0  0  0  0  0  0
    9.5790   12.9670   22.0619 N   0  0  0  0  0  0  0  0  0  0  0  0
   10.5969   12.6157   24.0985 O   0  0  0  0  0  0  0  0  0  0  0  0
    8.9198   15.2021   21.4403 O   0  0  0  0  0  0  0  0  0  0  0  0
    8.4453   10.0544   24.3486 F   0  0  0  0  0  0  0  0  0  0  0  0
    5.4136   14.2941   24.5569 H   0  0  0  0  0  0  0  0  0  0  0  0
    5.3378   12.6184   26.3851 H   0  0  0  0  0  0  0  0  0  0  0  0
    6.9269   13.9604   22.6299 H   0  0  0  0  0  0  0  0  0  0  0  0
    6.7813   10.6029   26.2814 H   0  0  0  0  0  0  0  0  0  0  0  0
   14.0077   16.2564   23.0397 H   0  0  0  0  0  0  0  0  0  0  0  0
   12.3970   16.9858   23.1912 H   0  0  0  0  0  0  0  0  0  0  0  0
   12.5927   16.6942   20.7957 H   0  0  0  0  0  0  0  0  0  0  0  0
   13.4110   15.1328   20.9956 H   0  0  0  0  0  0  0  0  0  0  0  0
   13.1908   14.0936   23.6912 H   0  0  0  0  0  0  0  0  0  0  0  0
   12.0364   15.1083   24.5973 H   0  0  0  0  0  0  0  0  0  0  0  0
   11.2296   14.2969   20.6569 H   0  0  0  0  0  0  0  0  0  0  0  0
    9.1945   10.9535   22.3056 H   0  0  0  0  0  0  0  0  0  0  0  0
    8.0652   11.8175   21.2617 H   0  0  0  0  0  0  0  0  0  0  0  0
   10.1313   16.5337   20.4541 H   0  0  0  0  0  0  0  0  0  0  0  0
   10.1213   16.6661   22.2319 H   0  0  0  0  0  0  0  0  0  0  0  0
    9.5146   13.5464   21.2328 H   0  0  0  0  0  0  0  0  0  0  0  0
    8.1710   15.8208   21.3901 H   0  0  0  0  0  0  0  0  0  0  0  0
  1  2  2  0  0  0  0
  1  3  1  0  0  0  0
  2  4  1  0  0  0  0
  3  5  2  0  0  0  0
  4  6  2  0  0  0  0
  5  6  1  0  0  0  0
  5 12  1  0  0  0  0
  6 18  1  0  0  0  0
  7 14  1  0  0  0  0
  7 15  1  0  0  0  0
  7 16  2  0  0  0  0
  8  9  1  0  0  0  0
  8 10  1  0  0  0  0
  9 11  1  0  0  0  0
 10 14  1  0  0  0  0
 11 13  1  1  0  0  0
 11 14  1  0  0  0  0
 12 15  1  0  0  0  0
 13 17  1  0  0  0  0
  1 19  1  0  0  0  0
  2 20  1  0  0  0  0
  3 21  1  0  0  0  0
  4 22  1  0  0  0  0
  8 23  1  0  0  0  0
  8 24  1  0  0  0  0
  9 25  1  0  0  0  0
  9 26  1  0  0  0  0
 10 27  1  0  0  0  0
 10 28  1  0  0  0  0
 11 29  1  0  0  0  0
 12 30  1  0  0  0  0
 12 31  1  0  0  0  0
 13 32  1  0  0  0  0
 13 33  1  0  0  0  0
 15 34  1  0  0  0  0
 17 35  1  0  0  0  0
M  END
> <Catalog ID>
Z933723030

> <PlateID>
1337959-R-10

> <Well>
D04

> <MW (desalted)>
252.285

> <CLogP>
1.560

> <HBD>
2

> <TPSA>
52.570

> <RotBonds>
3

> <ROCS_ShapeQuery>
x0446_0A_x1080_0A_x0929_0A_x0812_0A_x0719_0A_x1140_0A_x0528_0A_x0310_0A

> <ROCS_TanimotoCombo>
0.329 

> <ROCS_ShapeTanimoto>
0.210 

> <ROCS_ColorTanimoto>
0.119 

> <ROCS_RefTversky>
0.194 

> <ROCS_RefColorTversky>
0.129 

> <ROCS_RefTverskyCombo>
0.323 

> <ROCS_FitTversky>
1.668 

> <ROCS_FitColorTversky>
0.607 

> <ROCS_FitTverskyCombo>
2.275 

> <ROCS_ColorScore>
-4.588

> <ROCS_Overlap>
2290.087

> <ROCS_Rank>
127                 

$$$$
untitled-dbase-359_4
  -OEChem-02082415003D

 29 30  0     0  0  0  0  0  0999 V2000
    7.0568   12.3717   26.7781 C   0  0  0  0  0  0  0  0  0  0  0  0
   11.7277   11.9995   23.5924 C   0  0  0  0  0  0  0  0  0  0  0  0
    7.6396   13.3336   25.9605 C   0  0  0  0  0  0  0  0  0  0  0  0
   10.8594   13.0082   23.1750 C   0  0  0  0  0  0  0  0  0  0  0  0
    9.0906   11.3816   22.9240 C   0  0  0  0  0  0  0  0  0  0  0  0
    6.0141   11.6229   26.2567 C   0  0  0  0  0  0  0  0  0  0  0  0
    6.1211   12.7144   24.2380 C   0  0  0  0  0  0  0  0  0  0  0  0
   11.2775   10.6819   23.6755 C   0  0  0  0  0  0  0  0  0  0  0  0
    7.1687   13.5146   24.6649 C   0  0  0  0  0  0  0  0  0  0  0  0
    9.9590   10.3730   23.3414 C   0  0  0  0  0  0  0  0  0  0  0  0
    9.5408   12.6993   22.8408 C   0  0  0  0  0  0  0  0  0  0  0  0
   12.2087    9.6060   24.1229 C   0  0  0  0  0  0  0  0  0  0  0  0
    5.5295   11.7699   25.0033 N   0  0  0  0  0  0  0  0  0  0  0  0
    7.7523   14.4998   23.7948 N   0  0  0  0  0  0  0  0  0  0  0  0
    7.4059   13.3415   21.5160 O   0  0  0  0  0  0  0  0  0  0  0  0
    9.2414   15.0399   21.7295 O   0  0  0  0  0  0  0  0  0  0  0  0
    9.5175    9.1098   23.4171 F   0  0  0  0  0  0  0  0  0  0  0  0
    8.4551   13.9617   22.3165 S   0  0  0  0  0  0  0  0  0  0  0  0
    7.4077   12.2128   27.7912 H   0  0  0  0  0  0  0  0  0  0  0  0
   12.7529   12.2503   23.8518 H   0  0  0  0  0  0  0  0  0  0  0  0
    8.4604   13.9349   26.3414 H   0  0  0  0  0  0  0  0  0  0  0  0
   11.2203   14.0313   23.1137 H   0  0  0  0  0  0  0  0  0  0  0  0
    8.0656   11.1297   22.6659 H   0  0  0  0  0  0  0  0  0  0  0  0
    5.5260   10.8595   26.8537 H   0  0  0  0  0  0  0  0  0  0  0  0
    5.7124   12.8083   23.2362 H   0  0  0  0  0  0  0  0  0  0  0  0
   12.1622    9.4895   25.2125 H   0  0  0  0  0  0  0  0  0  0  0  0
   11.9576    8.6435   23.6589 H   0  0  0  0  0  0  0  0  0  0  0  0
   13.2450    9.8337   23.8411 H   0  0  0  0  0  0  0  0  0  0  0  0
    8.2452   15.2626   24.2774 H   0  0  0  0  0  0  0  0  0  0  0  0
  1  3  1  0  0  0  0
  1  6  2  0  0  0  0
  2  4  1  0  0  0  0
  2  8  2  0  0  0  0
  3  9  2  0  0  0  0
  4 11  2  0  0  0  0
  5 10  2  0  0  0  0
  5 11  1  0  0  0  0
  6 13  1  0  0  0  0
  7  9  1  0  0  0  0
  7 13  2  0  0  0  0
  8 10  1  0  0  0  0
  8 12  1  0  0  0  0
  9 14  1  0  0  0  0
 10 17  1  0  0  0  0
 11 18  1  0  0  0  0
 14 18  1  0  0  0  0
 15 18  2  0  0  0  0
 16 18  2  0  0  0  0
  1 19  1  0  0  0  0
  2 20  1  0  0  0  0
  3 21  1  0  0  0  0
  4 22  1  0  0  0  0
  5 23  1  0  0  0  0
  6 24  1  0  0  0  0
  7 25  1  0  0  0  0
 12 26  1  0  0  0  0
 12 27  1  0  0  0  0
 12 28  1  0  0  0  0
 14 29  1  0  0  0  0
M  END
> <Catalog ID>
Z1138600552

> <PlateID>
1337959-R-08

> <Well>
G08

> <MW (desalted)>
266.291

> <CLogP>
2.461

> <HBD>
1

> <TPSA>
59.060

> <RotBonds>
2

> <ROCS_ShapeQuery>
x0446_0A_x1080_0A_x0929_0A_x0812_0A_x0719_0A_x1140_0A_x0528_0A_x0310_0A

> <ROCS_TanimotoCombo>
0.329 

> <ROCS_ShapeTanimoto>
0.202 

> <ROCS_ColorTanimoto>
0.127 

> <ROCS_RefTversky>
0.187 

> <ROCS_RefColorTversky>
0.137 

> <ROCS_RefTverskyCombo>
0.324 

> <ROCS_FitTversky>
1.616 

> <ROCS_FitColorTversky>
0.646 

> <ROCS_FitTverskyCombo>
2.262 

> <ROCS_ColorScore>
-4.882

> <ROCS_Overlap>
2208.539

> <ROCS_Rank>
128                 

$$$$
untitled-dbase-385_13
  -OEChem-02082415003D

 30 30  0     0  0  0  0  0  0999 V2000
    8.1866   12.3348   23.9431 C   0  0  0  0  0  0  0  0  0  0  0  0
    9.1859    9.7417   23.6977 C   0  0  0  0  0  0  0  0  0  0  0  0
    7.3508   11.2411   24.1684 C   0  0  0  0  0  0  0  0  0  0  0  0
   10.0217   10.8355   23.4723 C   0  0  0  0  0  0  0  0  0  0  0  0
    9.5221   12.1320   23.5949 C   0  0  0  0  0  0  0  0  0  0  0  0
    7.8504    9.9446   24.0458 C   0  0  0  0  0  0  0  0  0  0  0  0
    5.9263   11.5003   24.5399 C   0  0  0  0  0  0  0  0  0  0  0  0
   11.4467   10.5841   23.1013 C   0  0  0  0  0  0  0  0  0  0  0  0
    9.8384   13.3896   20.6605 C   0  0  0  0  0  0  0  0  0  0  0  0
    9.5937   14.8105   20.1864 C   0  0  0  0  0  0  0  0  0  0  0  0
   10.9171   13.3819   21.6590 N   0  0  0  0  0  0  0  0  0  0  0  0
    9.7481   14.7306   23.5168 O   0  0  0  0  0  0  0  0  0  0  0  0
   11.7626   13.3391   24.0913 O   0  0  0  0  0  0  0  0  0  0  0  0
    9.1849   15.6119   21.2876 O   0  0  0  0  0  0  0  0  0  0  0  0
   10.5428   13.5266   23.3195 S   0  0  0  0  0  0  0  0  0  0  0  0
    6.8456    8.5675   24.3168 Cl  0  0  0  0  0  0  0  0  0  0  0  0
    7.7958   13.3452   24.0392 H   0  0  0  0  0  0  0  0  0  0  0  0
    9.5811    8.7329   23.6008 H   0  0  0  0  0  0  0  0  0  0  0  0
    5.3051   11.5600   23.6392 H   0  0  0  0  0  0  0  0  0  0  0  0
    5.5347   10.7039   25.1838 H   0  0  0  0  0  0  0  0  0  0  0  0
    5.8280   12.4399   25.0967 H   0  0  0  0  0  0  0  0  0  0  0  0
   11.5487   10.5140   22.0123 H   0  0  0  0  0  0  0  0  0  0  0  0
   12.0980   11.3894   23.4626 H   0  0  0  0  0  0  0  0  0  0  0  0
   11.8136    9.6518   23.5480 H   0  0  0  0  0  0  0  0  0  0  0  0
    8.9410   12.9651   21.1217 H   0  0  0  0  0  0  0  0  0  0  0  0
   10.1445   12.7560   19.8227 H   0  0  0  0  0  0  0  0  0  0  0  0
    8.7913   14.8243   19.4423 H   0  0  0  0  0  0  0  0  0  0  0  0
   10.4955   15.2493   19.7472 H   0  0  0  0  0  0  0  0  0  0  0  0
   11.7791   12.8935   21.3874 H   0  0  0  0  0  0  0  0  0  0  0  0
    9.0397   16.5076   20.9427 H   0  0  0  0  0  0  0  0  0  0  0  0
  1  3  2  0  0  0  0
  1  5  1  0  0  0  0
  2  4  1  0  0  0  0
  2  6  2  0  0  0  0
  3  6  1  0  0  0  0
  3  7  1  0  0  0  0
  4  5  2  0  0  0  0
  4  8  1  0  0  0  0
  5 15  1  0  0  0  0
  6 16  1  0  0  0  0
  9 10  1  0  0  0  0
  9 11  1  0  0  0  0
 10 14  1  0  0  0  0
 11 15  1  0  0  0  0
 12 15  2  0  0  0  0
 13 15  2  0  0  0  0
  1 17  1  0  0  0  0
  2 18  1  0  0  0  0
  7 19  1  0  0  0  0
  7 20  1  0  0  0  0
  7 21  1  0  0  0  0
  8 22  1  0  0  0  0
  8 23  1  0  0  0  0
  8 24  1  0  0  0  0
  9 25  1  0  0  0  0
  9 26  1  0  0  0  0
 10 27  1  0  0  0  0
 10 28  1  0  0  0  0
 11 29  1  0  0  0  0
 14 30  1  0  0  0  0
M  END
> <Catalog ID>
Z1354597695

> <PlateID>
1337959-R-09

> <Well>
C02

> <MW (desalted)>
263.741

> <CLogP>
2.358

> <HBD>
2

> <TPSA>
66.400

> <RotBonds>
3

> <ROCS_ShapeQuery>
x0446_0A_x1080_0A_x0929_0A_x0812_0A_x0719_0A_x1140_0A_x0528_0A_x0310_0A

> <ROCS_TanimotoCombo>
0.329 

> <ROCS_ShapeTanimoto>
0.198 

> <ROCS_ColorTanimoto>
0.130 

> <ROCS_RefTversky>
0.183 

> <ROCS_RefColorTversky>
0.140 

> <ROCS_RefTverskyCombo>
0.323 

> <ROCS_FitTversky>
1.740 

> <ROCS_FitColorTversky>
0.659 

> <ROCS_FitTverskyCombo>
2.399 

> <ROCS_ColorScore>
-4.982

> <ROCS_Overlap>
2156.725

> <ROCS_Rank>
129                 

$$$$
untitled-dbase-678_42
  -OEChem-02082415003D

 30 31  0     0  0  0  0  0  0999 V2000
    6.3688   11.5640   25.0738 C   0  0  0  0  0  0  0  0  0  0  0  0
    8.6573    9.2804   23.2287 C   0  0  0  0  0  0  0  0  0  0  0  0
    7.5608    9.7461   23.9541 C   0  0  0  0  0  0  0  0  0  0  0  0
    9.6857   10.1560   22.8800 C   0  0  0  0  0  0  0  0  0  0  0  0
    8.5208   11.9631   23.9820 C   0  0  0  0  0  0  0  0  0  0  0  0
    7.4925   11.0874   24.3307 C   0  0  0  0  0  0  0  0  0  0  0  0
   10.7271   14.7983   22.6504 C   0  0  0  0  0  0  0  0  0  0  0  0
    9.6174   11.4973   23.2566 C   0  0  0  0  0  0  0  0  0  0  0  0
    9.5962   15.1812   21.9085 C   0  0  0  0  0  0  0  0  0  0  0  0
   11.6616   15.7481   22.3332 C   0  0  0  0  0  0  0  0  0  0  0  0
    8.2797   14.5234   21.8556 C   0  0  0  0  0  0  0  0  0  0  0  0
   13.0562   15.9794   22.7314 C   0  0  0  0  0  0  0  0  0  0  0  0
   10.8809   13.6252   23.5748 C   0  0  0  0  0  0  0  0  0  0  0  0
    5.4563   11.9510   25.6774 N   0  0  0  0  0  0  0  0  0  0  0  0
    9.8129   16.2841   21.1865 N   0  0  0  0  0  0  0  0  0  0  0  0
   10.6574   12.3821   22.9037 N   0  0  0  0  0  0  0  0  0  0  0  0
   11.1279   16.6405   21.4603 O   0  0  0  0  0  0  0  0  0  0  0  0
    8.7106    8.2360   22.9354 H   0  0  0  0  0  0  0  0  0  0  0  0
    6.7671    9.0514   24.2184 H   0  0  0  0  0  0  0  0  0  0  0  0
   10.5356    9.7823   22.3146 H   0  0  0  0  0  0  0  0  0  0  0  0
    8.4716   13.0104   24.2738 H   0  0  0  0  0  0  0  0  0  0  0  0
    7.6008   14.9228   22.6285 H   0  0  0  0  0  0  0  0  0  0  0  0
    7.7851   14.6582   20.8771 H   0  0  0  0  0  0  0  0  0  0  0  0
    8.3524   13.4317   22.0090 H   0  0  0  0  0  0  0  0  0  0  0  0
   13.7612   15.4647   22.0539 H   0  0  0  0  0  0  0  0  0  0  0  0
   13.3224   17.0531   22.7290 H   0  0  0  0  0  0  0  0  0  0  0  0
   13.2659   15.6224   23.7573 H   0  0  0  0  0  0  0  0  0  0  0  0
   11.8888   13.6008   24.0032 H   0  0  0  0  0  0  0  0  0  0  0  0
   10.1742   13.6870   24.4090 H   0  0  0  0  0  0  0  0  0  0  0  0
   11.2517   12.1054   22.1452 H   0  0  0  0  0  0  0  0  0  0  0  0
  1  6  1  0  0  0  0
  1 14  3  0  0  0  0
  2  3  2  0  0  0  0
  2  4  1  0  0  0  0
  3  6  1  0  0  0  0
  4  8  2  0  0  0  0
  5  6  2  0  0  0  0
  5  8  1  0  0  0  0
  7  9  1  0  0  0  0
  7 10  2  0  0  0  0
  7 13  1  0  0  0  0
  8 16  1  0  0  0  0
  9 11  1  0  0  0  0
  9 15  2  0  0  0  0
 10 12  1  0  0  0  0
 10 17  1  0  0  0  0
 13 16  1  0  0  0  0
 15 17  1  0  0  0  0
  2 18  1  0  0  0  0
  3 19  1  0  0  0  0
  4 20  1  0  0  0  0
  5 21  1  0  0  0  0
 11 22  1  0  0  0  0
 11 23  1  0  0  0  0
 11 24  1  0  0  0  0
 12 25  1  0  0  0  0
 12 26  1  0  0  0  0
 12 27  1  0  0  0  0
 13 28  1  0  0  0  0
 13 29  1  0  0  0  0
 16 30  1  0  0  0  0
M  END
> <Catalog ID>
Z138662256

> <PlateID>
1337959-R-15

> <Well>
G11

> <MW (desalted)>
227.262

> <CLogP>
1.641

> <HBD>
1

> <TPSA>
61.850

> <RotBonds>
3

> <ROCS_ShapeQuery>
x0446_0A_x1080_0A_x0929_0A_x0812_0A_x0719_0A_x1140_0A_x0528_0A_x0310_0A

> <ROCS_TanimotoCombo>
0.329 

> <ROCS_ShapeTanimoto>
0.215 

> <ROCS_ColorTanimoto>
0.114 

> <ROCS_RefTversky>
0.197 

> <ROCS_RefColorTversky>
0.121 

> <ROCS_RefTverskyCombo>
0.318 

> <ROCS_FitTversky>
1.736 

> <ROCS_FitColorTversky>
0.653 

> <ROCS_FitTverskyCombo>
2.389 

> <ROCS_ColorScore>
-4.315

> <ROCS_Overlap>
2322.093

> <ROCS_Rank>
130                 

$$$$
untitled-dbase-598_57
  -OEChem-02082415003D

 30 31  0     0  0  0  0  0  0999 V2000
   13.1666   15.3034   22.9255 C   0  0  0  0  0  0  0  0  0  0  0  0
   13.0933   15.0659   21.5530 C   0  0  0  0  0  0  0  0  0  0  0  0
   11.9990   15.3610   23.6866 C   0  0  0  0  0  0  0  0  0  0  0  0
   11.8526   14.8861   20.9415 C   0  0  0  0  0  0  0  0  0  0  0  0
   10.7583   15.1812   23.0752 C   0  0  0  0  0  0  0  0  0  0  0  0
   10.6850   14.9437   21.7026 C   0  0  0  0  0  0  0  0  0  0  0  0
    9.2511   12.8156   24.1451 C   0  0  0  0  0  0  0  0  0  0  0  0
    8.5374   10.3802   24.3863 C   0  0  0  0  0  0  0  0  0  0  0  0
    9.5490   11.3531   22.3493 C   0  0  0  0  0  0  0  0  0  0  0  0
    8.6503   11.7356   25.0079 C   0  0  0  0  0  0  0  0  0  0  0  0
    9.5300   14.1938   26.1654 C   0  0  0  0  0  0  0  0  0  0  0  0
    9.5256   15.2528   23.9293 C   0  0  0  0  0  0  0  0  0  0  0  0
    9.6512   12.5963   22.9279 N   0  0  0  0  0  0  0  0  0  0  0  0
    9.0035   10.3081   23.0904 N   0  0  0  0  0  0  0  0  0  0  0  0
    9.3492   14.0539   24.7307 N   0  0  0  0  0  0  0  0  0  0  0  0
    8.0654    9.4226   24.9959 O   0  0  0  0  0  0  0  0  0  0  0  0
    9.9285   11.1473   21.1948 O   0  0  0  0  0  0  0  0  0  0  0  0
    9.1681   14.7163   20.9112 Cl  0  0  0  0  0  0  0  0  0  0  0  0
   14.1329   15.4425   23.4016 H   0  0  0  0  0  0  0  0  0  0  0  0
   14.0027   15.0199   20.9609 H   0  0  0  0  0  0  0  0  0  0  0  0
   12.0674   15.5462   24.7554 H   0  0  0  0  0  0  0  0  0  0  0  0
   11.8128   14.7007   19.8711 H   0  0  0  0  0  0  0  0  0  0  0  0
    9.2615   11.6423   25.9129 H   0  0  0  0  0  0  0  0  0  0  0  0
    7.6446   12.0556   25.3036 H   0  0  0  0  0  0  0  0  0  0  0  0
   10.6045   14.2080   26.4004 H   0  0  0  0  0  0  0  0  0  0  0  0
    9.0685   15.1335   26.5031 H   0  0  0  0  0  0  0  0  0  0  0  0
    9.0536   13.3459   26.6793 H   0  0  0  0  0  0  0  0  0  0  0  0
    9.5770   16.1092   24.6104 H   0  0  0  0  0  0  0  0  0  0  0  0
    8.6283   15.3796   23.3145 H   0  0  0  0  0  0  0  0  0  0  0  0
    8.9458    9.4039   22.6305 H   0  0  0  0  0  0  0  0  0  0  0  0
  1  2  1  0  0  0  0
  1  3  2  0  0  0  0
  2  4  2  0  0  0  0
  3  5  1  0  0  0  0
  4  6  1  0  0  0  0
  5  6  2  0  0  0  0
  5 12  1  0  0  0  0
  6 18  1  0  0  0  0
  7 10  1  0  0  0  0
  7 13  2  0  0  0  0
  7 15  1  0  0  0  0
  8 10  1  0  0  0  0
  8 14  1  0  0  0  0
  8 16  2  0  0  0  0
  9 13  1  0  0  0  0
  9 14  1  0  0  0  0
  9 17  2  0  0  0  0
 11 15  1  0  0  0  0
 12 15  1  0  0  0  0
  1 19  1  0  0  0  0
  2 20  1  0  0  0  0
  3 21  1  0  0  0  0
  4 22  1  0  0  0  0
 10 23  1  0  0  0  0
 10 24  1  0  0  0  0
 11 25  1  0  0  0  0
 11 26  1  0  0  0  0
 11 27  1  0  0  0  0
 12 28  1  0  0  0  0
 12 29  1  0  0  0  0
 14 30  1  0  0  0  0
M  END
> <Catalog ID>
Z1640901244

> <PlateID>
1337959-R-13

> <Well>
H07

> <MW (desalted)>
265.696

> <CLogP>
1.895

> <HBD>
2

> <TPSA>
61.440

> <RotBonds>
3

> <ROCS_ShapeQuery>
x0446_0A_x1080_0A_x0929_0A_x0812_0A_x0719_0A_x1140_0A_x0528_0A_x0310_0A

> <ROCS_TanimotoCombo>
0.328 

> <ROCS_ShapeTanimoto>
0.194 

> <ROCS_ColorTanimoto>
0.135 

> <ROCS_RefTversky>
0.181 

> <ROCS_RefColorTversky>
0.144 

> <ROCS_RefTverskyCombo>
0.325 

> <ROCS_FitTversky>
1.548 

> <ROCS_FitColorTversky>
0.677 

> <ROCS_FitTverskyCombo>
2.225 

> <ROCS_ColorScore>
-5.126

> <ROCS_Overlap>
2138.358

> <ROCS_Rank>
131                 

$$$$
untitled-dbase-148_0
  -OEChem-02082415003D

 28 30  0     1  0  0  0  0  0999 V2000
    9.2866   10.5414   25.0812 C   0  0  0  0  0  0  0  0  0  0  0  0
    8.0693   12.7304   24.8788 C   0  0  0  0  0  0  0  0  0  0  0  0
    6.9869   10.6135   24.0879 C   0  0  0  0  0  0  0  0  0  0  0  0
    8.9698   10.1378   22.6332 C   0  0  0  0  0  0  0  0  0  0  0  0
    7.7536   12.3281   22.4298 C   0  0  0  0  0  0  0  0  0  0  0  0
    7.9079   11.2241   25.1563 C   0  0  0  0  0  0  0  0  0  0  0  0
    9.9130   10.7534   23.6859 C   0  0  1  0  0  0  0  0  0  0  0  0
    8.6897   12.9534   23.4827 C   0  0  2  0  0  0  0  0  0  0  0  0
   10.0842   12.2765   23.4564 C   0  0  0  0  0  0  0  0  0  0  0  0
    7.6001   10.8254   22.6980 C   0  0  0  0  0  0  0  0  0  0  0  0
   10.7693   12.5401   22.1905 N   0  0  0  0  0  0  0  0  0  0  0  0
    6.7820   10.2838   21.7617 F   0  0  0  0  0  0  0  0  0  0  0  0
    9.9489   10.9500   25.8546 H   0  0  0  0  0  0  0  0  0  0  0  0
    9.1838    9.4683   25.2855 H   0  0  0  0  0  0  0  0  0  0  0  0
    7.0932   13.2278   24.9373 H   0  0  0  0  0  0  0  0  0  0  0  0
    8.7048   13.1866   25.6479 H   0  0  0  0  0  0  0  0  0  0  0  0
    6.8384    9.5426   24.2735 H   0  0  0  0  0  0  0  0  0  0  0  0
    5.9901   11.0696   24.1321 H   0  0  0  0  0  0  0  0  0  0  0  0
    9.3897   10.2327   21.6247 H   0  0  0  0  0  0  0  0  0  0  0  0
    8.8550    9.0604   22.8070 H   0  0  0  0  0  0  0  0  0  0  0  0
    6.7699   12.8140   22.4576 H   0  0  0  0  0  0  0  0  0  0  0  0
    8.1363   12.4912   21.4152 H   0  0  0  0  0  0  0  0  0  0  0  0
    7.4733   11.0744   26.1507 H   0  0  0  0  0  0  0  0  0  0  0  0
   10.8868   10.2506   23.6479 H   0  0  0  0  0  0  0  0  0  0  0  0
    8.7856   14.0301   23.2985 H   0  0  0  0  0  0  0  0  0  0  0  0
   10.7038   12.6953   24.2599 H   0  0  0  0  0  0  0  0  0  0  0  0
   10.9598   11.6691   21.7566 H   0  0  0  0  0  0  0  0  0  0  0  0
   10.1695   13.0921   21.6258 H   0  0  0  0  0  0  0  0  0  0  0  0
  1  6  1  0  0  0  0
  1  7  1  0  0  0  0
  2  6  1  0  0  0  0
  2  8  1  0  0  0  0
  3  6  1  0  0  0  0
  3 10  1  0  0  0  0
  4  7  1  0  0  0  0
  4 10  1  0  0  0  0
  5  8  1  0  0  0  0
  5 10  1  0  0  0  0
  7  9  1  0  0  0  0
  8  9  1  0  0  0  0
  9 11  1  0  0  0  0
 10 12  1  0  0  0  0
  1 13  1  0  0  0  0
  1 14  1  0  0  0  0
  2 15  1  0  0  0  0
  2 16  1  0  0  0  0
  3 17  1  0  0  0  0
  3 18  1  0  0  0  0
  4 19  1  0  0  0  0
  4 20  1  0  0  0  0
  5 21  1  0  0  0  0
  5 22  1  0  0  0  0
  6 23  1  0  0  0  0
  7 24  1  0  0  0  0
  8 25  1  0  0  0  0
  9 26  1  0  0  0  0
 11 27  1  0  0  0  0
 11 28  1  0  0  0  0
M  END
> <Catalog ID>
Z1998636298

> <PlateID>
1337959-R-03

> <Well>
H08

> <MW (desalted)>
169.239

> <CLogP>
2.428

> <HBD>
1

> <TPSA>
26.020

> <RotBonds>
0

> <ROCS_ShapeQuery>
x0446_0A_x1080_0A_x0929_0A_x0812_0A_x0719_0A_x1140_0A_x0528_0A_x0310_0A

> <ROCS_TanimotoCombo>
0.328 

> <ROCS_ShapeTanimoto>
0.179 

> <ROCS_ColorTanimoto>
0.149 

> <ROCS_RefTversky>
0.166 

> <ROCS_RefColorTversky>
0.166 

> <ROCS_RefTverskyCombo>
0.332 

> <ROCS_FitTversky>
1.730 

> <ROCS_FitColorTversky>
0.599 

> <ROCS_FitTverskyCombo>
2.329 

> <ROCS_ColorScore>
-5.935

> <ROCS_Overlap>
1960.032

> <ROCS_Rank>
132                 

$$$$
untitled-dbase-199_0
  -OEChem-02082415003D

 26 27  0     1  0  0  0  0  0999 V2000
    9.6418   12.8754   23.2730 C   0  0  0  0  0  0  0  0  0  0  0  0
    9.8189   10.7073   22.6300 C   0  0  0  0  0  0  0  0  0  0  0  0
    8.2874   12.2892   25.2911 C   0  0  0  0  0  0  0  0  0  0  0  0
    5.7881   12.1985   23.3138 C   0  0  0  0  0  0  0  0  0  0  0  0
    7.4104   11.2483   25.9938 C   0  0  0  0  0  0  0  0  0  0  0  0
    5.4081   12.0016   24.7800 C   0  0  0  0  0  0  0  0  0  0  0  0
    8.3502   12.1982   23.7607 C   0  0  1  0  0  0  0  0  0  0  0  0
    7.1461   12.8435   23.0702 C   0  0  0  0  0  0  0  0  0  0  0  0
   10.4221   11.9420   22.6369 N   0  0  0  0  0  0  0  0  0  0  0  0
    8.5989   10.8500   23.2879 N   0  0  0  0  0  0  0  0  0  0  0  0
    6.1450   10.8893   25.3632 N   0  0  0  0  0  0  0  0  0  0  0  0
    9.9168   14.0571   23.4356 O   0  0  0  0  0  0  0  0  0  0  0  0
   10.2625    9.6776   22.1410 O   0  0  0  0  0  0  0  0  0  0  0  0
    7.0641   14.1504   23.4505 F   0  0  0  0  0  0  0  0  0  0  0  0
    7.3547   12.8651   21.7226 F   0  0  0  0  0  0  0  0  0  0  0  0
    7.9443   13.2931   25.5763 H   0  0  0  0  0  0  0  0  0  0  0  0
    9.2984   12.2091   25.7142 H   0  0  0  0  0  0  0  0  0  0  0  0
    5.7266   11.2472   22.7695 H   0  0  0  0  0  0  0  0  0  0  0  0
    5.0282   12.8438   22.8541 H   0  0  0  0  0  0  0  0  0  0  0  0
    7.9896   10.3255   26.1226 H   0  0  0  0  0  0  0  0  0  0  0  0
    7.2035   11.6041   27.0106 H   0  0  0  0  0  0  0  0  0  0  0  0
    5.5120   12.9255   25.3601 H   0  0  0  0  0  0  0  0  0  0  0  0
    4.3446   11.7377   24.8162 H   0  0  0  0  0  0  0  0  0  0  0  0
   11.3271   12.1382   22.2251 H   0  0  0  0  0  0  0  0  0  0  0  0
    7.9525   10.0779   23.4137 H   0  0  0  0  0  0  0  0  0  0  0  0
    6.2924   10.1602   24.6676 H   0  0  0  0  0  0  0  0  0  0  0  0
  1  7  1  0  0  0  0
  1  9  1  0  0  0  0
  1 12  2  0  0  0  0
  2  9  1  0  0  0  0
  2 10  1  0  0  0  0
  2 13  2  0  0  0  0
  3  5  1  0  0  0  0
  3  7  1  0  0  0  0
  4  6  1  0  0  0  0
  4  8  1  0  0  0  0
  5 11  1  0  0  0  0
  6 11  1  0  0  0  0
  7  8  1  0  0  0  0
  7 10  1  0  0  0  0
  8 14  1  0  0  0  0
  8 15  1  0  0  0  0
  3 16  1  0  0  0  0
  3 17  1  0  0  0  0
  4 18  1  0  0  0  0
  4 19  1  0  0  0  0
  5 20  1  0  0  0  0
  5 21  1  0  0  0  0
  6 22  1  0  0  0  0
  6 23  1  0  0  0  0
  9 24  1  0  0  0  0
 10 25  1  0  0  0  0
 11 26  1  0  0  0  0
M  END
> <Catalog ID>
Z4500944652

> <PlateID>
1337959-R-05

> <Well>
A02

> <MW (desalted)>
219.189

> <CLogP>
-1.274

> <HBD>
3

> <TPSA>
70.230

> <RotBonds>
0

> <ROCS_ShapeQuery>
x0446_0A_x1080_0A_x0929_0A_x0812_0A_x0719_0A_x1140_0A_x0528_0A_x0310_0A

> <ROCS_TanimotoCombo>
0.328 

> <ROCS_ShapeTanimoto>
0.206 

> <ROCS_ColorTanimoto>
0.122 

> <ROCS_RefTversky>
0.189 

> <ROCS_RefColorTversky>
0.137 

> <ROCS_RefTverskyCombo>
0.327 

> <ROCS_FitTversky>
1.757 

> <ROCS_FitColorTversky>
0.518 

> <ROCS_FitTverskyCombo>
2.275 

> <ROCS_ColorScore>
-4.908

> <ROCS_Overlap>
2235.408

> <ROCS_Rank>
133                 

$$$$
untitled-dbase-514_10
  -OEChem-02082415003D

 35 36  0     0  0  0  0  0  0999 V2000
    8.2319   10.8355   23.7877 C   0  0  0  0  0  0  0  0  0  0  0  0
    9.6270   11.0189   23.7458 C   0  0  0  0  0  0  0  0  0  0  0  0
    7.7190   12.1092   23.8214 C   0  0  0  0  0  0  0  0  0  0  0  0
    9.4267   14.9431   22.5739 C   0  0  0  0  0  0  0  0  0  0  0  0
   13.6139   14.6042   22.3035 C   0  0  0  0  0  0  0  0  0  0  0  0
   12.6931   14.8206   21.1037 C   0  0  0  0  0  0  0  0  0  0  0  0
   12.8304   14.0790   23.5056 C   0  0  0  0  0  0  0  0  0  0  0  0
   11.5062   15.7067   21.4715 C   0  0  0  0  0  0  0  0  0  0  0  0
   11.6394   14.9787   23.8282 C   0  0  0  0  0  0  0  0  0  0  0  0
   10.6680    9.9783   23.7010 C   0  0  0  0  0  0  0  0  0  0  0  0
    6.3267   12.5914   23.8727 C   0  0  0  0  0  0  0  0  0  0  0  0
    8.7741   14.3952   23.8179 C   0  0  0  0  0  0  0  0  0  0  0  0
    9.9781   12.3076   23.7520 N   0  0  0  0  0  0  0  0  0  0  0  0
    8.7961   12.9455   23.7982 N   0  0  0  0  0  0  0  0  0  0  0  0
   10.7998   15.1774   22.6401 N   0  0  0  0  0  0  0  0  0  0  0  0
    8.7358   15.1539   21.5738 O   0  0  0  0  0  0  0  0  0  0  0  0
    7.6752    9.9094   23.7936 H   0  0  0  0  0  0  0  0  0  0  0  0
   14.4094   13.8983   22.0399 H   0  0  0  0  0  0  0  0  0  0  0  0
   14.0986   15.5518   22.5683 H   0  0  0  0  0  0  0  0  0  0  0  0
   13.2579   15.2806   20.2852 H   0  0  0  0  0  0  0  0  0  0  0  0
   12.3288   13.8523   20.7390 H   0  0  0  0  0  0  0  0  0  0  0  0
   12.4753   13.0616   23.2987 H   0  0  0  0  0  0  0  0  0  0  0  0
   13.4927   14.0171   24.3762 H   0  0  0  0  0  0  0  0  0  0  0  0
   11.8468   16.7174   21.7260 H   0  0  0  0  0  0  0  0  0  0  0  0
   10.8316   15.7954   20.6140 H   0  0  0  0  0  0  0  0  0  0  0  0
   11.0779   14.5505   24.6603 H   0  0  0  0  0  0  0  0  0  0  0  0
   11.9853   15.9692   24.1474 H   0  0  0  0  0  0  0  0  0  0  0  0
   10.9188    9.7069   22.6612 H   0  0  0  0  0  0  0  0  0  0  0  0
   11.6021   10.3009   24.1947 H   0  0  0  0  0  0  0  0  0  0  0  0
   10.3564    9.0539   24.2198 H   0  0  0  0  0  0  0  0  0  0  0  0
    5.9829   12.7080   24.9141 H   0  0  0  0  0  0  0  0  0  0  0  0
    6.2062   13.5671   23.3703 H   0  0  0  0  0  0  0  0  0  0  0  0
    5.6291   11.9015   23.3662 H   0  0  0  0  0  0  0  0  0  0  0  0
    7.7441   14.7422   23.8553 H   0  0  0  0  0  0  0  0  0  0  0  0
    9.3195   14.7546   24.6876 H   0  0  0  0  0  0  0  0  0  0  0  0
  1  2  1  0  0  0  0
  1  3  2  0  0  0  0
  2 10  1  0  0  0  0
  2 13  2  0  0  0  0
  3 11  1  0  0  0  0
  3 14  1  0  0  0  0
  4 12  1  0  0  0  0
  4 15  1  0  0  0  0
  4 16  2  0  0  0  0
  5  6  1  0  0  0  0
  5  7  1  0  0  0  0
  6  8  1  0  0  0  0
  7  9  1  0  0  0  0
  8 15  1  0  0  0  0
  9 15  1  0  0  0  0
 12 14  1  0  0  0  0
 13 14  1  0  0  0  0
  1 17  1  0  0  0  0
  5 18  1  0  0  0  0
  5 19  1  0  0  0  0
  6 20  1  0  0  0  0
  6 21  1  0  0  0  0
  7 22  1  0  0  0  0
  7 23  1  0  0  0  0
  8 24  1  0  0  0  0
  8 25  1  0  0  0  0
  9 26  1  0  0  0  0
  9 27  1  0  0  0  0
 10 28  1  0  0  0  0
 10 29  1  0  0  0  0
 10 30  1  0  0  0  0
 11 31  1  0  0  0  0
 11 32  1  0  0  0  0
 11 33  1  0  0  0  0
 12 34  1  0  0  0  0
 12 35  1  0  0  0  0
M  END
> <Catalog ID>
Z168233872

> <PlateID>
1337959-R-12

> <Well>
B07

> <MW (desalted)>
221.299

> <CLogP>
1.246

> <HBD>
0

> <TPSA>
38.130

> <RotBonds>
2

> <ROCS_ShapeQuery>
x0446_0A_x1080_0A_x0929_0A_x0812_0A_x0719_0A_x1140_0A_x0528_0A_x0310_0A

> <ROCS_TanimotoCombo>
0.328 

> <ROCS_ShapeTanimoto>
0.199 

> <ROCS_ColorTanimoto>
0.129 

> <ROCS_RefTversky>
0.184 

> <ROCS_RefColorTversky>
0.132 

> <ROCS_RefTverskyCombo>
0.317 

> <ROCS_FitTversky>
1.687 

> <ROCS_FitColorTversky>
0.829 

> <ROCS_FitTverskyCombo>
2.516 

> <ROCS_ColorScore>
-4.693

> <ROCS_Overlap>
2176.053

> <ROCS_Rank>
134                 

$$$$
untitled-dbase-638_1
  -OEChem-02082415003D

 24 26  0     0  0  0  0  0  0999 V2000
    6.6787   12.5667   24.7194 C   0  0  0  0  0  0  0  0  0  0  0  0
    9.0857   12.5536   23.3840 C   0  0  0  0  0  0  0  0  0  0  0  0
    8.0147   10.7347   23.1627 C   0  0  0  0  0  0  0  0  0  0  0  0
    9.0257   11.1565   24.9806 C   0  0  0  0  0  0  0  0  0  0  0  0
   11.2916    9.4664   24.0119 C   0  0  0  0  0  0  0  0  0  0  0  0
   11.9262   11.2724   23.2401 C   0  0  0  0  0  0  0  0  0  0  0  0
   10.6799   10.4247   22.9916 C   0  0  0  0  0  0  0  0  0  0  0  0
    7.9014   11.9144   24.1910 C   0  0  0  0  0  0  0  0  0  0  0  0
    9.4706   11.0731   23.5135 C   0  0  0  0  0  0  0  0  0  0  0  0
    5.7942   11.9993   25.3430 O   0  0  0  0  0  0  0  0  0  0  0  0
   12.3582   10.3990   24.3112 O   0  0  0  0  0  0  0  0  0  0  0  0
    6.6707   13.8873   24.4141 O   0  0  0  0  0  0  0  0  0  0  0  0
    8.8593   12.9283   22.3803 H   0  0  0  0  0  0  0  0  0  0  0  0
    9.7098   13.2834   23.9104 H   0  0  0  0  0  0  0  0  0  0  0  0
    7.6351    9.7581   23.4811 H   0  0  0  0  0  0  0  0  0  0  0  0
    7.6858   10.9341   22.1374 H   0  0  0  0  0  0  0  0  0  0  0  0
    9.6446   11.7516   25.6603 H   0  0  0  0  0  0  0  0  0  0  0  0
    8.7435   10.2205   25.4741 H   0  0  0  0  0  0  0  0  0  0  0  0
   10.6921    9.2399   24.8985 H   0  0  0  0  0  0  0  0  0  0  0  0
   11.6896    8.5360   23.5949 H   0  0  0  0  0  0  0  0  0  0  0  0
   12.6511   11.2798   22.4200 H   0  0  0  0  0  0  0  0  0  0  0  0
   11.7657   12.2954   23.5927 H   0  0  0  0  0  0  0  0  0  0  0  0
   10.5850   10.0249   21.9785 H   0  0  0  0  0  0  0  0  0  0  0  0
    5.8678   14.3370   24.7538 H   0  0  0  0  0  0  0  0  0  0  0  0
  1  8  1  0  0  0  0
  1 10  2  0  0  0  0
  1 12  1  0  0  0  0
  2  8  1  0  0  0  0
  2  9  1  0  0  0  0
  3  8  1  0  0  0  0
  3  9  1  0  0  0  0
  4  8  1  0  0  0  0
  4  9  1  0  0  0  0
  5  7  1  0  0  0  0
  5 11  1  0  0  0  0
  6  7  1  0  0  0  0
  6 11  1  0  0  0  0
  7  9  1  0  0  0  0
  2 13  1  0  0  0  0
  2 14  1  0  0  0  0
  3 15  1  0  0  0  0
  3 16  1  0  0  0  0
  4 17  1  0  0  0  0
  4 18  1  0  0  0  0
  5 19  1  0  0  0  0
  5 20  1  0  0  0  0
  6 21  1  0  0  0  0
  6 22  1  0  0  0  0
  7 23  1  0  0  0  0
 12 24  1  0  0  0  0
M  END
> <Catalog ID>
Z3589635022

> <PlateID>
1337959-R-15

> <Well>
A06

> <MW (desalted)>
168.190

> <CLogP>
-0.493

> <HBD>
1

> <TPSA>
46.530

> <RotBonds>
2

> <ROCS_ShapeQuery>
x0446_0A_x1080_0A_x0929_0A_x0812_0A_x0719_0A_x1140_0A_x0528_0A_x0310_0A

> <ROCS_TanimotoCombo>
0.328 

> <ROCS_ShapeTanimoto>
0.171 

> <ROCS_ColorTanimoto>
0.157 

> <ROCS_RefTversky>
0.160 

> <ROCS_RefColorTversky>
0.188 

> <ROCS_RefTverskyCombo>
0.348 

> <ROCS_FitTversky>
1.665 

> <ROCS_FitColorTversky>
0.490 

> <ROCS_FitTverskyCombo>
2.155 

> <ROCS_ColorScore>
-6.749

> <ROCS_Overlap>
1885.496

> <ROCS_Rank>
135                 

$$$$
untitled-dbase-395_68
  -OEChem-02082415003D

 31 32  0     0  0  0  0  0  0999 V2000
    9.3553   10.8587   23.3252 C   0  0  0  0  0  0  0  0  0  0  0  0
    8.2402   10.8007   24.1611 C   0  0  0  0  0  0  0  0  0  0  0  0
    9.7347   12.0725   22.7519 C   0  0  0  0  0  0  0  0  0  0  0  0
    7.5044   11.9562   24.4237 C   0  0  0  0  0  0  0  0  0  0  0  0
    8.9989   13.2280   23.0145 C   0  0  0  0  0  0  0  0  0  0  0  0
    7.8838   13.1699   23.8504 C   0  0  0  0  0  0  0  0  0  0  0  0
    9.4154   14.4945   22.4009 C   0  0  0  0  0  0  0  0  0  0  0  0
   11.6697   14.3293   23.5784 C   0  0  0  0  0  0  0  0  0  0  0  0
   11.1670   16.2012   22.0423 C   0  0  0  0  0  0  0  0  0  0  0  0
   12.8726   13.8162   22.7959 C   0  0  0  0  0  0  0  0  0  0  0  0
   12.3127   15.9093   21.0804 C   0  0  0  0  0  0  0  0  0  0  0  0
    6.0665   14.5831   23.2524 C   0  0  0  0  0  0  0  0  0  0  0  0
   10.6939   14.9790   22.6929 N   0  0  0  0  0  0  0  0  0  0  0  0
    8.5941   15.0334   21.6607 O   0  0  0  0  0  0  0  0  0  0  0  0
    7.1532   14.2885   24.1205 O   0  0  0  0  0  0  0  0  0  0  0  0
    5.5920   13.4025   22.7775 F   0  0  0  0  0  0  0  0  0  0  0  0
    5.0614   15.1415   23.9707 F   0  0  0  0  0  0  0  0  0  0  0  0
   13.7381   15.1744   21.9444 S   0  0  0  0  0  0  0  0  0  0  0  0
    9.9281    9.9586   23.1210 H   0  0  0  0  0  0  0  0  0  0  0  0
    7.9450    9.8553   24.6067 H   0  0  0  0  0  0  0  0  0  0  0  0
   10.6057   12.1059   22.1025 H   0  0  0  0  0  0  0  0  0  0  0  0
    6.6368   11.9041   25.0759 H   0  0  0  0  0  0  0  0  0  0  0  0
   11.2122   13.4939   24.1152 H   0  0  0  0  0  0  0  0  0  0  0  0
   11.9733   15.0605   24.3379 H   0  0  0  0  0  0  0  0  0  0  0  0
   11.4708   16.9089   22.8231 H   0  0  0  0  0  0  0  0  0  0  0  0
   10.3471   16.6703   21.4875 H   0  0  0  0  0  0  0  0  0  0  0  0
   13.5825   13.3390   23.4786 H   0  0  0  0  0  0  0  0  0  0  0  0
   12.5699   13.0656   22.0578 H   0  0  0  0  0  0  0  0  0  0  0  0
   11.9910   15.2321   20.2817 H   0  0  0  0  0  0  0  0  0  0  0  0
   12.6457   16.8389   20.6081 H   0  0  0  0  0  0  0  0  0  0  0  0
    6.3459   15.2147   22.4024 H   0  0  0  0  0  0  0  0  0  0  0  0
  1  2  2  0  0  0  0
  1  3  1  0  0  0  0
  2  4  1  0  0  0  0
  3  5  2  0  0  0  0
  4  6  2  0  0  0  0
  5  6  1  0  0  0  0
  5  7  1  0  0  0  0
  6 15  1  0  0  0  0
  7 13  1  0  0  0  0
  7 14  2  0  0  0  0
  8 10  1  0  0  0  0
  8 13  1  0  0  0  0
  9 11  1  0  0  0  0
  9 13  1  0  0  0  0
 10 18  1  0  0  0  0
 11 18  1  0  0  0  0
 12 15  1  0  0  0  0
 12 16  1  0  0  0  0
 12 17  1  0  0  0  0
  1 19  1  0  0  0  0
  2 20  1  0  0  0  0
  3 21  1  0  0  0  0
  4 22  1  0  0  0  0
  8 23  1  0  0  0  0
  8 24  1  0  0  0  0
  9 25  1  0  0  0  0
  9 26  1  0  0  0  0
 10 27  1  0  0  0  0
 10 28  1  0  0  0  0
 11 29  1  0  0  0  0
 11 30  1  0  0  0  0
 12 31  1  0  0  0  0
M  END
> <Catalog ID>
Z437579698

> <PlateID>
1337959-R-09

> <Well>
D09

> <MW (desalted)>
273.299

> <CLogP>
2.173

> <HBD>
0

> <TPSA>
29.540

> <RotBonds>
3

> <ROCS_ShapeQuery>
x0446_0A_x1080_0A_x0929_0A_x0812_0A_x0719_0A_x1140_0A_x0528_0A_x0310_0A

> <ROCS_TanimotoCombo>
0.328 

> <ROCS_ShapeTanimoto>
0.215 

> <ROCS_ColorTanimoto>
0.113 

> <ROCS_RefTversky>
0.197 

> <ROCS_RefColorTversky>
0.118 

> <ROCS_RefTverskyCombo>
0.315 

> <ROCS_FitTversky>
1.707 

> <ROCS_FitColorTversky>
0.739 

> <ROCS_FitTverskyCombo>
2.445 

> <ROCS_ColorScore>
-4.180

> <ROCS_Overlap>
2327.740

> <ROCS_Rank>
136                 

$$$$
untitled-dbase-666_14
  -OEChem-02082415003D

 24 25  0     0  0  0  0  0  0999 V2000
    9.8587   12.0695   23.5757 C   0  0  0  0  0  0  0  0  0  0  0  0
   10.4415   10.8464   23.3748 C   0  0  0  0  0  0  0  0  0  0  0  0
    8.5308   11.7555   23.9130 C   0  0  0  0  0  0  0  0  0  0  0  0
    8.0136   14.1539   22.1928 C   0  0  0  0  0  0  0  0  0  0  0  0
    5.7590   11.9761   25.3556 C   0  0  0  0  0  0  0  0  0  0  0  0
    5.9086   12.4813   23.9097 C   0  0  0  0  0  0  0  0  0  0  0  0
    6.8981   12.9362   25.7415 C   0  0  0  0  0  0  0  0  0  0  0  0
    7.3971   12.8495   24.2538 C   0  0  0  0  0  0  0  0  0  0  0  0
    7.8247   14.2049   23.6862 C   0  0  0  0  0  0  0  0  0  0  0  0
    8.3072   10.4384   23.9207 N   0  0  0  0  0  0  0  0  0  0  0  0
    7.4105   13.4337   21.4115 O   0  0  0  0  0  0  0  0  0  0  0  0
    9.5257    9.8650   23.5777 O   0  0  0  0  0  0  0  0  0  0  0  0
    8.9707   15.0406   21.8167 O   0  0  0  0  0  0  0  0  0  0  0  0
   10.3274   13.0385   23.4900 H   0  0  0  0  0  0  0  0  0  0  0  0
   11.4329   10.5176   23.1010 H   0  0  0  0  0  0  0  0  0  0  0  0
    4.7965   12.2258   25.8134 H   0  0  0  0  0  0  0  0  0  0  0  0
    5.9615   10.9144   25.5100 H   0  0  0  0  0  0  0  0  0  0  0  0
    5.7952   11.6888   23.1639 H   0  0  0  0  0  0  0  0  0  0  0  0
    5.2591   13.3150   23.6390 H   0  0  0  0  0  0  0  0  0  0  0  0
    6.5795   13.9220   26.0833 H   0  0  0  0  0  0  0  0  0  0  0  0
    7.5858   12.5133   26.4801 H   0  0  0  0  0  0  0  0  0  0  0  0
    7.0569   14.9495   23.9161 H   0  0  0  0  0  0  0  0  0  0  0  0
    8.7699   14.5059   24.1476 H   0  0  0  0  0  0  0  0  0  0  0  0
    9.1170   15.0314   20.8467 H   0  0  0  0  0  0  0  0  0  0  0  0
  1  2  2  0  0  0  0
  1  3  1  0  0  0  0
  2 12  1  0  0  0  0
  3  8  1  0  0  0  0
  3 10  2  0  0  0  0
  4  9  1  0  0  0  0
  4 11  2  0  0  0  0
  4 13  1  0  0  0  0
  5  6  1  0  0  0  0
  5  7  1  0  0  0  0
  6  8  1  0  0  0  0
  7  8  1  0  0  0  0
  8  9  1  0  0  0  0
 10 12  1  0  0  0  0
  1 14  1  0  0  0  0
  2 15  1  0  0  0  0
  5 16  1  0  0  0  0
  5 17  1  0  0  0  0
  6 18  1  0  0  0  0
  6 19  1  0  0  0  0
  7 20  1  0  0  0  0
  7 21  1  0  0  0  0
  9 22  1  0  0  0  0
  9 23  1  0  0  0  0
 13 24  1  0  0  0  0
M  END
> <Catalog ID>
Z3271394742

> <PlateID>
1337959-R-15

> <Well>
F06

> <MW (desalted)>
181.189

> <CLogP>
0.645

> <HBD>
1

> <TPSA>
63.330

> <RotBonds>
3

> <ROCS_ShapeQuery>
x0446_0A_x1080_0A_x0929_0A_x0812_0A_x0719_0A_x1140_0A_x0528_0A_x0310_0A

> <ROCS_TanimotoCombo>
0.328 

> <ROCS_ShapeTanimoto>
0.190 

> <ROCS_ColorTanimoto>
0.137 

> <ROCS_RefTversky>
0.176 

> <ROCS_RefColorTversky>
0.146 

> <ROCS_RefTverskyCombo>
0.322 

> <ROCS_FitTversky>
1.782 

> <ROCS_FitColorTversky>
0.689 

> <ROCS_FitTverskyCombo>
2.471 

> <ROCS_ColorScore>
-5.219

> <ROCS_Overlap>
2070.958

> <ROCS_Rank>
137                 

$$$$
untitled-dbase-614_46
  -OEChem-02082415003D

 32 33  0     1  0  0  0  0  0999 V2000
    6.4434   11.6608   25.0843 C   0  0  0  0  0  0  0  0  0  0  0  0
   10.1123   10.8566   23.1632 C   0  0  0  0  0  0  0  0  0  0  0  0
    9.4653    9.8488   23.8782 C   0  0  0  0  0  0  0  0  0  0  0  0
    8.3332   12.3935   23.7195 C   0  0  0  0  0  0  0  0  0  0  0  0
    7.6861   11.3857   24.4345 C   0  0  0  0  0  0  0  0  0  0  0  0
    9.5463   12.1290   23.0838 C   0  0  0  0  0  0  0  0  0  0  0  0
    8.2522   10.1133   24.5138 C   0  0  0  0  0  0  0  0  0  0  0  0
   12.7765   14.9806   22.5000 C   0  0  0  0  0  0  0  0  0  0  0  0
   11.4553   13.9692   24.2680 C   0  0  0  0  0  0  0  0  0  0  0  0
   12.8726   14.0954   23.7321 C   0  0  1  0  0  0  0  0  0  0  0  0
   11.3161   15.4310   22.4656 C   0  0  1  0  0  0  0  0  0  0  0  0
   10.2433   13.2133   22.3141 C   0  0  0  0  0  0  0  0  0  0  0  0
   10.8452   15.8059   21.0645 C   0  0  0  0  0  0  0  0  0  0  0  0
    5.4342   11.8842   25.6120 N   0  0  0  0  0  0  0  0  0  0  0  0
   10.5674   14.3630   23.1590 N   0  0  1  0  0  0  0  0  0  0  0  0
    9.4857   16.1968   21.1340 O   0  0  0  0  0  0  0  0  0  0  0  0
    7.6424    9.1338   25.1974 F   0  0  0  0  0  0  0  0  0  0  0  0
   13.3198   12.8670   23.3584 F   0  0  0  0  0  0  0  0  0  0  0  0
   11.0571   10.6412   22.6711 H   0  0  0  0  0  0  0  0  0  0  0  0
    9.9059    8.8581   23.9401 H   0  0  0  0  0  0  0  0  0  0  0  0
    7.8969   13.3882   23.6538 H   0  0  0  0  0  0  0  0  0  0  0  0
   13.4261   15.8540   22.6123 H   0  0  0  0  0  0  0  0  0  0  0  0
   13.0793   14.4296   21.6054 H   0  0  0  0  0  0  0  0  0  0  0  0
   11.2381   12.9333   24.5982 H   0  0  0  0  0  0  0  0  0  0  0  0
   11.3201   14.6374   25.1455 H   0  0  0  0  0  0  0  0  0  0  0  0
   13.5791   14.4883   24.4825 H   0  0  0  0  0  0  0  0  0  0  0  0
   11.2689   16.3779   23.1010 H   0  0  0  0  0  0  0  0  0  0  0  0
   11.1773   12.8396   21.8803 H   0  0  0  0  0  0  0  0  0  0  0  0
    9.6207   13.5706   21.4871 H   0  0  0  0  0  0  0  0  0  0  0  0
   10.9390   14.9485   20.3972 H   0  0  0  0  0  0  0  0  0  0  0  0
   11.4388   16.6361   20.6805 H   0  0  0  0  0  0  0  0  0  0  0  0
    9.2097   16.4302   20.2314 H   0  0  0  0  0  0  0  0  0  0  0  0
  1  5  1  0  0  0  0
  1 14  3  0  0  0  0
  2  3  1  0  0  0  0
  2  6  2  0  0  0  0
  3  7  2  0  0  0  0
  4  5  2  0  0  0  0
  4  6  1  0  0  0  0
  5  7  1  0  0  0  0
  6 12  1  0  0  0  0
  7 17  1  0  0  0  0
  8 10  1  0  0  0  0
  8 11  1  0  0  0  0
  9 10  1  0  0  0  0
  9 15  1  0  0  0  0
 10 18  1  6  0  0  0
 11 13  1  6  0  0  0
 11 15  1  0  0  0  0
 12 15  1  0  0  0  0
 13 16  1  0  0  0  0
  2 19  1  0  0  0  0
  3 20  1  0  0  0  0
  4 21  1  0  0  0  0
  8 22  1  0  0  0  0
  8 23  1  0  0  0  0
  9 24  1  0  0  0  0
  9 25  1  0  0  0  0
 10 26  1  0  0  0  0
 11 27  1  0  0  0  0
 12 28  1  0  0  0  0
 12 29  1  0  0  0  0
 13 30  1  0  0  0  0
 13 31  1  0  0  0  0
 16 32  1  0  0  0  0
M  END
> <Catalog ID>
Z2057686868

> <PlateID>
1337959-R-14

> <Well>
D02

> <MW (desalted)>
252.260

> <CLogP>
1.544

> <HBD>
1

> <TPSA>
47.260

> <RotBonds>
3

> <ROCS_ShapeQuery>
x0446_0A_x1080_0A_x0929_0A_x0812_0A_x0719_0A_x1140_0A_x0528_0A_x0310_0A

> <ROCS_TanimotoCombo>
0.328 

> <ROCS_ShapeTanimoto>
0.220 

> <ROCS_ColorTanimoto>
0.107 

> <ROCS_RefTversky>
0.201 

> <ROCS_RefColorTversky>
0.118 

> <ROCS_RefTverskyCombo>
0.319 

> <ROCS_FitTversky>
1.732 

> <ROCS_FitColorTversky>
0.554 

> <ROCS_FitTverskyCombo>
2.287 

> <ROCS_ColorScore>
-4.191

> <ROCS_Overlap>
2377.059

> <ROCS_Rank>
138                 

$$$$
untitled-dbase-649_31
  -OEChem-02082415003D

 28 29  0     1  0  0  0  0  0999 V2000
   11.4397   16.2584   22.6177 C   0  0  0  0  0  0  0  0  0  0  0  0
   12.6500   15.9597   21.9922 C   0  0  0  0  0  0  0  0  0  0  0  0
   10.4189   15.3084   22.6514 C   0  0  0  0  0  0  0  0  0  0  0  0
   11.8188   13.7610   21.4337 C   0  0  0  0  0  0  0  0  0  0  0  0
   12.8396   14.7110   21.4001 C   0  0  0  0  0  0  0  0  0  0  0  0
   10.6084   14.0597   22.0594 C   0  0  0  0  0  0  0  0  0  0  0  0
    7.1701   11.5119   24.5823 C   0  0  0  0  0  0  0  0  0  0  0  0
    8.0953   12.6985   24.5304 C   0  0  0  0  0  0  0  0  0  0  0  0
    9.0645   10.0432   23.8530 C   0  0  0  0  0  0  0  0  0  0  0  0
    9.9968   11.1953   24.1611 C   0  0  0  0  0  0  0  0  0  0  0  0
    7.7258   10.2708   24.3619 N   0  0  0  0  0  0  0  0  0  0  0  0
    9.3350   12.4611   23.7647 N   0  0  1  0  0  0  0  0  0  0  0  0
    5.9839   11.6569   24.8847 O   0  0  0  0  0  0  0  0  0  0  0  0
    8.0746   13.5294   21.7913 O   0  0  0  0  0  0  0  0  0  0  0  0
    9.7542   11.7060   21.3420 O   0  0  0  0  0  0  0  0  0  0  0  0
   14.0020   14.4246   20.7992 F   0  0  0  0  0  0  0  0  0  0  0  0
    9.3173   12.8564   22.1042 S   0  0  0  0  0  0  0  0  0  0  0  0
   11.2925   17.2309   23.0783 H   0  0  0  0  0  0  0  0  0  0  0  0
   13.4449   16.6994   21.9658 H   0  0  0  0  0  0  0  0  0  0  0  0
    9.4801   15.5514   23.1422 H   0  0  0  0  0  0  0  0  0  0  0  0
   11.9778   12.7917   20.9688 H   0  0  0  0  0  0  0  0  0  0  0  0
    7.5414   13.5347   24.0886 H   0  0  0  0  0  0  0  0  0  0  0  0
    8.3631   12.9516   25.5625 H   0  0  0  0  0  0  0  0  0  0  0  0
    8.9901    9.8753   22.7728 H   0  0  0  0  0  0  0  0  0  0  0  0
    9.4232    9.1157   24.3169 H   0  0  0  0  0  0  0  0  0  0  0  0
   10.2136   11.2057   25.2412 H   0  0  0  0  0  0  0  0  0  0  0  0
   10.9572   11.0858   23.6301 H   0  0  0  0  0  0  0  0  0  0  0  0
    7.1555    9.4540   24.5713 H   0  0  0  0  0  0  0  0  0  0  0  0
  1  2  1  0  0  0  0
  1  3  2  0  0  0  0
  2  5  2  0  0  0  0
  3  6  1  0  0  0  0
  4  5  1  0  0  0  0
  4  6  2  0  0  0  0
  5 16  1  0  0  0  0
  6 17  1  0  0  0  0
  7  8  1  0  0  0  0
  7 11  1  0  0  0  0
  7 13  2  0  0  0  0
  8 12  1  0  0  0  0
  9 10  1  0  0  0  0
  9 11  1  0  0  0  0
 10 12  1  0  0  0  0
 12 17  1  0  0  0  0
 14 17  2  0  0  0  0
 15 17  2  0  0  0  0
  1 18  1  0  0  0  0
  2 19  1  0  0  0  0
  3 20  1  0  0  0  0
  4 21  1  0  0  0  0
  8 22  1  0  0  0  0
  8 23  1  0  0  0  0
  9 24  1  0  0  0  0
  9 25  1  0  0  0  0
 10 26  1  0  0  0  0
 10 27  1  0  0  0  0
 11 28  1  0  0  0  0
M  END
> <Catalog ID>
Z45462915

> <PlateID>
1337959-R-15

> <Well>
B11

> <MW (desalted)>
258.269

> <CLogP>
1.090

> <HBD>
1

> <TPSA>
66.480

> <RotBonds>
1

> <ROCS_ShapeQuery>
x0446_0A_x1080_0A_x0929_0A_x0812_0A_x0719_0A_x1140_0A_x0528_0A_x0310_0A

> <ROCS_TanimotoCombo>
0.328 

> <ROCS_ShapeTanimoto>
0.209 

> <ROCS_ColorTanimoto>
0.119 

> <ROCS_RefTversky>
0.192 

> <ROCS_RefColorTversky>
0.129 

> <ROCS_RefTverskyCombo>
0.321 

> <ROCS_FitTversky>
1.716 

> <ROCS_FitColorTversky>
0.608 

> <ROCS_FitTverskyCombo>
2.324 

> <ROCS_ColorScore>
-4.597

> <ROCS_Overlap>
2263.401

> <ROCS_Rank>
139                 

$$$$
untitled-dbase-377_33
  -OEChem-02082415003D

 31 32  0     1  0  0  0  0  0999 V2000
   12.7065   16.0397   22.1029 C   0  0  0  0  0  0  0  0  0  0  0  0
   12.9839   14.7118   22.4275 C   0  0  0  0  0  0  0  0  0  0  0  0
   10.3941   15.4607   21.7099 C   0  0  0  0  0  0  0  0  0  0  0  0
   11.4116   16.4142   21.7442 C   0  0  0  0  0  0  0  0  0  0  0  0
   11.9664   13.7584   22.3932 C   0  0  0  0  0  0  0  0  0  0  0  0
   10.6715   14.1328   22.0344 C   0  0  0  0  0  0  0  0  0  0  0  0
    8.1838   10.3859   24.1484 C   0  0  0  0  0  0  0  0  0  0  0  0
    9.4269   11.2348   24.1145 C   0  0  0  0  0  0  0  0  0  0  0  0
    6.7970   12.4687   24.0228 C   0  0  0  0  0  0  0  0  0  0  0  0
    8.0515   13.2512   24.3473 C   0  0  0  0  0  0  0  0  0  0  0  0
   11.1154   17.8339   21.3969 C   0  0  0  0  0  0  0  0  0  0  0  0
    6.9752   11.0432   24.2194 N   0  0  0  0  0  0  0  0  0  0  0  0
    9.1987   12.6185   23.6536 N   0  0  2  0  0  0  0  0  0  0  0  0
    8.2671    9.1566   24.1866 O   0  0  0  0  0  0  0  0  0  0  0  0
    8.1868   13.5803   21.4916 O   0  0  0  0  0  0  0  0  0  0  0  0
    9.9037   11.7425   21.3405 O   0  0  0  0  0  0  0  0  0  0  0  0
   12.2451   12.4848   22.7051 F   0  0  0  0  0  0  0  0  0  0  0  0
    9.3813   12.9286   21.9852 S   0  0  0  0  0  0  0  0  0  0  0  0
   13.5058   16.7757   22.1322 H   0  0  0  0  0  0  0  0  0  0  0  0
   13.9922   14.4205   22.7064 H   0  0  0  0  0  0  0  0  0  0  0  0
    9.3856   15.7541   21.4287 H   0  0  0  0  0  0  0  0  0  0  0  0
    9.8509   11.2462   25.1254 H   0  0  0  0  0  0  0  0  0  0  0  0
   10.1368   10.7506   23.4342 H   0  0  0  0  0  0  0  0  0  0  0  0
    5.9582   12.7927   24.6487 H   0  0  0  0  0  0  0  0  0  0  0  0
    6.5109   12.6075   22.9727 H   0  0  0  0  0  0  0  0  0  0  0  0
    7.9288   14.2901   24.0019 H   0  0  0  0  0  0  0  0  0  0  0  0
    8.2343   13.2814   25.4345 H   0  0  0  0  0  0  0  0  0  0  0  0
   11.2560   18.0017   20.3220 H   0  0  0  0  0  0  0  0  0  0  0  0
   10.0834   18.1013   21.6586 H   0  0  0  0  0  0  0  0  0  0  0  0
   11.7707   18.5234   21.9452 H   0  0  0  0  0  0  0  0  0  0  0  0
    6.1470   10.4880   24.4247 H   0  0  0  0  0  0  0  0  0  0  0  0
  1  2  1  0  0  0  0
  1  4  2  0  0  0  0
  2  5  2  0  0  0  0
  3  4  1  0  0  0  0
  3  6  2  0  0  0  0
  4 11  1  0  0  0  0
  5  6  1  0  0  0  0
  5 17  1  0  0  0  0
  6 18  1  0  0  0  0
  7  8  1  0  0  0  0
  7 12  1  0  0  0  0
  7 14  2  0  0  0  0
  8 13  1  0  0  0  0
  9 10  1  0  0  0  0
  9 12  1  0  0  0  0
 10 13  1  0  0  0  0
 13 18  1  0  0  0  0
 15 18  2  0  0  0  0
 16 18  2  0  0  0  0
  1 19  1  0  0  0  0
  2 20  1  0  0  0  0
  3 21  1  0  0  0  0
  8 22  1  0  0  0  0
  8 23  1  0  0  0  0
  9 24  1  0  0  0  0
  9 25  1  0  0  0  0
 10 26  1  0  0  0  0
 10 27  1  0  0  0  0
 11 28  1  0  0  0  0
 11 29  1  0  0  0  0
 11 30  1  0  0  0  0
 12 31  1  0  0  0  0
M  END
> <Catalog ID>
Z408160318

> <PlateID>
1337959-R-09

> <Well>
B03

> <MW (desalted)>
272.296

> <CLogP>
1.589

> <HBD>
1

> <TPSA>
66.480

> <RotBonds>
1

> <ROCS_ShapeQuery>
x0446_0A_x1080_0A_x0929_0A_x0812_0A_x0719_0A_x1140_0A_x0528_0A_x0310_0A

> <ROCS_TanimotoCombo>
0.327 

> <ROCS_ShapeTanimoto>
0.215 

> <ROCS_ColorTanimoto>
0.112 

> <ROCS_RefTversky>
0.197 

> <ROCS_RefColorTversky>
0.122 

> <ROCS_RefTverskyCombo>
0.320 

> <ROCS_FitTversky>
1.709 

> <ROCS_FitColorTversky>
0.577 

> <ROCS_FitTverskyCombo>
2.286 

> <ROCS_ColorScore>
-4.365

> <ROCS_Overlap>
2329.381

> <ROCS_Rank>
140                 

$$$$
untitled-dbase-491_31
  -OEChem-02082415003D

 31 32  0     1  0  0  0  0  0999 V2000
   11.4409   16.2578   22.6153 C   0  0  0  0  0  0  0  0  0  0  0  0
   12.6503   15.9595   21.9876 C   0  0  0  0  0  0  0  0  0  0  0  0
   10.4208   15.3071   22.6517 C   0  0  0  0  0  0  0  0  0  0  0  0
   11.8195   13.7597   21.4325 C   0  0  0  0  0  0  0  0  0  0  0  0
   12.8396   14.7104   21.3962 C   0  0  0  0  0  0  0  0  0  0  0  0
   10.6101   14.0581   22.0602 C   0  0  0  0  0  0  0  0  0  0  0  0
    7.1692   11.5143   24.5838 C   0  0  0  0  0  0  0  0  0  0  0  0
    8.0954   12.7001   24.5315 C   0  0  0  0  0  0  0  0  0  0  0  0
    9.0627   10.0437   23.8558 C   0  0  0  0  0  0  0  0  0  0  0  0
    9.9959   11.1953   24.1635 C   0  0  0  0  0  0  0  0  0  0  0  0
   14.1330   14.3922   20.7252 C   0  0  0  0  0  0  0  0  0  0  0  0
    7.7241   10.2727   24.3642 N   0  0  0  0  0  0  0  0  0  0  0  0
    9.3351   12.4614   23.7661 N   0  0  1  0  0  0  0  0  0  0  0  0
    5.9831   11.6603   24.8859 O   0  0  0  0  0  0  0  0  0  0  0  0
    8.0760   13.5295   21.7918 O   0  0  0  0  0  0  0  0  0  0  0  0
    9.7543   11.7046   21.3440 O   0  0  0  0  0  0  0  0  0  0  0  0
    9.3181   12.8557   22.1054 S   0  0  0  0  0  0  0  0  0  0  0  0
   11.2937   17.2301   23.0765 H   0  0  0  0  0  0  0  0  0  0  0  0
   13.4398   16.7060   21.9651 H   0  0  0  0  0  0  0  0  0  0  0  0
    9.4826   15.5506   23.1429 H   0  0  0  0  0  0  0  0  0  0  0  0
   11.9685   12.7863   20.9713 H   0  0  0  0  0  0  0  0  0  0  0  0
    7.5422   13.5366   24.0890 H   0  0  0  0  0  0  0  0  0  0  0  0
    8.3632   12.9537   25.5634 H   0  0  0  0  0  0  0  0  0  0  0  0
    8.9885    9.8752   22.7757 H   0  0  0  0  0  0  0  0  0  0  0  0
    9.4206    9.1163   24.3204 H   0  0  0  0  0  0  0  0  0  0  0  0
   10.2123   11.2062   25.2436 H   0  0  0  0  0  0  0  0  0  0  0  0
   10.9563   11.0848   23.6327 H   0  0  0  0  0  0  0  0  0  0  0  0
   14.8349   13.9468   21.4407 H   0  0  0  0  0  0  0  0  0  0  0  0
   13.9887   13.6885   19.8952 H   0  0  0  0  0  0  0  0  0  0  0  0
   14.5939   15.2937   20.3007 H   0  0  0  0  0  0  0  0  0  0  0  0
    7.1531    9.4564   24.5740 H   0  0  0  0  0  0  0  0  0  0  0  0
  1  2  1  0  0  0  0
  1  3  2  0  0  0  0
  2  5  2  0  0  0  0
  3  6  1  0  0  0  0
  4  5  1  0  0  0  0
  4  6  2  0  0  0  0
  5 11  1  0  0  0  0
  6 17  1  0  0  0  0
  7  8  1  0  0  0  0
  7 12  1  0  0  0  0
  7 14  2  0  0  0  0
  8 13  1  0  0  0  0
  9 10  1  0  0  0  0
  9 12  1  0  0  0  0
 10 13  1  0  0  0  0
 13 17  1  0  0  0  0
 15 17  2  0  0  0  0
 16 17  2  0  0  0  0
  1 18  1  0  0  0  0
  2 19  1  0  0  0  0
  3 20  1  0  0  0  0
  4 21  1  0  0  0  0
  8 22  1  0  0  0  0
  8 23  1  0  0  0  0
  9 24  1  0  0  0  0
  9 25  1  0  0  0  0
 10 26  1  0  0  0  0
 10 27  1  0  0  0  0
 11 28  1  0  0  0  0
 11 29  1  0  0  0  0
 11 30  1  0  0  0  0
 12 31  1  0  0  0  0
M  END
> <Catalog ID>
Z45462925

> <PlateID>
1337959-R-11

> <Well>
F11

> <MW (desalted)>
254.305

> <CLogP>
1.446

> <HBD>
1

> <TPSA>
66.480

> <RotBonds>
1

> <ROCS_ShapeQuery>
x0446_0A_x1080_0A_x0929_0A_x0812_0A_x0719_0A_x1140_0A_x0528_0A_x0310_0A

> <ROCS_TanimotoCombo>
0.327 

> <ROCS_ShapeTanimoto>
0.208 

> <ROCS_ColorTanimoto>
0.119 

> <ROCS_RefTversky>
0.192 

> <ROCS_RefColorTversky>
0.129 

> <ROCS_RefTverskyCombo>
0.321 

> <ROCS_FitTversky>
1.720 

> <ROCS_FitColorTversky>
0.608 

> <ROCS_FitTverskyCombo>
2.328 

> <ROCS_ColorScore>
-4.596

> <ROCS_Overlap>
2260.445

> <ROCS_Rank>
141                 

$$$$
untitled-dbase-427_2
  -OEChem-02082415003D

 28 29  0     1  0  0  0  0  0999 V2000
    6.9034   13.8841   24.2329 C   0  0  0  0  0  0  0  0  0  0  0  0
    7.4944   12.6582   24.9497 C   0  0  0  0  0  0  0  0  0  0  0  0
    6.7903   13.0331   22.9567 C   0  0  0  0  0  0  0  0  0  0  0  0
   10.1951   11.2456   23.7707 C   0  0  0  0  0  0  0  0  0  0  0  0
    9.6608    9.8411   23.5469 C   0  0  0  0  0  0  0  0  0  0  0  0
    7.4397   10.5962   23.3613 C   0  0  0  0  0  0  0  0  0  0  0  0
    7.8466   12.0579   23.5548 C   0  0  0  0  0  0  0  0  0  0  0  0
   11.3660   13.1790   21.7156 C   0  0  0  0  0  0  0  0  0  0  0  0
    9.2986   12.2303   23.0860 N   0  0  1  0  0  0  0  0  0  0  0  0
   10.6193   14.2490   23.9794 O   0  0  0  0  0  0  0  0  0  0  0  0
    9.1429   14.5323   21.9483 O   0  0  0  0  0  0  0  0  0  0  0  0
    8.3374    9.7366   24.0670 O   0  0  0  0  0  0  0  0  0  0  0  0
   10.0447   13.7433   22.7547 S   0  0  0  0  0  0  0  0  0  0  0  0
    5.9355   14.2121   24.6356 H   0  0  0  0  0  0  0  0  0  0  0  0
    7.5628   14.7567   24.1643 H   0  0  0  0  0  0  0  0  0  0  0  0
    8.3702   12.8988   25.5685 H   0  0  0  0  0  0  0  0  0  0  0  0
    6.7870   12.0893   25.5637 H   0  0  0  0  0  0  0  0  0  0  0  0
    5.7979   12.6130   22.7586 H   0  0  0  0  0  0  0  0  0  0  0  0
    7.1238   13.5683   22.0572 H   0  0  0  0  0  0  0  0  0  0  0  0
   10.2143   11.4890   24.8396 H   0  0  0  0  0  0  0  0  0  0  0  0
   11.2205   11.3422   23.3990 H   0  0  0  0  0  0  0  0  0  0  0  0
    9.6586    9.5673   22.4861 H   0  0  0  0  0  0  0  0  0  0  0  0
   10.2854    9.1164   24.0774 H   0  0  0  0  0  0  0  0  0  0  0  0
    6.4330   10.4035   23.7515 H   0  0  0  0  0  0  0  0  0  0  0  0
    7.4280   10.3185   22.2982 H   0  0  0  0  0  0  0  0  0  0  0  0
   11.9555   14.0440   21.4078 H   0  0  0  0  0  0  0  0  0  0  0  0
   11.9800   12.4817   22.2876 H   0  0  0  0  0  0  0  0  0  0  0  0
   10.9323   12.6826   20.8462 H   0  0  0  0  0  0  0  0  0  0  0  0
  1  2  1  0  0  0  0
  1  3  1  0  0  0  0
  2  7  1  0  0  0  0
  3  7  1  0  0  0  0
  4  5  1  0  0  0  0
  4  9  1  0  0  0  0
  5 12  1  0  0  0  0
  6  7  1  0  0  0  0
  6 12  1  0  0  0  0
  7  9  1  0  0  0  0
  8 13  1  0  0  0  0
  9 13  1  0  0  0  0
 10 13  2  0  0  0  0
 11 13  2  0  0  0  0
  1 14  1  0  0  0  0
  1 15  1  0  0  0  0
  2 16  1  0  0  0  0
  2 17  1  0  0  0  0
  3 18  1  0  0  0  0
  3 19  1  0  0  0  0
  4 20  1  0  0  0  0
  4 21  1  0  0  0  0
  5 22  1  0  0  0  0
  5 23  1  0  0  0  0
  6 24  1  0  0  0  0
  6 25  1  0  0  0  0
  8 26  1  0  0  0  0
  8 27  1  0  0  0  0
  8 28  1  0  0  0  0
M  END
> <Catalog ID>
Z1486705591

> <PlateID>
1337959-R-10

> <Well>
B03

> <MW (desalted)>
205.275

> <CLogP>
0.480

> <HBD>
0

> <TPSA>
46.610

> <RotBonds>
0

> <ROCS_ShapeQuery>
x0446_0A_x1080_0A_x0929_0A_x0812_0A_x0719_0A_x1140_0A_x0528_0A_x0310_0A

> <ROCS_TanimotoCombo>
0.327 

> <ROCS_ShapeTanimoto>
0.193 

> <ROCS_ColorTanimoto>
0.134 

> <ROCS_RefTversky>
0.177 

> <ROCS_RefColorTversky>
0.141 

> <ROCS_RefTverskyCombo>
0.318 

> <ROCS_FitTversky>
1.841 

> <ROCS_FitColorTversky>
0.756 

> <ROCS_FitTverskyCombo>
2.597 

> <ROCS_ColorScore>
-5.003

> <ROCS_Overlap>
2089.331

> <ROCS_Rank>
142                 

$$$$
untitled-dbase-399_13
  -OEChem-02082415003D

 31 32  0     0  0  0  0  0  0999 V2000
    7.6971   10.8092   24.6905 C   0  0  0  0  0  0  0  0  0  0  0  0
    9.9008   10.1282   23.9714 C   0  0  0  0  0  0  0  0  0  0  0  0
    7.6590   11.7615   23.6721 C   0  0  0  0  0  0  0  0  0  0  0  0
    9.8627   11.0805   22.9529 C   0  0  0  0  0  0  0  0  0  0  0  0
    5.6479   15.0698   24.3980 C   0  0  0  0  0  0  0  0  0  0  0  0
    5.2591   15.6792   23.2284 C   0  0  0  0  0  0  0  0  0  0  0  0
    8.8180    9.9926   24.8403 C   0  0  0  0  0  0  0  0  0  0  0  0
    8.7418   11.8972   22.8032 C   0  0  0  0  0  0  0  0  0  0  0  0
    7.3168   14.9029   23.0875 C   0  0  0  0  0  0  0  0  0  0  0  0
    8.8595    8.9742   25.9289 C   0  0  0  0  0  0  0  0  0  0  0  0
    6.4157   16.0564   21.0435 C   0  0  0  0  0  0  0  0  0  0  0  0
    8.6995   12.9145   21.7134 C   0  0  0  0  0  0  0  0  0  0  0  0
    6.9299   14.5889   24.3039 N   0  0  0  0  0  0  0  0  0  0  0  0
    6.3387   15.5648   22.3986 N   0  0  0  0  0  0  0  0  0  0  0  0
    9.2035   15.4681   21.3977 O   0  0  0  0  0  0  0  0  0  0  0  0
    9.8238   14.3561   23.5713 O   0  0  0  0  0  0  0  0  0  0  0  0
    8.9159   14.5041   22.4463 S   0  0  0  0  0  0  0  0  0  0  0  0
    6.8491   10.7110   25.3633 H   0  0  0  0  0  0  0  0  0  0  0  0
   10.7776    9.4952   24.0802 H   0  0  0  0  0  0  0  0  0  0  0  0
    6.7810   12.3924   23.5619 H   0  0  0  0  0  0  0  0  0  0  0  0
   10.7107   11.1797   22.2805 H   0  0  0  0  0  0  0  0  0  0  0  0
    5.0700   14.9529   25.3031 H   0  0  0  0  0  0  0  0  0  0  0  0
    4.3420   16.1657   22.9270 H   0  0  0  0  0  0  0  0  0  0  0  0
    8.4497    8.0202   25.5754 H   0  0  0  0  0  0  0  0  0  0  0  0
    9.8868    8.8040   26.2765 H   0  0  0  0  0  0  0  0  0  0  0  0
    8.2790    9.3002   26.8019 H   0  0  0  0  0  0  0  0  0  0  0  0
    6.7991   17.0795   21.0772 H   0  0  0  0  0  0  0  0  0  0  0  0
    7.0846   15.4164   20.4615 H   0  0  0  0  0  0  0  0  0  0  0  0
    5.4189   16.0350   20.5942 H   0  0  0  0  0  0  0  0  0  0  0  0
    7.7408   12.9157   21.1824 H   0  0  0  0  0  0  0  0  0  0  0  0
    9.4999   12.7704   20.9786 H   0  0  0  0  0  0  0  0  0  0  0  0
  1  3  1  0  0  0  0
  1  7  2  0  0  0  0
  2  4  2  0  0  0  0
  2  7  1  0  0  0  0
  3  8  2  0  0  0  0
  4  8  1  0  0  0  0
  5  6  2  0  0  0  0
  5 13  1  0  0  0  0
  6 14  1  0  0  0  0
  7 10  1  0  0  0  0
  8 12  1  0  0  0  0
  9 13  2  0  0  0  0
  9 14  1  0  0  0  0
  9 17  1  0  0  0  0
 11 14  1  0  0  0  0
 12 17  1  0  0  0  0
 15 17  2  0  0  0  0
 16 17  2  0  0  0  0
  1 18  1  0  0  0  0
  2 19  1  0  0  0  0
  3 20  1  0  0  0  0
  4 21  1  0  0  0  0
  5 22  1  0  0  0  0
  6 23  1  0  0  0  0
 10 24  1  0  0  0  0
 10 25  1  0  0  0  0
 10 26  1  0  0  0  0
 11 27  1  0  0  0  0
 11 28  1  0  0  0  0
 11 29  1  0  0  0  0
 12 30  1  0  0  0  0
 12 31  1  0  0  0  0
M  END
> <Catalog ID>
Z608380730

> <PlateID>
1337959-R-09

> <Well>
E05

> <MW (desalted)>
250.317

> <CLogP>
1.809

> <HBD>
0

> <TPSA>
51.960

> <RotBonds>
3

> <ROCS_ShapeQuery>
x0446_0A_x1080_0A_x0929_0A_x0812_0A_x0719_0A_x1140_0A_x0528_0A_x0310_0A

> <ROCS_TanimotoCombo>
0.327 

> <ROCS_ShapeTanimoto>
0.188 

> <ROCS_ColorTanimoto>
0.139 

> <ROCS_RefTversky>
0.176 

> <ROCS_RefColorTversky>
0.148 

> <ROCS_RefTverskyCombo>
0.324 

> <ROCS_FitTversky>
1.569 

> <ROCS_FitColorTversky>
0.699 

> <ROCS_FitTverskyCombo>
2.268 

> <ROCS_ColorScore>
-5.283

> <ROCS_Overlap>
2076.307

> <ROCS_Rank>
143                 

$$$$
untitled-dbase-217_13
  -OEChem-02082415003D

 24 25  0     0  0  0  0  0  0999 V2000
    5.3182   13.4901   25.7698 C   0  0  0  0  0  0  0  0  0  0  0  0
    6.5883   14.0262   25.5577 C   0  0  0  0  0  0  0  0  0  0  0  0
    5.0054   12.2224   25.2790 C   0  0  0  0  0  0  0  0  0  0  0  0
    7.5456   13.2948   24.8548 C   0  0  0  0  0  0  0  0  0  0  0  0
    5.9627   11.4909   24.5760 C   0  0  0  0  0  0  0  0  0  0  0  0
    9.5408    9.5680   23.2519 C   0  0  0  0  0  0  0  0  0  0  0  0
    7.2328   12.0271   24.3639 C   0  0  0  0  0  0  0  0  0  0  0  0
    8.2182   11.2739   23.6400 C   0  0  0  0  0  0  0  0  0  0  0  0
    8.7963   11.7215   22.4705 C   0  0  0  0  0  0  0  0  0  0  0  0
    9.3084   14.1382   22.3506 C   0  0  0  0  0  0  0  0  0  0  0  0
    8.5863   12.9727   21.7117 C   0  0  0  0  0  0  0  0  0  0  0  0
    8.6436   10.0390   24.0893 N   0  0  0  0  0  0  0  0  0  0  0  0
    9.9091   14.0690   23.4154 O   0  0  0  0  0  0  0  0  0  0  0  0
    9.1844   15.2873   21.6402 O   0  0  0  0  0  0  0  0  0  0  0  0
    9.9210   10.5579   21.9027 S   0  0  0  0  0  0  0  0  0  0  0  0
    4.5730   14.0590   26.3180 H   0  0  0  0  0  0  0  0  0  0  0  0
    6.8324   15.0126   25.9409 H   0  0  0  0  0  0  0  0  0  0  0  0
    4.0169   11.8046   25.4453 H   0  0  0  0  0  0  0  0  0  0  0  0
    8.5313   13.7265   24.6976 H   0  0  0  0  0  0  0  0  0  0  0  0
    5.7032   10.5040   24.1998 H   0  0  0  0  0  0  0  0  0  0  0  0
   10.0178    8.6090   23.4000 H   0  0  0  0  0  0  0  0  0  0  0  0
    7.5195   13.2264   21.6020 H   0  0  0  0  0  0  0  0  0  0  0  0
    8.9556   12.8897   20.6761 H   0  0  0  0  0  0  0  0  0  0  0  0
    9.6131   16.0749   22.0379 H   0  0  0  0  0  0  0  0  0  0  0  0
  1  2  2  0  0  0  0
  1  3  1  0  0  0  0
  2  4  1  0  0  0  0
  3  5  2  0  0  0  0
  4  7  2  0  0  0  0
  5  7  1  0  0  0  0
  6 12  2  0  0  0  0
  6 15  1  0  0  0  0
  7  8  1  0  0  0  0
  8  9  2  0  0  0  0
  8 12  1  0  0  0  0
  9 11  1  0  0  0  0
  9 15  1  0  0  0  0
 10 11  1  0  0  0  0
 10 13  2  0  0  0  0
 10 14  1  0  0  0  0
  1 16  1  0  0  0  0
  2 17  1  0  0  0  0
  3 18  1  0  0  0  0
  4 19  1  0  0  0  0
  5 20  1  0  0  0  0
  6 21  1  0  0  0  0
 11 22  1  0  0  0  0
 11 23  1  0  0  0  0
 14 24  1  0  0  0  0
M  END
> <Catalog ID>
Z1343609137

> <PlateID>
1337959-R-05

> <Well>
C10

> <MW (desalted)>
219.260

> <CLogP>
1.556

> <HBD>
1

> <TPSA>
50.190

> <RotBonds>
3

> <ROCS_ShapeQuery>
x0446_0A_x1080_0A_x0929_0A_x0812_0A_x0719_0A_x1140_0A_x0528_0A_x0310_0A

> <ROCS_TanimotoCombo>
0.327 

> <ROCS_ShapeTanimoto>
0.191 

> <ROCS_ColorTanimoto>
0.136 

> <ROCS_RefTversky>
0.177 

> <ROCS_RefColorTversky>
0.146 

> <ROCS_RefTverskyCombo>
0.323 

> <ROCS_FitTversky>
1.679 

> <ROCS_FitColorTversky>
0.685 

> <ROCS_FitTverskyCombo>
2.364 

> <ROCS_ColorScore>
-5.188

> <ROCS_Overlap>
2089.127

> <ROCS_Rank>
144                 

$$$$
untitled-dbase-530_1
  -OEChem-02082415003D

 32 33  0     0  0  0  0  0  0999 V2000
   12.4275   15.3683   22.7807 C   0  0  0  0  0  0  0  0  0  0  0  0
   12.4153   14.8618   21.4859 C   0  0  0  0  0  0  0  0  0  0  0  0
    9.7430   10.2836   24.0815 C   0  0  0  0  0  0  0  0  0  0  0  0
    9.5424   11.2029   25.1111 C   0  0  0  0  0  0  0  0  0  0  0  0
   11.2293   15.5434   23.4641 C   0  0  0  0  0  0  0  0  0  0  0  0
    8.6117   11.7618   22.5412 C   0  0  0  0  0  0  0  0  0  0  0  0
   11.1884   14.5484   20.9236 C   0  0  0  0  0  0  0  0  0  0  0  0
    9.2777   10.5630   22.7965 C   0  0  0  0  0  0  0  0  0  0  0  0
    8.8764   12.4016   24.8559 C   0  0  0  0  0  0  0  0  0  0  0  0
    8.4111   12.6811   23.5709 C   0  0  0  0  0  0  0  0  0  0  0  0
   10.0554   15.1996   22.8131 C   0  0  0  0  0  0  0  0  0  0  0  0
    9.4937    9.5803   21.6957 C   0  0  0  0  0  0  0  0  0  0  0  0
    8.6780   13.3644   25.9806 C   0  0  0  0  0  0  0  0  0  0  0  0
   10.0039   14.7047   21.5561 N   0  0  0  0  0  0  0  0  0  0  0  0
    8.7918   15.3639   23.4798 N   0  0  0  0  0  0  0  0  0  0  0  0
    6.5395   14.3522   24.2269 O   0  0  0  0  0  0  0  0  0  0  0  0
    7.1916   14.1697   21.8102 O   0  0  0  0  0  0  0  0  0  0  0  0
    7.5734   14.1761   23.2157 S   0  0  0  0  0  0  0  0  0  0  0  0
   13.3690   15.6264   23.2562 H   0  0  0  0  0  0  0  0  0  0  0  0
   13.3371   14.7171   20.9343 H   0  0  0  0  0  0  0  0  0  0  0  0
   10.2639    9.3527   24.2895 H   0  0  0  0  0  0  0  0  0  0  0  0
    9.9112   10.9761   26.1080 H   0  0  0  0  0  0  0  0  0  0  0  0
   11.2253   15.9379   24.4744 H   0  0  0  0  0  0  0  0  0  0  0  0
    8.2504   11.9766   21.5383 H   0  0  0  0  0  0  0  0  0  0  0  0
   11.1248   14.1502   19.9163 H   0  0  0  0  0  0  0  0  0  0  0  0
    8.6529    8.8780   21.6402 H   0  0  0  0  0  0  0  0  0  0  0  0
    9.5908   10.0840   20.7252 H   0  0  0  0  0  0  0  0  0  0  0  0
   10.4169    9.0064   21.8494 H   0  0  0  0  0  0  0  0  0  0  0  0
    9.5240   14.0587   26.0396 H   0  0  0  0  0  0  0  0  0  0  0  0
    7.7572   13.9453   25.8470 H   0  0  0  0  0  0  0  0  0  0  0  0
    8.5883   12.8397   26.9398 H   0  0  0  0  0  0  0  0  0  0  0  0
    8.8544   15.7418   24.4344 H   0  0  0  0  0  0  0  0  0  0  0  0
  1  2  2  0  0  0  0
  1  5  1  0  0  0  0
  2  7  1  0  0  0  0
  3  4  1  0  0  0  0
  3  8  2  0  0  0  0
  4  9  2  0  0  0  0
  5 11  2  0  0  0  0
  6  8  1  0  0  0  0
  6 10  2  0  0  0  0
  7 14  2  0  0  0  0
  8 12  1  0  0  0  0
  9 10  1  0  0  0  0
  9 13  1  0  0  0  0
 10 18  1  0  0  0  0
 11 14  1  0  0  0  0
 11 15  1  0  0  0  0
 15 18  1  0  0  0  0
 16 18  2  0  0  0  0
 17 18  2  0  0  0  0
  1 19  1  0  0  0  0
  2 20  1  0  0  0  0
  3 21  1  0  0  0  0
  4 22  1  0  0  0  0
  5 23  1  0  0  0  0
  6 24  1  0  0  0  0
  7 25  1  0  0  0  0
 12 26  1  0  0  0  0
 12 27  1  0  0  0  0
 12 28  1  0  0  0  0
 13 29  1  0  0  0  0
 13 30  1  0  0  0  0
 13 31  1  0  0  0  0
 15 32  1  0  0  0  0
M  END
> <Catalog ID>
Z56996453

> <PlateID>
1337959-R-12

> <Well>
E03

> <MW (desalted)>
262.327

> <CLogP>
2.711

> <HBD>
1

> <TPSA>
59.060

> <RotBonds>
2

> <ROCS_ShapeQuery>
x0446_0A_x1080_0A_x0929_0A_x0812_0A_x0719_0A_x1140_0A_x0528_0A_x0310_0A

> <ROCS_TanimotoCombo>
0.327 

> <ROCS_ShapeTanimoto>
0.205 

> <ROCS_ColorTanimoto>
0.121 

> <ROCS_RefTversky>
0.190 

> <ROCS_RefColorTversky>
0.131 

> <ROCS_RefTverskyCombo>
0.321 

> <ROCS_FitTversky>
1.643 

> <ROCS_FitColorTversky>
0.618 

> <ROCS_FitTverskyCombo>
2.261 

> <ROCS_ColorScore>
-4.675

> <ROCS_Overlap>
2242.962

> <ROCS_Rank>
145                 

$$$$
untitled-dbase-631_5
  -OEChem-02082415003D

 29 30  0     1  0  0  0  0  0999 V2000
    8.5131   12.3165   24.4117 C   0  0  0  0  0  0  0  0  0  0  0  0
    9.4468   11.2899   22.6088 C   0  0  0  0  0  0  0  0  0  0  0  0
    6.6899   10.5405   24.5628 C   0  0  0  0  0  0  0  0  0  0  0  0
    6.1562   10.8406   25.9541 C   0  0  0  0  0  0  0  0  0  0  0  0
    8.7785   10.2254   25.8402 C   0  0  0  0  0  0  0  0  0  0  0  0
    8.1879   10.8231   24.5708 C   0  0  2  0  0  0  0  0  0  0  0  0
    8.1399   16.3613   20.6805 C   0  0  0  0  0  0  0  0  0  0  0  0
    9.7127   13.7775   22.7830 C   0  0  0  0  0  0  0  0  0  0  0  0
    8.6494   14.4298   21.9185 C   0  0  0  0  0  0  0  0  0  0  0  0
    8.8341   10.3060   23.3838 N   0  0  0  0  0  0  0  0  0  0  0  0
    9.2367   12.4912   23.2515 N   0  0  0  0  0  0  0  0  0  0  0  0
    8.1762   13.1896   25.2016 O   0  0  0  0  0  0  0  0  0  0  0  0
   10.0503   11.0950   21.5616 O   0  0  0  0  0  0  0  0  0  0  0  0
    9.1064   15.7065   21.4905 O   0  0  0  0  0  0  0  0  0  0  0  0
    7.4673   10.3286   27.0954 S   0  0  0  0  0  0  0  0  0  0  0  0
    6.4621    9.5062   24.2659 H   0  0  0  0  0  0  0  0  0  0  0  0
    6.1838   11.1801   23.8220 H   0  0  0  0  0  0  0  0  0  0  0  0
    5.9194   11.9022   26.0784 H   0  0  0  0  0  0  0  0  0  0  0  0
    5.2528   10.2578   26.1662 H   0  0  0  0  0  0  0  0  0  0  0  0
    9.1058    9.1855   25.7084 H   0  0  0  0  0  0  0  0  0  0  0  0
    9.6470   10.7966   26.1945 H   0  0  0  0  0  0  0  0  0  0  0  0
    8.5235   17.3365   20.3706 H   0  0  0  0  0  0  0  0  0  0  0  0
    7.2130   16.4856   21.2462 H   0  0  0  0  0  0  0  0  0  0  0  0
    7.9453   15.7509   19.7956 H   0  0  0  0  0  0  0  0  0  0  0  0
   10.6379   13.6167   22.2205 H   0  0  0  0  0  0  0  0  0  0  0  0
    9.9282   14.4003   23.6565 H   0  0  0  0  0  0  0  0  0  0  0  0
    7.7328   14.5761   22.4984 H   0  0  0  0  0  0  0  0  0  0  0  0
    8.4205   13.8237   21.0359 H   0  0  0  0  0  0  0  0  0  0  0  0
    8.8404    9.3174   23.1383 H   0  0  0  0  0  0  0  0  0  0  0  0
  1  6  1  0  0  0  0
  1 11  1  0  0  0  0
  1 12  2  0  0  0  0
  2 10  1  0  0  0  0
  2 11  1  0  0  0  0
  2 13  2  0  0  0  0
  3  4  1  0  0  0  0
  3  6  1  0  0  0  0
  4 15  1  0  0  0  0
  5  6  1  0  0  0  0
  5 15  1  0  0  0  0
  6 10  1  0  0  0  0
  7 14  1  0  0  0  0
  8  9  1  0  0  0  0
  8 11  1  0  0  0  0
  9 14  1  0  0  0  0
  3 16  1  0  0  0  0
  3 17  1  0  0  0  0
  4 18  1  0  0  0  0
  4 19  1  0  0  0  0
  5 20  1  0  0  0  0
  5 21  1  0  0  0  0
  7 22  1  0  0  0  0
  7 23  1  0  0  0  0
  7 24  1  0  0  0  0
  8 25  1  0  0  0  0
  8 26  1  0  0  0  0
  9 27  1  0  0  0  0
  9 28  1  0  0  0  0
 10 29  1  0  0  0  0
M  END
> <Catalog ID>
Z167765994

> <PlateID>
1337959-R-14

> <Well>
H07

> <MW (desalted)>
230.284

> <CLogP>
-0.285

> <HBD>
1

> <TPSA>
58.640

> <RotBonds>
3

> <ROCS_ShapeQuery>
x0446_0A_x1080_0A_x0929_0A_x0812_0A_x0719_0A_x1140_0A_x0528_0A_x0310_0A

> <ROCS_TanimotoCombo>
0.327 

> <ROCS_ShapeTanimoto>
0.190 

> <ROCS_ColorTanimoto>
0.137 

> <ROCS_RefTversky>
0.176 

> <ROCS_RefColorTversky>
0.146 

> <ROCS_RefTverskyCombo>
0.322 

> <ROCS_FitTversky>
1.676 

> <ROCS_FitColorTversky>
0.688 

> <ROCS_FitTverskyCombo>
2.364 

> <ROCS_ColorScore>
-5.203

> <ROCS_Overlap>
2078.168

> <ROCS_Rank>
146                 

$$$$
untitled-dbase-194_0
  -OEChem-02082415003D

 19 20  0     0  0  0  0  0  0999 V2000
    7.4937   10.8009   24.6899 C   0  0  0  0  0  0  0  0  0  0  0  0
    8.4609    9.7977   24.6298 C   0  0  0  0  0  0  0  0  0  0  0  0
    7.7411   12.0441   24.1076 C   0  0  0  0  0  0  0  0  0  0  0  0
    9.6756   10.0376   23.9874 C   0  0  0  0  0  0  0  0  0  0  0  0
    8.9557   12.2840   23.4652 C   0  0  0  0  0  0  0  0  0  0  0  0
    9.9230   11.2808   23.4050 C   0  0  0  0  0  0  0  0  0  0  0  0
    9.2061   13.5655   22.8666 C   0  0  0  0  0  0  0  0  0  0  0  0
    8.5056   14.2148   21.8523 C   0  0  0  0  0  0  0  0  0  0  0  0
   10.2291   14.3180   23.2677 N   0  0  0  0  0  0  0  0  0  0  0  0
    9.0704   15.3922   21.5903 N   0  0  0  0  0  0  0  0  0  0  0  0
    7.4115   13.6928   21.2436 N   0  0  0  0  0  0  0  0  0  0  0  0
   10.1500   15.4632   22.4728 O   0  0  0  0  0  0  0  0  0  0  0  0
   11.0959   11.4955   22.7913 F   0  0  0  0  0  0  0  0  0  0  0  0
    6.5478   10.6140   25.1901 H   0  0  0  0  0  0  0  0  0  0  0  0
    8.2681    8.8298   25.0829 H   0  0  0  0  0  0  0  0  0  0  0  0
    6.9762   12.8152   24.1625 H   0  0  0  0  0  0  0  0  0  0  0  0
   10.4287    9.2568   23.9409 H   0  0  0  0  0  0  0  0  0  0  0  0
    7.0620   12.7537   21.4699 H   0  0  0  0  0  0  0  0  0  0  0  0
    6.9433   14.1739   20.4660 H   0  0  0  0  0  0  0  0  0  0  0  0
  1  2  2  0  0  0  0
  1  3  1  0  0  0  0
  2  4  1  0  0  0  0
  3  5  2  0  0  0  0
  4  6  2  0  0  0  0
  5  6  1  0  0  0  0
  5  7  1  0  0  0  0
  6 13  1  0  0  0  0
  7  8  1  0  0  0  0
  7  9  2  0  0  0  0
  8 10  2  0  0  0  0
  8 11  1  0  0  0  0
  9 12  1  0  0  0  0
 10 12  1  0  0  0  0
  1 14  1  0  0  0  0
  2 15  1  0  0  0  0
  3 16  1  0  0  0  0
  4 17  1  0  0  0  0
 11 18  1  0  0  0  0
 11 19  1  0  0  0  0
M  END
> <Catalog ID>
Z992248534

> <PlateID>
1337959-R-04

> <Well>
H07

> <MW (desalted)>
179.151

> <CLogP>
2.137

> <HBD>
1

> <TPSA>
64.940

> <RotBonds>
1

> <ROCS_ShapeQuery>
x0446_0A_x1080_0A_x0929_0A_x0812_0A_x0719_0A_x1140_0A_x0528_0A_x0310_0A

> <ROCS_TanimotoCombo>
0.326 

> <ROCS_ShapeTanimoto>
0.188 

> <ROCS_ColorTanimoto>
0.139 

> <ROCS_RefTversky>
0.174 

> <ROCS_RefColorTversky>
0.148 

> <ROCS_RefTverskyCombo>
0.322 

> <ROCS_FitTversky>
1.727 

> <ROCS_FitColorTversky>
0.694 

> <ROCS_FitTverskyCombo>
2.421 

> <ROCS_ColorScore>
-5.259

> <ROCS_Overlap>
2053.320

> <ROCS_Rank>
147                 

$$$$
untitled-dbase-677_6
  -OEChem-02082415003D

 36 38  0     0  0  0  0  0  0999 V2000
    5.5157   12.0068   24.7918 C   0  0  0  0  0  0  0  0  0  0  0  0
    6.2989   10.8706   24.5864 C   0  0  0  0  0  0  0  0  0  0  0  0
    7.4262   13.4155   24.3318 C   0  0  0  0  0  0  0  0  0  0  0  0
    6.0772   13.2772   24.6596 C   0  0  0  0  0  0  0  0  0  0  0  0
    7.6449   11.0081   24.2456 C   0  0  0  0  0  0  0  0  0  0  0  0
    8.2135   12.2798   24.1396 C   0  0  0  0  0  0  0  0  0  0  0  0
    2.9248   14.3524   25.8009 C   0  0  0  0  0  0  0  0  0  0  0  0
    3.7270   15.3133   26.6572 C   0  0  0  0  0  0  0  0  0  0  0  0
    3.7181   14.2681   24.4997 C   0  0  0  0  0  0  0  0  0  0  0  0
    5.1666   14.8962   26.3892 C   0  0  0  0  0  0  0  0  0  0  0  0
    9.5963   10.1089   23.3683 C   0  0  0  0  0  0  0  0  0  0  0  0
   10.3066   11.2865   24.0068 C   0  0  0  0  0  0  0  0  0  0  0  0
    5.2102   14.5252   24.8795 C   0  0  0  0  0  0  0  0  0  0  0  0
    5.6913   15.7628   24.0867 C   0  0  0  0  0  0  0  0  0  0  0  0
    5.6770   15.4737   22.6936 N   0  0  0  0  0  0  0  0  0  0  0  0
    8.3573    9.8561   24.0367 O   0  0  0  0  0  0  0  0  0  0  0  0
    9.5359   12.4796   23.8403 O   0  0  0  0  0  0  0  0  0  0  0  0
    4.4664   11.8924   25.0510 H   0  0  0  0  0  0  0  0  0  0  0  0
    5.8513    9.8853   24.6838 H   0  0  0  0  0  0  0  0  0  0  0  0
    7.8659   14.4054   24.2362 H   0  0  0  0  0  0  0  0  0  0  0  0
    2.8223   13.3753   26.2655 H   0  0  0  0  0  0  0  0  0  0  0  0
    1.9295   14.7516   25.6158 H   0  0  0  0  0  0  0  0  0  0  0  0
    3.5585   16.3360   26.3350 H   0  0  0  0  0  0  0  0  0  0  0  0
    3.4785   15.2316   27.7088 H   0  0  0  0  0  0  0  0  0  0  0  0
    3.6050   13.2620   24.0744 H   0  0  0  0  0  0  0  0  0  0  0  0
    3.3526   14.9771   23.7492 H   0  0  0  0  0  0  0  0  0  0  0  0
    5.8777   15.6835   26.6461 H   0  0  0  0  0  0  0  0  0  0  0  0
    5.4079   14.0214   27.0018 H   0  0  0  0  0  0  0  0  0  0  0  0
    9.3911   10.2882   22.3056 H   0  0  0  0  0  0  0  0  0  0  0  0
   10.2087    9.2056   23.4493 H   0  0  0  0  0  0  0  0  0  0  0  0
   10.4749   11.1245   25.0788 H   0  0  0  0  0  0  0  0  0  0  0  0
   11.2783   11.4486   23.5298 H   0  0  0  0  0  0  0  0  0  0  0  0
    5.0078   16.5761   24.3193 H   0  0  0  0  0  0  0  0  0  0  0  0
    6.7009   15.9853   24.4245 H   0  0  0  0  0  0  0  0  0  0  0  0
    6.5937   15.6010   22.3021 H   0  0  0  0  0  0  0  0  0  0  0  0
    5.3901   14.5231   22.5388 H   0  0  0  0  0  0  0  0  0  0  0  0
  1  2  1  0  0  0  0
  1  4  2  0  0  0  0
  2  5  2  0  0  0  0
  3  4  1  0  0  0  0
  3  6  2  0  0  0  0
  4 13  1  0  0  0  0
  5  6  1  0  0  0  0
  5 16  1  0  0  0  0
  6 17  1  0  0  0  0
  7  8  1  0  0  0  0
  7  9  1  0  0  0  0
  8 10  1  0  0  0  0
  9 13  1  0  0  0  0
 10 13  1  0  0  0  0
 11 12  1  0  0  0  0
 11 16  1  0  0  0  0
 12 17  1  0  0  0  0
 13 14  1  0  0  0  0
 14 15  1  0  0  0  0
  1 18  1  0  0  0  0
  2 19  1  0  0  0  0
  3 20  1  0  0  0  0
  7 21  1  0  0  0  0
  7 22  1  0  0  0  0
  8 23  1  0  0  0  0
  8 24  1  0  0  0  0
  9 25  1  0  0  0  0
  9 26  1  0  0  0  0
 10 27  1  0  0  0  0
 10 28  1  0  0  0  0
 11 29  1  0  0  0  0
 11 30  1  0  0  0  0
 12 31  1  0  0  0  0
 12 32  1  0  0  0  0
 14 33  1  0  0  0  0
 14 34  1  0  0  0  0
 15 35  1  0  0  0  0
 15 36  1  0  0  0  0
M  END
> <Catalog ID>
Z372854014

> <PlateID>
1337959-R-15

> <Well>
G10

> <MW (desalted)>
233.306

> <CLogP>
2.909

> <HBD>
1

> <TPSA>
44.480

> <RotBonds>
2

> <ROCS_ShapeQuery>
x0446_0A_x1080_0A_x0929_0A_x0812_0A_x0719_0A_x1140_0A_x0528_0A_x0310_0A

> <ROCS_TanimotoCombo>
0.326 

> <ROCS_ShapeTanimoto>
0.178 

> <ROCS_ColorTanimoto>
0.149 

> <ROCS_RefTversky>
0.168 

> <ROCS_RefColorTversky>
0.160 

> <ROCS_RefTverskyCombo>
0.329 

> <ROCS_FitTversky>
1.472 

> <ROCS_FitColorTversky>
0.672 

> <ROCS_FitTverskyCombo>
2.144 

> <ROCS_ColorScore>
-5.725

> <ROCS_Overlap>
1983.329

> <ROCS_Rank>
148                 

$$$$
untitled-dbase-538_5
  -OEChem-02082415003D

 33 34  0     0  0  0  0  0  0999 V2000
    8.4000   11.5051   25.2069 C   0  0  0  0  0  0  0  0  0  0  0  0
    8.7422   10.2399   24.7298 C   0  0  0  0  0  0  0  0  0  0  0  0
    9.2788   11.1966   22.5772 C   0  0  0  0  0  0  0  0  0  0  0  0
    8.9365   12.4619   23.0543 C   0  0  0  0  0  0  0  0  0  0  0  0
    8.4971   12.6162   24.3691 C   0  0  0  0  0  0  0  0  0  0  0  0
    9.1816   10.0856   23.4150 C   0  0  0  0  0  0  0  0  0  0  0  0
    9.0401   13.6320   22.1677 C   0  0  0  0  0  0  0  0  0  0  0  0
   11.4164   13.9806   22.9609 C   0  0  0  0  0  0  0  0  0  0  0  0
   12.0214   15.2279   23.5915 C   0  0  0  0  0  0  0  0  0  0  0  0
   11.9015   16.0063   21.3286 C   0  0  0  0  0  0  0  0  0  0  0  0
   10.4202   15.5530   21.2844 C   0  0  0  0  0  0  0  0  0  0  0  0
    9.5247   16.6976   21.7954 C   0  0  0  0  0  0  0  0  0  0  0  0
   10.0851   15.2492   19.8110 C   0  0  0  0  0  0  0  0  0  0  0  0
   10.2530   14.3382   22.1353 N   0  0  0  0  0  0  0  0  0  0  0  0
    8.0378   13.8856   21.5016 O   0  0  0  0  0  0  0  0  0  0  0  0
   12.3616   16.2488   22.6553 O   0  0  0  0  0  0  0  0  0  0  0  0
    8.1656   13.8271   24.8394 F   0  0  0  0  0  0  0  0  0  0  0  0
    9.6039    8.5243   22.8266 Cl  0  0  0  0  0  0  0  0  0  0  0  0
    8.0576   11.6255   26.2304 H   0  0  0  0  0  0  0  0  0  0  0  0
    8.6619    9.3831   25.3937 H   0  0  0  0  0  0  0  0  0  0  0  0
    9.6210   11.0798   21.5512 H   0  0  0  0  0  0  0  0  0  0  0  0
   12.1780   13.4741   22.3836 H   0  0  0  0  0  0  0  0  0  0  0  0
   11.0543   13.3120   23.7358 H   0  0  0  0  0  0  0  0  0  0  0  0
   11.2940   15.6680   24.3082 H   0  0  0  0  0  0  0  0  0  0  0  0
   12.9150   14.9729   24.2091 H   0  0  0  0  0  0  0  0  0  0  0  0
   12.5614   15.2661   20.8510 H   0  0  0  0  0  0  0  0  0  0  0  0
   12.0317   16.9425   20.7685 H   0  0  0  0  0  0  0  0  0  0  0  0
    8.4884   16.3799   21.7643 H   0  0  0  0  0  0  0  0  0  0  0  0
    9.6612   17.5666   21.1613 H   0  0  0  0  0  0  0  0  0  0  0  0
    9.8038   16.9398   22.8150 H   0  0  0  0  0  0  0  0  0  0  0  0
    9.0529   14.9285   19.7441 H   0  0  0  0  0  0  0  0  0  0  0  0
   10.7406   14.4637   19.4561 H   0  0  0  0  0  0  0  0  0  0  0  0
   10.2324   16.1477   19.2245 H   0  0  0  0  0  0  0  0  0  0  0  0
  1  2  1  0  0  0  0
  1  5  2  0  0  0  0
  2  6  2  0  0  0  0
  3  4  2  0  0  0  0
  3  6  1  0  0  0  0
  4  5  1  0  0  0  0
  4  7  1  0  0  0  0
  5 17  1  0  0  0  0
  6 18  1  0  0  0  0
  7 14  1  0  0  0  0
  7 15  2  0  0  0  0
  8  9  1  0  0  0  0
  8 14  1  0  0  0  0
  9 16  1  0  0  0  0
 10 11  1  0  0  0  0
 10 16  1  0  0  0  0
 11 12  1  0  0  0  0
 11 13  1  0  0  0  0
 11 14  1  0  0  0  0
  1 19  1  0  0  0  0
  2 20  1  0  0  0  0
  3 21  1  0  0  0  0
  8 22  1  0  0  0  0
  8 23  1  0  0  0  0
  9 24  1  0  0  0  0
  9 25  1  0  0  0  0
 10 26  1  0  0  0  0
 10 27  1  0  0  0  0
 12 28  1  0  0  0  0
 12 29  1  0  0  0  0
 12 30  1  0  0  0  0
 13 31  1  0  0  0  0
 13 32  1  0  0  0  0
 13 33  1  0  0  0  0
M  END
> <Catalog ID>
Z785974974

> <PlateID>
1337959-R-12

> <Well>
G02

> <MW (desalted)>
271.715

> <CLogP>
2.768

> <HBD>
0

> <TPSA>
29.540

> <RotBonds>
1

> <ROCS_ShapeQuery>
x0446_0A_x1080_0A_x0929_0A_x0812_0A_x0719_0A_x1140_0A_x0528_0A_x0310_0A

> <ROCS_TanimotoCombo>
0.326 

> <ROCS_ShapeTanimoto>
0.218 

> <ROCS_ColorTanimoto>
0.109 

> <ROCS_RefTversky>
0.200 

> <ROCS_RefColorTversky>
0.116 

> <ROCS_RefTverskyCombo>
0.316 

> <ROCS_FitTversky>
1.716 

> <ROCS_FitColorTversky>
0.625 

> <ROCS_FitTverskyCombo>
2.341 

> <ROCS_ColorScore>
-4.130

> <ROCS_Overlap>
2355.426

> <ROCS_Rank>
149                 

$$$$
untitled-dbase-607_3
  -OEChem-02082415003D

 32 33  0     0  0  0  0  0  0999 V2000
   11.5567   14.7981   23.4936 C   0  0  0  0  0  0  0  0  0  0  0  0
   11.3552   15.8470   21.3387 C   0  0  0  0  0  0  0  0  0  0  0  0
   12.7677   15.4551   23.6403 C   0  0  0  0  0  0  0  0  0  0  0  0
   12.5752   16.4572   21.5819 C   0  0  0  0  0  0  0  0  0  0  0  0
   10.8432   15.0031   22.3180 C   0  0  0  0  0  0  0  0  0  0  0  0
   10.0564   10.6859   22.6947 C   0  0  0  0  0  0  0  0  0  0  0  0
    9.5509   14.3299   22.1112 C   0  0  0  0  0  0  0  0  0  0  0  0
   10.4485   12.1273   22.9438 C   0  0  0  0  0  0  0  0  0  0  0  0
    8.0145   11.3117   23.8923 C   0  0  0  0  0  0  0  0  0  0  0  0
    7.9673   12.6667   23.1530 C   0  0  0  0  0  0  0  0  0  0  0  0
    7.0397   12.5223   21.9275 C   0  0  0  0  0  0  0  0  0  0  0  0
    7.3692   13.6950   24.1336 C   0  0  0  0  0  0  0  0  0  0  0  0
   13.2973   16.2823   22.7114 N   0  0  0  0  0  0  0  0  0  0  0  0
    8.8112   10.3495   23.1734 N   0  0  0  0  0  0  0  0  0  0  0  0
    9.3423   13.0743   22.7174 N   0  0  0  0  0  0  0  0  0  0  0  0
   10.8468    9.8668   22.2298 O   0  0  0  0  0  0  0  0  0  0  0  0
    8.7381   14.9497   21.4269 O   0  0  0  0  0  0  0  0  0  0  0  0
   11.1856   14.1474   24.2785 H   0  0  0  0  0  0  0  0  0  0  0  0
   10.8238   16.0290   20.4107 H   0  0  0  0  0  0  0  0  0  0  0  0
   13.3623   15.3296   24.5389 H   0  0  0  0  0  0  0  0  0  0  0  0
   13.0180   17.1242   20.8498 H   0  0  0  0  0  0  0  0  0  0  0  0
   10.8254   12.1966   23.9674 H   0  0  0  0  0  0  0  0  0  0  0  0
   11.2587   12.3966   22.2570 H   0  0  0  0  0  0  0  0  0  0  0  0
    8.4386   11.4108   24.8977 H   0  0  0  0  0  0  0  0  0  0  0  0
    7.0098   10.8832   23.9966 H   0  0  0  0  0  0  0  0  0  0  0  0
    6.9991   13.4685   21.4006 H   0  0  0  0  0  0  0  0  0  0  0  0
    6.0476   12.2459   22.2650 H   0  0  0  0  0  0  0  0  0  0  0  0
    7.4340   11.7531   21.2736 H   0  0  0  0  0  0  0  0  0  0  0  0
    7.3209   14.6616   23.6463 H   0  0  0  0  0  0  0  0  0  0  0  0
    8.0016   13.7558   25.0113 H   0  0  0  0  0  0  0  0  0  0  0  0
    6.3736   13.3750   24.4176 H   0  0  0  0  0  0  0  0  0  0  0  0
    8.4497    9.4135   23.0187 H   0  0  0  0  0  0  0  0  0  0  0  0
  1  3  1  0  0  0  0
  1  5  2  0  0  0  0
  2  4  2  0  0  0  0
  2  5  1  0  0  0  0
  3 13  2  0  0  0  0
  4 13  1  0  0  0  0
  5  7  1  0  0  0  0
  6  8  1  0  0  0  0
  6 14  1  0  0  0  0
  6 16  2  0  0  0  0
  7 15  1  0  0  0  0
  7 17  2  0  0  0  0
  8 15  1  0  0  0  0
  9 10  1  0  0  0  0
  9 14  1  0  0  0  0
 10 11  1  0  0  0  0
 10 12  1  0  0  0  0
 10 15  1  0  0  0  0
  1 18  1  0  0  0  0
  2 19  1  0  0  0  0
  3 20  1  0  0  0  0
  4 21  1  0  0  0  0
  8 22  1  0  0  0  0
  8 23  1  0  0  0  0
  9 24  1  0  0  0  0
  9 25  1  0  0  0  0
 11 26  1  0  0  0  0
 11 27  1  0  0  0  0
 11 28  1  0  0  0  0
 12 29  1  0  0  0  0
 12 30  1  0  0  0  0
 12 31  1  0  0  0  0
 14 32  1  0  0  0  0
M  END
> <Catalog ID>
Z2001753056

> <PlateID>
1337959-R-14

> <Well>
B06

> <MW (desalted)>
233.266

> <CLogP>
0.498

> <HBD>
1

> <TPSA>
62.300

> <RotBonds>
1

> <ROCS_ShapeQuery>
x0446_0A_x1080_0A_x0929_0A_x0812_0A_x0719_0A_x1140_0A_x0528_0A_x0310_0A

> <ROCS_TanimotoCombo>
0.326 

> <ROCS_ShapeTanimoto>
0.207 

> <ROCS_ColorTanimoto>
0.119 

> <ROCS_RefTversky>
0.191 

> <ROCS_RefColorTversky>
0.132 

> <ROCS_RefTverskyCombo>
0.323 

> <ROCS_FitTversky>
1.681 

> <ROCS_FitColorTversky>
0.552 

> <ROCS_FitTverskyCombo>
2.232 

> <ROCS_ColorScore>
-4.694

> <ROCS_Overlap>
2256.158

> <ROCS_Rank>
150                 

$$$$
untitled-dbase-620_7
  -OEChem-02082415003D

 35 36  0     1  0  0  0  0  0999 V2000
    9.1566    9.8893   23.7725 C   0  0  0  0  0  0  0  0  0  0  0  0
    8.8306   10.1625   25.1009 C   0  0  0  0  0  0  0  0  0  0  0  0
    8.8257   10.8024   22.7712 C   0  0  0  0  0  0  0  0  0  0  0  0
    8.1737   11.3486   25.4281 C   0  0  0  0  0  0  0  0  0  0  0  0
    8.1688   11.9886   23.0984 C   0  0  0  0  0  0  0  0  0  0  0  0
    7.8428   12.2617   24.4268 C   0  0  0  0  0  0  0  0  0  0  0  0
   10.5931   13.3628   22.8135 C   0  0  0  0  0  0  0  0  0  0  0  0
    7.7355   15.2603   21.3856 C   0  0  0  0  0  0  0  0  0  0  0  0
    8.3733   16.6304   21.5600 C   0  0  0  0  0  0  0  0  0  0  0  0
    9.8872   14.2503   21.8306 C   0  0  2  0  0  0  0  0  0  0  0  0
   10.4899   15.6665   21.9266 C   0  0  1  0  0  0  0  0  0  0  0  0
   11.9234   15.7133   21.4026 C   0  0  0  0  0  0  0  0  0  0  0  0
    7.8286   12.9438   21.9911 C   0  0  0  0  0  0  0  0  0  0  0  0
    8.4544   14.2566   22.1869 N   0  0  2  0  0  0  0  0  0  0  0  0
   11.2432   12.2994   22.2332 N   0  0  0  0  0  0  0  0  0  0  0  0
   10.5912   13.5939   24.0202 O   0  0  0  0  0  0  0  0  0  0  0  0
    9.7314   16.5858   21.1325 O   0  0  0  0  0  0  0  0  0  0  0  0
    7.0304   13.7188   24.8698 Cl  0  0  0  0  0  0  0  0  0  0  0  0
    9.6689    8.9659   23.5180 H   0  0  0  0  0  0  0  0  0  0  0  0
    9.0895    9.4518   25.8803 H   0  0  0  0  0  0  0  0  0  0  0  0
    9.0847   10.5799   21.7393 H   0  0  0  0  0  0  0  0  0  0  0  0
    7.9278   11.5470   26.4682 H   0  0  0  0  0  0  0  0  0  0  0  0
    6.6875   15.3164   21.7022 H   0  0  0  0  0  0  0  0  0  0  0  0
    7.7563   14.9821   20.3236 H   0  0  0  0  0  0  0  0  0  0  0  0
    7.8527   17.3656   20.9380 H   0  0  0  0  0  0  0  0  0  0  0  0
    8.3205   16.9782   22.5989 H   0  0  0  0  0  0  0  0  0  0  0  0
   10.0252   13.8489   20.8185 H   0  0  0  0  0  0  0  0  0  0  0  0
   10.4937   16.0243   22.9654 H   0  0  0  0  0  0  0  0  0  0  0  0
   11.9516   15.3634   20.3719 H   0  0  0  0  0  0  0  0  0  0  0  0
   12.5608   15.0756   22.0130 H   0  0  0  0  0  0  0  0  0  0  0  0
   12.2981   16.7349   21.4426 H   0  0  0  0  0  0  0  0  0  0  0  0
    8.1644   12.5507   21.0253 H   0  0  0  0  0  0  0  0  0  0  0  0
    6.7464   13.0958   21.9219 H   0  0  0  0  0  0  0  0  0  0  0  0
   11.2014   12.1946   21.2247 H   0  0  0  0  0  0  0  0  0  0  0  0
   11.7632   11.6151   22.7728 H   0  0  0  0  0  0  0  0  0  0  0  0
  1  2  2  0  0  0  0
  1  3  1  0  0  0  0
  2  4  1  0  0  0  0
  3  5  2  0  0  0  0
  4  6  2  0  0  0  0
  5  6  1  0  0  0  0
  5 13  1  0  0  0  0
  6 18  1  0  0  0  0
  7 10  1  1  0  0  0
  7 15  1  0  0  0  0
  7 16  2  0  0  0  0
  8  9  1  0  0  0  0
  8 14  1  0  0  0  0
  9 17  1  0  0  0  0
 10 11  1  0  0  0  0
 10 14  1  0  0  0  0
 11 12  1  6  0  0  0
 11 17  1  0  0  0  0
 13 14  1  0  0  0  0
  1 19  1  0  0  0  0
  2 20  1  0  0  0  0
  3 21  1  0  0  0  0
  4 22  1  0  0  0  0
  8 23  1  0  0  0  0
  8 24  1  0  0  0  0
  9 25  1  0  0  0  0
  9 26  1  0  0  0  0
 10 27  1  0  0  0  0
 11 28  1  0  0  0  0
 12 29  1  0  0  0  0
 12 30  1  0  0  0  0
 12 31  1  0  0  0  0
 13 32  1  0  0  0  0
 13 33  1  0  0  0  0
 15 34  1  0  0  0  0
 15 35  1  0  0  0  0
M  END
> <Catalog ID>
Z2054763196

> <PlateID>
1337959-R-14

> <Well>
F02

> <MW (desalted)>
268.739

> <CLogP>
2.105

> <HBD>
1

> <TPSA>
55.560

> <RotBonds>
3

> <ROCS_ShapeQuery>
x0446_0A_x1080_0A_x0929_0A_x0812_0A_x0719_0A_x1140_0A_x0528_0A_x0310_0A

> <ROCS_TanimotoCombo>
0.326 

> <ROCS_ShapeTanimoto>
0.218 

> <ROCS_ColorTanimoto>
0.108 

> <ROCS_RefTversky>
0.200 

> <ROCS_RefColorTversky>
0.118 

> <ROCS_RefTverskyCombo>
0.318 

> <ROCS_FitTversky>
1.728 

> <ROCS_FitColorTversky>
0.556 

> <ROCS_FitTverskyCombo>
2.284 

> <ROCS_ColorScore>
-4.203

> <ROCS_Overlap>
2357.757

> <ROCS_Rank>
151                 

$$$$
untitled-dbase-587_25
  -OEChem-02082415003D

 30 31  0     1  0  0  0  0  0999 V2000
    7.9262   10.5503   24.2899 C   0  0  0  0  0  0  0  0  0  0  0  0
    9.0575   10.1045   23.6065 C   0  0  0  0  0  0  0  0  0  0  0  0
    7.7700   11.9080   24.5691 C   0  0  0  0  0  0  0  0  0  0  0  0
   10.0326   11.0163   23.2025 C   0  0  0  0  0  0  0  0  0  0  0  0
    8.7452   12.8199   24.1651 C   0  0  0  0  0  0  0  0  0  0  0  0
    9.8765   12.3740   23.4818 C   0  0  0  0  0  0  0  0  0  0  0  0
    5.7344   15.2800   25.3906 C   0  0  0  0  0  0  0  0  0  0  0  0
    5.2058   15.8706   24.1154 C   0  0  0  0  0  0  0  0  0  0  0  0
    6.1850   14.7329   24.0663 C   0  0  0  0  0  0  0  0  0  0  0  0
    6.8115   16.1745   21.3051 C   0  0  0  0  0  0  0  0  0  0  0  0
    8.5734   14.2804   24.4674 C   0  0  0  0  0  0  0  0  0  0  0  0
    7.5734   14.9184   23.5752 N   0  0  1  0  0  0  0  0  0  0  0  0
    9.2197   15.2060   21.5955 O   0  0  0  0  0  0  0  0  0  0  0  0
    7.2918   13.6075   21.3582 O   0  0  0  0  0  0  0  0  0  0  0  0
   10.8188   13.2427   23.0893 F   0  0  0  0  0  0  0  0  0  0  0  0
    7.8442   14.8432   21.8803 S   0  0  0  0  0  0  0  0  0  0  0  0
    7.1669    9.8402   24.6051 H   0  0  0  0  0  0  0  0  0  0  0  0
    9.1794    9.0474   23.3897 H   0  0  0  0  0  0  0  0  0  0  0  0
    6.8856   12.2461   25.1027 H   0  0  0  0  0  0  0  0  0  0  0  0
   10.9135   10.6696   22.6701 H   0  0  0  0  0  0  0  0  0  0  0  0
    6.4328   15.8732   25.9681 H   0  0  0  0  0  0  0  0  0  0  0  0
    5.0610   14.6735   25.9838 H   0  0  0  0  0  0  0  0  0  0  0  0
    4.1761   15.6628   23.8518 H   0  0  0  0  0  0  0  0  0  0  0  0
    5.5503   16.8592   23.8383 H   0  0  0  0  0  0  0  0  0  0  0  0
    5.7987   13.7617   23.7782 H   0  0  0  0  0  0  0  0  0  0  0  0
    6.8973   16.2322   20.2189 H   0  0  0  0  0  0  0  0  0  0  0  0
    5.7818   15.9622   21.5967 H   0  0  0  0  0  0  0  0  0  0  0  0
    7.1564   17.1014   21.7658 H   0  0  0  0  0  0  0  0  0  0  0  0
    8.2429   14.4243   25.5018 H   0  0  0  0  0  0  0  0  0  0  0  0
    9.5191   14.8199   24.3501 H   0  0  0  0  0  0  0  0  0  0  0  0
  1  2  2  0  0  0  0
  1  3  1  0  0  0  0
  2  4  1  0  0  0  0
  3  5  2  0  0  0  0
  4  6  2  0  0  0  0
  5  6  1  0  0  0  0
  5 11  1  0  0  0  0
  6 15  1  0  0  0  0
  7  8  1  0  0  0  0
  7  9  1  0  0  0  0
  8  9  1  0  0  0  0
  9 12  1  0  0  0  0
 10 16  1  0  0  0  0
 11 12  1  0  0  0  0
 12 16  1  0  0  0  0
 13 16  2  0  0  0  0
 14 16  2  0  0  0  0
  1 17  1  0  0  0  0
  2 18  1  0  0  0  0
  3 19  1  0  0  0  0
  4 20  1  0  0  0  0
  7 21  1  0  0  0  0
  7 22  1  0  0  0  0
  8 23  1  0  0  0  0
  8 24  1  0  0  0  0
  9 25  1  0  0  0  0
 10 26  1  0  0  0  0
 10 27  1  0  0  0  0
 10 28  1  0  0  0  0
 11 29  1  0  0  0  0
 11 30  1  0  0  0  0
M  END
> <Catalog ID>
Z133805700

> <PlateID>
1337959-R-13

> <Well>
F09

> <MW (desalted)>
243.298

> <CLogP>
1.603

> <HBD>
0

> <TPSA>
37.380

> <RotBonds>
3

> <ROCS_ShapeQuery>
x0446_0A_x1080_0A_x0929_0A_x0812_0A_x0719_0A_x1140_0A_x0528_0A_x0310_0A

> <ROCS_TanimotoCombo>
0.326 

> <ROCS_ShapeTanimoto>
0.205 

> <ROCS_ColorTanimoto>
0.121 

> <ROCS_RefTversky>
0.188 

> <ROCS_RefColorTversky>
0.122 

> <ROCS_RefTverskyCombo>
0.310 

> <ROCS_FitTversky>
1.764 

> <ROCS_FitColorTversky>
0.918 

> <ROCS_FitTverskyCombo>
2.682 

> <ROCS_ColorScore>
-4.327

> <ROCS_Overlap>
2223.533

> <ROCS_Rank>
152                 

$$$$
untitled-dbase-621_20
  -OEChem-02082415003D

 34 35  0     1  0  0  0  0  0999 V2000
   12.7846   15.1991   23.4034 C   0  0  0  0  0  0  0  0  0  0  0  0
   11.4635   14.7652   23.5127 C   0  0  0  0  0  0  0  0  0  0  0  0
   13.3602   15.3715   22.1446 C   0  0  0  0  0  0  0  0  0  0  0  0
   11.2936   14.6758   21.1043 C   0  0  0  0  0  0  0  0  0  0  0  0
   10.7180   14.5035   22.3631 C   0  0  0  0  0  0  0  0  0  0  0  0
   12.6148   15.1098   20.9950 C   0  0  0  0  0  0  0  0  0  0  0  0
    9.3226   14.0445   22.4795 C   0  0  0  0  0  0  0  0  0  0  0  0
    7.9371   11.0830   24.2404 C   0  0  0  0  0  0  0  0  0  0  0  0
   10.0027   11.7187   23.2418 C   0  0  0  0  0  0  0  0  0  0  0  0
    9.0910   10.5160   23.4220 C   0  0  1  0  0  0  0  0  0  0  0  0
    7.7678   12.5045   23.6947 C   0  0  1  0  0  0  0  0  0  0  0  0
    9.0468    8.2471   24.0078 C   0  0  0  0  0  0  0  0  0  0  0  0
    7.2856   13.4575   24.7823 C   0  0  0  0  0  0  0  0  0  0  0  0
    9.0870   12.8537   23.1576 N   0  0  0  0  0  0  0  0  0  0  0  0
    8.4574   14.7504   21.9647 O   0  0  0  0  0  0  0  0  0  0  0  0
    6.7230   14.5984   24.1620 O   0  0  0  0  0  0  0  0  0  0  0  0
    9.7537    9.4757   24.1120 O   0  0  0  0  0  0  0  0  0  0  0  0
   13.3256   15.3232   19.4420 Cl  0  0  0  0  0  0  0  0  0  0  0  0
   13.3647   15.4031   24.2985 H   0  0  0  0  0  0  0  0  0  0  0  0
   11.0259   14.6345   24.4991 H   0  0  0  0  0  0  0  0  0  0  0  0
   14.3907   15.7101   22.0750 H   0  0  0  0  0  0  0  0  0  0  0  0
   10.7095   14.4714   20.2092 H   0  0  0  0  0  0  0  0  0  0  0  0
    7.0271   10.5098   24.0330 H   0  0  0  0  0  0  0  0  0  0  0  0
    8.1311   11.0666   25.3157 H   0  0  0  0  0  0  0  0  0  0  0  0
   10.7048   11.8634   24.0638 H   0  0  0  0  0  0  0  0  0  0  0  0
   10.5418   11.6668   22.2931 H   0  0  0  0  0  0  0  0  0  0  0  0
    8.7399   10.1200   22.4547 H   0  0  0  0  0  0  0  0  0  0  0  0
    7.0332   12.5105   22.8767 H   0  0  0  0  0  0  0  0  0  0  0  0
    9.5867    7.4680   24.5515 H   0  0  0  0  0  0  0  0  0  0  0  0
    8.9485    7.9704   22.9551 H   0  0  0  0  0  0  0  0  0  0  0  0
    8.0529    8.3708   24.4443 H   0  0  0  0  0  0  0  0  0  0  0  0
    8.1251   13.7621   25.4062 H   0  0  0  0  0  0  0  0  0  0  0  0
    6.5288   12.9684   25.3943 H   0  0  0  0  0  0  0  0  0  0  0  0
    6.4227   15.1914   24.8721 H   0  0  0  0  0  0  0  0  0  0  0  0
  1  2  1  0  0  0  0
  1  3  2  0  0  0  0
  2  5  2  0  0  0  0
  3  6  1  0  0  0  0
  4  5  1  0  0  0  0
  4  6  2  0  0  0  0
  5  7  1  0  0  0  0
  6 18  1  0  0  0  0
  7 14  1  0  0  0  0
  7 15  2  0  0  0  0
  8 10  1  0  0  0  0
  8 11  1  0  0  0  0
  9 10  1  0  0  0  0
  9 14  1  0  0  0  0
 10 17  1  1  0  0  0
 11 13  1  1  0  0  0
 11 14  1  0  0  0  0
 12 17  1  0  0  0  0
 13 16  1  0  0  0  0
  1 19  1  0  0  0  0
  2 20  1  0  0  0  0
  3 21  1  0  0  0  0
  4 22  1  0  0  0  0
  8 23  1  0  0  0  0
  8 24  1  0  0  0  0
  9 25  1  0  0  0  0
  9 26  1  0  0  0  0
 10 27  1  0  0  0  0
 11 28  1  0  0  0  0
 12 29  1  0  0  0  0
 12 30  1  0  0  0  0
 12 31  1  0  0  0  0
 13 32  1  0  0  0  0
 13 33  1  0  0  0  0
 16 34  1  0  0  0  0
M  END
> <Catalog ID>
Z2055842473

> <PlateID>
1337959-R-14

> <Well>
F06

> <MW (desalted)>
269.724

> <CLogP>
1.284

> <HBD>
1

> <TPSA>
49.770

> <RotBonds>
3

> <ROCS_ShapeQuery>
x0446_0A_x1080_0A_x0929_0A_x0812_0A_x0719_0A_x1140_0A_x0528_0A_x0310_0A

> <ROCS_TanimotoCombo>
0.326 

> <ROCS_ShapeTanimoto>
0.217 

> <ROCS_ColorTanimoto>
0.109 

> <ROCS_RefTversky>
0.199 

> <ROCS_RefColorTversky>
0.119 

> <ROCS_RefTverskyCombo>
0.318 

> <ROCS_FitTversky>
1.717 

> <ROCS_FitColorTversky>
0.562 

> <ROCS_FitTverskyCombo>
2.279 

> <ROCS_ColorScore>
-4.248

> <ROCS_Overlap>
2346.007

> <ROCS_Rank>
153                 

$$$$
untitled-dbase-578_26
  -OEChem-02082415003D

 28 28  0     0  0  0  0  0  0999 V2000
    8.9537    9.9817   24.2024 C   0  0  0  0  0  0  0  0  0  0  0  0
    7.5394   11.9058   23.9158 C   0  0  0  0  0  0  0  0  0  0  0  0
    7.6822   10.5356   24.1040 C   0  0  0  0  0  0  0  0  0  0  0  0
   10.0417   10.8344   24.1069 C   0  0  0  0  0  0  0  0  0  0  0  0
    8.6906   12.6724   23.8333 C   0  0  0  0  0  0  0  0  0  0  0  0
    6.4769    9.6636   24.2006 C   0  0  0  0  0  0  0  0  0  0  0  0
   11.4215   10.2747   24.2079 C   0  0  0  0  0  0  0  0  0  0  0  0
    5.7145   15.1276   23.4130 C   0  0  0  0  0  0  0  0  0  0  0  0
    6.8071   15.8130   22.6234 C   0  0  0  0  0  0  0  0  0  0  0  0
    9.9425   12.1702   23.9243 N   0  0  0  0  0  0  0  0  0  0  0  0
    8.5926   14.0837   23.6402 N   0  0  0  0  0  0  0  0  0  0  0  0
    9.1303   15.4402   21.5139 O   0  0  0  0  0  0  0  0  0  0  0  0
    7.4112   13.6061   21.3538 O   0  0  0  0  0  0  0  0  0  0  0  0
    8.0601   14.6605   22.1074 S   0  0  0  0  0  0  0  0  0  0  0  0
    9.0887    8.9150   24.3504 H   0  0  0  0  0  0  0  0  0  0  0  0
    6.5555   12.3582   23.8390 H   0  0  0  0  0  0  0  0  0  0  0  0
    6.1490    9.5782   25.2440 H   0  0  0  0  0  0  0  0  0  0  0  0
    5.6452   10.0652   23.6069 H   0  0  0  0  0  0  0  0  0  0  0  0
    6.6821    8.6553   23.8172 H   0  0  0  0  0  0  0  0  0  0  0  0
   11.7923    9.9940   23.2149 H   0  0  0  0  0  0  0  0  0  0  0  0
   12.1150   11.0037   24.6459 H   0  0  0  0  0  0  0  0  0  0  0  0
   11.4439    9.3868   24.8526 H   0  0  0  0  0  0  0  0  0  0  0  0
    5.2245   14.3626   22.8035 H   0  0  0  0  0  0  0  0  0  0  0  0
    6.1208   14.6453   24.3081 H   0  0  0  0  0  0  0  0  0  0  0  0
    4.9552   15.8462   23.7381 H   0  0  0  0  0  0  0  0  0  0  0  0
    7.3027   16.5799   23.2252 H   0  0  0  0  0  0  0  0  0  0  0  0
    6.4042   16.2775   21.7194 H   0  0  0  0  0  0  0  0  0  0  0  0
    9.3689   14.6237   24.0571 H   0  0  0  0  0  0  0  0  0  0  0  0
  1  3  2  0  0  0  0
  1  4  1  0  0  0  0
  2  3  1  0  0  0  0
  2  5  2  0  0  0  0
  3  6  1  0  0  0  0
  4  7  1  0  0  0  0
  4 10  2  0  0  0  0
  5 10  1  0  0  0  0
  5 11  1  0  0  0  0
  8  9  1  0  0  0  0
  9 14  1  0  0  0  0
 11 14  1  0  0  0  0
 12 14  2  0  0  0  0
 13 14  2  0  0  0  0
  1 15  1  0  0  0  0
  2 16  1  0  0  0  0
  6 17  1  0  0  0  0
  6 18  1  0  0  0  0
  6 19  1  0  0  0  0
  7 20  1  0  0  0  0
  7 21  1  0  0  0  0
  7 22  1  0  0  0  0
  8 23  1  0  0  0  0
  8 24  1  0  0  0  0
  8 25  1  0  0  0  0
  9 26  1  0  0  0  0
  9 27  1  0  0  0  0
 11 28  1  0  0  0  0
M  END
> <Catalog ID>
Z1729687753

> <PlateID>
1337959-R-13

> <Well>
E06

> <MW (desalted)>
214.285

> <CLogP>
1.611

> <HBD>
1

> <TPSA>
59.060

> <RotBonds>
2

> <ROCS_ShapeQuery>
x0446_0A_x1080_0A_x0929_0A_x0812_0A_x0719_0A_x1140_0A_x0528_0A_x0310_0A

> <ROCS_TanimotoCombo>
0.326 

> <ROCS_ShapeTanimoto>
0.178 

> <ROCS_ColorTanimoto>
0.148 

> <ROCS_RefTversky>
0.166 

> <ROCS_RefColorTversky>
0.153 

> <ROCS_RefTverskyCombo>
0.319 

> <ROCS_FitTversky>
1.668 

> <ROCS_FitColorTversky>
0.823 

> <ROCS_FitTverskyCombo>
2.492 

> <ROCS_ColorScore>
-5.446

> <ROCS_Overlap>
1955.272

> <ROCS_Rank>
154                 

$$$$
untitled-dbase-551_69
  -OEChem-02082415003D

 28 28  0     0  0  0  0  0  0999 V2000
    9.7931   11.5652   23.0911 C   0  0  0  0  0  0  0  0  0  0  0  0
    9.4344   10.2467   23.4204 C   0  0  0  0  0  0  0  0  0  0  0  0
    8.8189   12.3251   23.6825 C   0  0  0  0  0  0  0  0  0  0  0  0
   10.9469   12.0199   22.2967 C   0  0  0  0  0  0  0  0  0  0  0  0
   10.1236    8.9989   23.0513 C   0  0  0  0  0  0  0  0  0  0  0  0
    6.5289   16.6950   20.6797 C   0  0  0  0  0  0  0  0  0  0  0  0
    5.8825   16.0200   21.8777 C   0  0  0  0  0  0  0  0  0  0  0  0
    6.9196   15.6026   22.9072 C   0  0  0  0  0  0  0  0  0  0  0  0
    8.3228   10.1928   24.1595 N   0  0  0  0  0  0  0  0  0  0  0  0
    8.7263   13.7603   23.6438 N   0  0  0  0  0  0  0  0  0  0  0  0
    9.1566   15.2821   21.6187 O   0  0  0  0  0  0  0  0  0  0  0  0
    7.3829   13.5054   21.4124 O   0  0  0  0  0  0  0  0  0  0  0  0
    7.9355   11.5175   24.3232 O   0  0  0  0  0  0  0  0  0  0  0  0
    8.0967   14.4840   22.2166 S   0  0  0  0  0  0  0  0  0  0  0  0
   10.6946   12.0837   21.2243 H   0  0  0  0  0  0  0  0  0  0  0  0
   11.3052   13.0155   22.6136 H   0  0  0  0  0  0  0  0  0  0  0  0
   11.8137   11.3420   22.3945 H   0  0  0  0  0  0  0  0  0  0  0  0
   10.8777    8.7189   23.8068 H   0  0  0  0  0  0  0  0  0  0  0  0
    9.4241    8.1499   22.9498 H   0  0  0  0  0  0  0  0  0  0  0  0
   10.6420    9.0804   22.0789 H   0  0  0  0  0  0  0  0  0  0  0  0
    7.0975   17.5734   21.0005 H   0  0  0  0  0  0  0  0  0  0  0  0
    7.2164   16.0131   20.1691 H   0  0  0  0  0  0  0  0  0  0  0  0
    5.7728   17.0241   19.9595 H   0  0  0  0  0  0  0  0  0  0  0  0
    5.3175   15.1433   21.5398 H   0  0  0  0  0  0  0  0  0  0  0  0
    5.1579   16.7049   22.3338 H   0  0  0  0  0  0  0  0  0  0  0  0
    7.4809   16.4649   23.2793 H   0  0  0  0  0  0  0  0  0  0  0  0
    6.4552   15.0914   23.7558 H   0  0  0  0  0  0  0  0  0  0  0  0
    9.5413   14.2381   24.0517 H   0  0  0  0  0  0  0  0  0  0  0  0
  1  2  1  0  0  0  0
  1  3  2  0  0  0  0
  1  4  1  0  0  0  0
  2  5  1  0  0  0  0
  2  9  2  0  0  0  0
  3 10  1  0  0  0  0
  3 13  1  0  0  0  0
  6  7  1  0  0  0  0
  7  8  1  0  0  0  0
  8 14  1  0  0  0  0
  9 13  1  0  0  0  0
 10 14  1  0  0  0  0
 11 14  2  0  0  0  0
 12 14  2  0  0  0  0
  4 15  1  0  0  0  0
  4 16  1  0  0  0  0
  4 17  1  0  0  0  0
  5 18  1  0  0  0  0
  5 19  1  0  0  0  0
  5 20  1  0  0  0  0
  6 21  1  0  0  0  0
  6 22  1  0  0  0  0
  6 23  1  0  0  0  0
  7 24  1  0  0  0  0
  7 25  1  0  0  0  0
  8 26  1  0  0  0  0
  8 27  1  0  0  0  0
 10 28  1  0  0  0  0
M  END
> <Catalog ID>
Z1607060571

> <PlateID>
1337959-R-12

> <Well>
H10

> <MW (desalted)>
218.273

> <CLogP>
0.528

> <HBD>
1

> <TPSA>
72.200

> <RotBonds>
3

> <ROCS_ShapeQuery>
x0446_0A_x1080_0A_x0929_0A_x0812_0A_x0719_0A_x1140_0A_x0528_0A_x0310_0A

> <ROCS_TanimotoCombo>
0.325 

> <ROCS_ShapeTanimoto>
0.190 

> <ROCS_ColorTanimoto>
0.136 

> <ROCS_RefTversky>
0.175 

> <ROCS_RefColorTversky>
0.145 

> <ROCS_RefTverskyCombo>
0.320 

> <ROCS_FitTversky>
1.768 

> <ROCS_FitColorTversky>
0.683 

> <ROCS_FitTverskyCombo>
2.451 

> <ROCS_ColorScore>
-5.168

> <ROCS_Overlap>
2065.492

> <ROCS_Rank>
155                 

$$$$
untitled-dbase-11_0
  -OEChem-02082415003D

 29 31  0     0  0  0  0  0  0999 V2000
   10.0920   10.9332   23.9143 C   0  0  0  0  0  0  0  0  0  0  0  0
    8.4655   12.2652   23.5713 C   0  0  0  0  0  0  0  0  0  0  0  0
    7.9117   11.0918   24.0305 C   0  0  0  0  0  0  0  0  0  0  0  0
    6.4741   10.8441   24.2519 C   0  0  0  0  0  0  0  0  0  0  0  0
    7.5425   13.6150   21.6461 C   0  0  0  0  0  0  0  0  0  0  0  0
    8.2326   14.7798   23.7702 C   0  0  0  0  0  0  0  0  0  0  0  0
    5.6831   11.9683   23.5529 C   0  0  0  0  0  0  0  0  0  0  0  0
    8.8196   14.1721   21.0217 C   0  0  0  0  0  0  0  0  0  0  0  0
    9.4534   15.2903   23.0075 C   0  0  0  0  0  0  0  0  0  0  0  0
    7.6530   13.4725   23.1808 C   0  0  0  0  0  0  0  0  0  0  0  0
    9.8297   12.1551   23.4971 N   0  0  0  0  0  0  0  0  0  0  0  0
    8.9548   10.2463   24.2515 N   0  0  0  0  0  0  0  0  0  0  0  0
    6.2829   13.3025   23.7646 N   0  0  0  0  0  0  0  0  0  0  0  0
    9.1689   15.4191   21.6169 O   0  0  0  0  0  0  0  0  0  0  0  0
   11.0730   10.4873   23.9954 H   0  0  0  0  0  0  0  0  0  0  0  0
    6.2025    9.8748   23.8195 H   0  0  0  0  0  0  0  0  0  0  0  0
    6.2326   10.8222   25.3188 H   0  0  0  0  0  0  0  0  0  0  0  0
    6.7366   14.3223   21.4149 H   0  0  0  0  0  0  0  0  0  0  0  0
    7.2872   12.6624   21.1718 H   0  0  0  0  0  0  0  0  0  0  0  0
    8.4946   14.6640   24.8325 H   0  0  0  0  0  0  0  0  0  0  0  0
    7.4583   15.5622   23.7187 H   0  0  0  0  0  0  0  0  0  0  0  0
    5.6425   11.7641   22.4758 H   0  0  0  0  0  0  0  0  0  0  0  0
    4.6415   11.9718   23.8992 H   0  0  0  0  0  0  0  0  0  0  0  0
    9.6604   13.4781   21.1045 H   0  0  0  0  0  0  0  0  0  0  0  0
    8.6556   14.3510   19.9549 H   0  0  0  0  0  0  0  0  0  0  0  0
    9.7285   16.2835   23.3806 H   0  0  0  0  0  0  0  0  0  0  0  0
   10.3270   14.6426   23.1476 H   0  0  0  0  0  0  0  0  0  0  0  0
    8.9050    9.2961   24.5948 H   0  0  0  0  0  0  0  0  0  0  0  0
    5.6601   14.0024   23.3637 H   0  0  0  0  0  0  0  0  0  0  0  0
  1 11  2  0  0  0  0
  1 12  1  0  0  0  0
  2  3  2  0  0  0  0
  2 10  1  0  0  0  0
  2 11  1  0  0  0  0
  3  4  1  0  0  0  0
  3 12  1  0  0  0  0
  4  7  1  0  0  0  0
  5  8  1  0  0  0  0
  5 10  1  0  0  0  0
  6  9  1  0  0  0  0
  6 10  1  0  0  0  0
  7 13  1  0  0  0  0
  8 14  1  0  0  0  0
  9 14  1  0  0  0  0
 10 13  1  0  0  0  0
  1 15  1  0  0  0  0
  4 16  1  0  0  0  0
  4 17  1  0  0  0  0
  5 18  1  0  0  0  0
  5 19  1  0  0  0  0
  6 20  1  0  0  0  0
  6 21  1  0  0  0  0
  7 22  1  0  0  0  0
  7 23  1  0  0  0  0
  8 24  1  0  0  0  0
  8 25  1  0  0  0  0
  9 26  1  0  0  0  0
  9 27  1  0  0  0  0
 12 28  1  0  0  0  0
 13 29  1  0  0  0  0
M  END
> <Catalog ID>
Z2327673459

> <PlateID>
1337959-R-01

> <Well>
B08

> <MW (desalted)>
193.246

> <CLogP>
-1.214

> <HBD>
2

> <TPSA>
49.940

> <RotBonds>
0

> <ROCS_ShapeQuery>
x0446_0A_x1080_0A_x0929_0A_x0812_0A_x0719_0A_x1140_0A_x0528_0A_x0310_0A

> <ROCS_TanimotoCombo>
0.325 

> <ROCS_ShapeTanimoto>
0.186 

> <ROCS_ColorTanimoto>
0.139 

> <ROCS_RefTversky>
0.173 

> <ROCS_RefColorTversky>
0.158 

> <ROCS_RefTverskyCombo>
0.331 

> <ROCS_FitTversky>
1.664 

> <ROCS_FitColorTversky>
0.542 

> <ROCS_FitTverskyCombo>
2.206 

> <ROCS_ColorScore>
-5.651

> <ROCS_Overlap>
2042.960

> <ROCS_Rank>
156                 

$$$$
untitled-dbase-381_1
  -OEChem-02082415003D

 34 36  0     0  0  0  0  0  0999 V2000
   11.7240   11.5492   24.0343 C   0  0  0  0  0  0  0  0  0  0  0  0
   12.0178   10.2144   24.2067 C   0  0  0  0  0  0  0  0  0  0  0  0
   10.3315   11.7617   23.8268 C   0  0  0  0  0  0  0  0  0  0  0  0
    9.6099   10.5825   23.8479 C   0  0  0  0  0  0  0  0  0  0  0  0
    7.6493   11.5709   23.4885 C   0  0  0  0  0  0  0  0  0  0  0  0
    9.6273   13.0165   23.6075 C   0  0  0  0  0  0  0  0  0  0  0  0
    6.5301   15.1139   19.0830 C   0  0  0  0  0  0  0  0  0  0  0  0
    6.7888   16.2286   20.0914 C   0  0  0  0  0  0  0  0  0  0  0  0
    7.4439   13.9163   19.3219 C   0  0  0  0  0  0  0  0  0  0  0  0
    6.6810   15.7229   21.5311 C   0  0  0  0  0  0  0  0  0  0  0  0
    7.3356   13.4031   20.7586 C   0  0  0  0  0  0  0  0  0  0  0  0
    7.5891   14.5116   21.7933 C   0  0  0  0  0  0  0  0  0  0  0  0
    7.3789   13.9842   23.2138 C   0  0  0  0  0  0  0  0  0  0  0  0
    8.2667   10.4450   23.6821 N   0  0  0  0  0  0  0  0  0  0  0  0
    8.2225   12.8599   23.4375 N   0  0  0  0  0  0  0  0  0  0  0  0
   10.2158   14.0927   23.5770 O   0  0  0  0  0  0  0  0  0  0  0  0
    8.9476   14.9474   21.6863 O   0  0  0  0  0  0  0  0  0  0  0  0
   10.6202    9.2303   24.1174 S   0  0  0  0  0  0  0  0  0  0  0  0
   12.4749   12.3286   24.0572 H   0  0  0  0  0  0  0  0  0  0  0  0
   12.9877    9.7702   24.3807 H   0  0  0  0  0  0  0  0  0  0  0  0
    6.5574   11.5857   23.3413 H   0  0  0  0  0  0  0  0  0  0  0  0
    5.4833   14.7938   19.1541 H   0  0  0  0  0  0  0  0  0  0  0  0
    6.6792   15.4943   18.0661 H   0  0  0  0  0  0  0  0  0  0  0  0
    7.7864   16.6518   19.9216 H   0  0  0  0  0  0  0  0  0  0  0  0
    6.0698   17.0405   19.9336 H   0  0  0  0  0  0  0  0  0  0  0  0
    7.1843   13.1111   18.6251 H   0  0  0  0  0  0  0  0  0  0  0  0
    8.4818   14.1982   19.1068 H   0  0  0  0  0  0  0  0  0  0  0  0
    6.9485   16.5469   22.2044 H   0  0  0  0  0  0  0  0  0  0  0  0
    5.6362   15.4585   21.7380 H   0  0  0  0  0  0  0  0  0  0  0  0
    6.3370   12.9737   20.9095 H   0  0  0  0  0  0  0  0  0  0  0  0
    8.0617   12.5911   20.8888 H   0  0  0  0  0  0  0  0  0  0  0  0
    7.6274   14.7943   23.8961 H   0  0  0  0  0  0  0  0  0  0  0  0
    6.3314   13.7030   23.2992 H   0  0  0  0  0  0  0  0  0  0  0  0
    9.0530   15.2865   20.7856 H   0  0  0  0  0  0  0  0  0  0  0  0
  1  2  2  0  0  0  0
  1  3  1  0  0  0  0
  2 18  1  0  0  0  0
  3  4  2  0  0  0  0
  3  6  1  0  0  0  0
  4 14  1  0  0  0  0
  4 18  1  0  0  0  0
  5 14  2  0  0  0  0
  5 15  1  0  0  0  0
  6 15  1  0  0  0  0
  6 16  2  0  0  0  0
  7  8  1  0  0  0  0
  7  9  1  0  0  0  0
  8 10  1  0  0  0  0
  9 11  1  0  0  0  0
 10 12  1  0  0  0  0
 11 12  1  0  0  0  0
 12 13  1  0  0  0  0
 12 17  1  0  0  0  0
 13 15  1  0  0  0  0
  1 19  1  0  0  0  0
  2 20  1  0  0  0  0
  5 21  1  0  0  0  0
  7 22  1  0  0  0  0
  7 23  1  0  0  0  0
  8 24  1  0  0  0  0
  8 25  1  0  0  0  0
  9 26  1  0  0  0  0
  9 27  1  0  0  0  0
 10 28  1  0  0  0  0
 10 29  1  0  0  0  0
 11 30  1  0  0  0  0
 11 31  1  0  0  0  0
 13 32  1  0  0  0  0
 13 33  1  0  0  0  0
 17 34  1  0  0  0  0
M  END
> <Catalog ID>
Z822170624

> <PlateID>
1337959-R-09

> <Well>
B08

> <MW (desalted)>
264.343

> <CLogP>
1.916

> <HBD>
1

> <TPSA>
52.900

> <RotBonds>
2

> <ROCS_ShapeQuery>
x0446_0A_x1080_0A_x0929_0A_x0812_0A_x0719_0A_x1140_0A_x0528_0A_x0310_0A

> <ROCS_TanimotoCombo>
0.325 

> <ROCS_ShapeTanimoto>
0.192 

> <ROCS_ColorTanimoto>
0.133 

> <ROCS_RefTversky>
0.180 

> <ROCS_RefColorTversky>
0.145 

> <ROCS_RefTverskyCombo>
0.326 

> <ROCS_FitTversky>
1.538 

> <ROCS_FitColorTversky>
0.609 

> <ROCS_FitTverskyCombo>
2.147 

> <ROCS_ColorScore>
-5.190

> <ROCS_Overlap>
2127.275

> <ROCS_Rank>
157                 

$$$$
untitled-dbase-639_0
  -OEChem-02082415003D

 33 36  0     0  0  0  0  0  0999 V2000
   13.0805   10.8472   23.4316 C   0  0  0  0  0  0  0  0  0  0  0  0
   10.8617   12.4530   23.1571 C   0  0  0  0  0  0  0  0  0  0  0  0
   10.7322   11.1535   24.8302 C   0  0  0  0  0  0  0  0  0  0  0  0
   10.4257   10.3956   22.8716 C   0  0  0  0  0  0  0  0  0  0  0  0
    7.2474   10.8607   24.3387 C   0  0  0  0  0  0  0  0  0  0  0  0
    7.3767   12.1655   22.6588 C   0  0  0  0  0  0  0  0  0  0  0  0
    7.6846   12.9267   24.6255 C   0  0  0  0  0  0  0  0  0  0  0  0
   11.6312   11.1414   23.5443 C   0  0  0  0  0  0  0  0  0  0  0  0
    9.7691   11.5158   23.6908 C   0  0  0  0  0  0  0  0  0  0  0  0
    8.3330   11.8044   23.8036 C   0  0  0  0  0  0  0  0  0  0  0  0
    6.4508   12.1821   23.9520 C   0  0  0  0  0  0  0  0  0  0  0  0
    4.6237   13.8671   23.5859 C   0  0  0  0  0  0  0  0  0  0  0  0
    5.0059   12.4714   24.0662 C   0  0  0  0  0  0  0  0  0  0  0  0
   13.6103    9.7948   23.7559 O   0  0  0  0  0  0  0  0  0  0  0  0
   13.7464   11.9107   22.9189 O   0  0  0  0  0  0  0  0  0  0  0  0
    4.5830   12.3509   25.3606 F   0  0  0  0  0  0  0  0  0  0  0  0
    4.2681   11.5721   23.3483 F   0  0  0  0  0  0  0  0  0  0  0  0
   11.0833   13.3515   23.7425 H   0  0  0  0  0  0  0  0  0  0  0  0
   10.8257   12.7135   22.0942 H   0  0  0  0  0  0  0  0  0  0  0  0
   10.5739   10.1955   25.3365 H   0  0  0  0  0  0  0  0  0  0  0  0
   10.9407   11.9271   25.5767 H   0  0  0  0  0  0  0  0  0  0  0  0
   10.3471   10.4583   21.7811 H   0  0  0  0  0  0  0  0  0  0  0  0
   10.2378    9.3645   23.1892 H   0  0  0  0  0  0  0  0  0  0  0  0
    7.0260    9.9625   23.7528 H   0  0  0  0  0  0  0  0  0  0  0  0
    7.2840   10.6002   25.4016 H   0  0  0  0  0  0  0  0  0  0  0  0
    7.5342   13.1237   22.1528 H   0  0  0  0  0  0  0  0  0  0  0  0
    7.1677   11.3916   21.9130 H   0  0  0  0  0  0  0  0  0  0  0  0
    7.7629   12.8635   25.7158 H   0  0  0  0  0  0  0  0  0  0  0  0
    7.8715   13.9577   24.3075 H   0  0  0  0  0  0  0  0  0  0  0  0
    3.5461   14.0549   23.6819 H   0  0  0  0  0  0  0  0  0  0  0  0
    4.8829   14.0252   22.5308 H   0  0  0  0  0  0  0  0  0  0  0  0
    5.1280   14.6618   24.1515 H   0  0  0  0  0  0  0  0  0  0  0  0
   14.7083   11.7364   22.8381 H   0  0  0  0  0  0  0  0  0  0  0  0
  1  8  1  0  0  0  0
  1 14  2  0  0  0  0
  1 15  1  0  0  0  0
  2  8  1  0  0  0  0
  2  9  1  0  0  0  0
  3  8  1  0  0  0  0
  3  9  1  0  0  0  0
  4  8  1  0  0  0  0
  4  9  1  0  0  0  0
  5 10  1  0  0  0  0
  5 11  1  0  0  0  0
  6 10  1  0  0  0  0
  6 11  1  0  0  0  0
  7 10  1  0  0  0  0
  7 11  1  0  0  0  0
  9 10  1  0  0  0  0
 11 13  1  0  0  0  0
 12 13  1  0  0  0  0
 13 16  1  0  0  0  0
 13 17  1  0  0  0  0
  2 18  1  0  0  0  0
  2 19  1  0  0  0  0
  3 20  1  0  0  0  0
  3 21  1  0  0  0  0
  4 22  1  0  0  0  0
  4 23  1  0  0  0  0
  5 24  1  0  0  0  0
  5 25  1  0  0  0  0
  6 26  1  0  0  0  0
  6 27  1  0  0  0  0
  7 28  1  0  0  0  0
  7 29  1  0  0  0  0
 12 30  1  0  0  0  0
 12 31  1  0  0  0  0
 12 32  1  0  0  0  0
 15 33  1  0  0  0  0
M  END
> <Catalog ID>
Z4764609770

> <PlateID>
1337959-R-15

> <Well>
A08

> <MW (desalted)>
242.262

> <CLogP>
2.375

> <HBD>
1

> <TPSA>
37.300

> <RotBonds>
3

> <ROCS_ShapeQuery>
x0446_0A_x1080_0A_x0929_0A_x0812_0A_x0719_0A_x1140_0A_x0528_0A_x0310_0A

> <ROCS_TanimotoCombo>
0.325 

> <ROCS_ShapeTanimoto>
0.174 

> <ROCS_ColorTanimoto>
0.151 

> <ROCS_RefTversky>
0.165 

> <ROCS_RefColorTversky>
0.200 

> <ROCS_RefTverskyCombo>
0.365 

> <ROCS_FitTversky>
1.438 

> <ROCS_FitColorTversky>
0.381 

> <ROCS_FitTverskyCombo>
1.819 

> <ROCS_ColorScore>
-7.247

> <ROCS_Overlap>
1952.650

> <ROCS_Rank>
158                 

$$$$
untitled-dbase-590_27
  -OEChem-02082415003D

 28 29  0     1  0  0  0  0  0999 V2000
   11.3835   16.4143   21.7417 C   0  0  0  0  0  0  0  0  0  0  0  0
   12.6895   16.0716   22.0917 C   0  0  0  0  0  0  0  0  0  0  0  0
   10.3891   15.4364   21.7152 C   0  0  0  0  0  0  0  0  0  0  0  0
   13.0011   14.7510   22.4151 C   0  0  0  0  0  0  0  0  0  0  0  0
   10.7007   14.1159   22.0386 C   0  0  0  0  0  0  0  0  0  0  0  0
   12.0068   13.7731   22.3885 C   0  0  0  0  0  0  0  0  0  0  0  0
    8.1948   10.3773   24.1457 C   0  0  0  0  0  0  0  0  0  0  0  0
    9.4442   11.2167   24.1100 C   0  0  0  0  0  0  0  0  0  0  0  0
    6.8235   12.4713   24.0379 C   0  0  0  0  0  0  0  0  0  0  0  0
    8.0856   13.2425   24.3601 C   0  0  0  0  0  0  0  0  0  0  0  0
    6.9917   11.0435   24.2262 N   0  0  0  0  0  0  0  0  0  0  0  0
    9.2244   12.6045   23.6573 N   0  0  2  0  0  0  0  0  0  0  0  0
    8.2688    9.1472   24.1771 O   0  0  0  0  0  0  0  0  0  0  0  0
    8.2092   13.5853   21.5054 O   0  0  0  0  0  0  0  0  0  0  0  0
    9.9111   11.7352   21.3363 O   0  0  0  0  0  0  0  0  0  0  0  0
    9.4011   12.9219   21.9896 S   0  0  0  0  0  0  0  0  0  0  0  0
   12.4453   12.1535   22.7971 Cl  0  0  0  0  0  0  0  0  0  0  0  0
   11.1407   17.4427   21.4907 H   0  0  0  0  0  0  0  0  0  0  0  0
   13.4635   16.8331   22.1129 H   0  0  0  0  0  0  0  0  0  0  0  0
    9.3757   15.7176   21.4412 H   0  0  0  0  0  0  0  0  0  0  0  0
   14.0241   14.5015   22.6857 H   0  0  0  0  0  0  0  0  0  0  0  0
    9.8733   11.2196   25.1188 H   0  0  0  0  0  0  0  0  0  0  0  0
   10.1470   10.7306   23.4236 H   0  0  0  0  0  0  0  0  0  0  0  0
    5.9904   12.7985   24.6696 H   0  0  0  0  0  0  0  0  0  0  0  0
    6.5332   12.6178   22.9899 H   0  0  0  0  0  0  0  0  0  0  0  0
    7.9693   14.2840   24.0206 H   0  0  0  0  0  0  0  0  0  0  0  0
    8.2741   13.2655   25.4465 H   0  0  0  0  0  0  0  0  0  0  0  0
    6.1602   10.4936   24.4328 H   0  0  0  0  0  0  0  0  0  0  0  0
  1  2  2  0  0  0  0
  1  3  1  0  0  0  0
  2  4  1  0  0  0  0
  3  5  2  0  0  0  0
  4  6  2  0  0  0  0
  5  6  1  0  0  0  0
  5 16  1  0  0  0  0
  6 17  1  0  0  0  0
  7  8  1  0  0  0  0
  7 11  1  0  0  0  0
  7 13  2  0  0  0  0
  8 12  1  0  0  0  0
  9 10  1  0  0  0  0
  9 11  1  0  0  0  0
 10 12  1  0  0  0  0
 12 16  1  0  0  0  0
 14 16  2  0  0  0  0
 15 16  2  0  0  0  0
  1 18  1  0  0  0  0
  2 19  1  0  0  0  0
  3 20  1  0  0  0  0
  4 21  1  0  0  0  0
  8 22  1  0  0  0  0
  8 23  1  0  0  0  0
  9 24  1  0  0  0  0
  9 25  1  0  0  0  0
 10 26  1  0  0  0  0
 10 27  1  0  0  0  0
 11 28  1  0  0  0  0
M  END
> <Catalog ID>
Z45462965

> <PlateID>
1337959-R-13

> <Well>
G02

> <MW (desalted)>
274.724

> <CLogP>
1.360

> <HBD>
1

> <TPSA>
66.480

> <RotBonds>
1

> <ROCS_ShapeQuery>
x0446_0A_x1080_0A_x0929_0A_x0812_0A_x0719_0A_x1140_0A_x0528_0A_x0310_0A

> <ROCS_TanimotoCombo>
0.325 

> <ROCS_ShapeTanimoto>
0.213 

> <ROCS_ColorTanimoto>
0.112 

> <ROCS_RefTversky>
0.195 

> <ROCS_RefColorTversky>
0.122 

> <ROCS_RefTverskyCombo>
0.317 

> <ROCS_FitTversky>
1.758 

> <ROCS_FitColorTversky>
0.576 

> <ROCS_FitTverskyCombo>
2.333 

> <ROCS_ColorScore>
-4.355

> <ROCS_Overlap>
2300.781

> <ROCS_Rank>
159                 

$$$$
untitled-dbase-433_9
  -OEChem-02082415003D

 35 36  0     0  0  0  0  0  0999 V2000
    7.2994   10.9751   25.1054 C   0  0  0  0  0  0  0  0  0  0  0  0
    8.4004   10.9468   24.3517 C   0  0  0  0  0  0  0  0  0  0  0  0
    6.2020   11.8955   24.7456 C   0  0  0  0  0  0  0  0  0  0  0  0
    7.5895   12.6476   22.8164 C   0  0  0  0  0  0  0  0  0  0  0  0
   10.7248   12.8040   22.7927 C   0  0  0  0  0  0  0  0  0  0  0  0
   11.4339   16.8930   21.6499 C   0  0  0  0  0  0  0  0  0  0  0  0
   12.6607   16.6406   22.5308 C   0  0  0  0  0  0  0  0  0  0  0  0
   10.8172   15.5224   21.3834 C   0  0  0  0  0  0  0  0  0  0  0  0
   12.7203   15.1309   22.7482 C   0  0  0  0  0  0  0  0  0  0  0  0
   11.9920   14.5638   21.5357 C   0  0  0  0  0  0  0  0  0  0  0  0
   12.0777   12.2136   20.7479 C   0  0  0  0  0  0  0  0  0  0  0  0
    9.8274   11.6142   22.5014 C   0  0  0  0  0  0  0  0  0  0  0  0
    6.4397   12.6652   23.6174 N   0  0  0  0  0  0  0  0  0  0  0  0
    8.5952   11.7398   23.2260 N   0  0  0  0  0  0  0  0  0  0  0  0
   11.5723   13.1870   21.7260 N   0  0  0  0  0  0  0  0  0  0  0  0
    5.1762   11.9458   25.4174 O   0  0  0  0  0  0  0  0  0  0  0  0
    7.6904   13.3814   21.8310 O   0  0  0  0  0  0  0  0  0  0  0  0
   10.6876   13.3695   23.8888 O   0  0  0  0  0  0  0  0  0  0  0  0
    7.1847   10.3424   25.9769 H   0  0  0  0  0  0  0  0  0  0  0  0
    9.2187   10.2782   24.5982 H   0  0  0  0  0  0  0  0  0  0  0  0
   10.7170   17.5652   22.1321 H   0  0  0  0  0  0  0  0  0  0  0  0
   11.7432   17.3618   20.7085 H   0  0  0  0  0  0  0  0  0  0  0  0
   13.5645   16.9881   22.0172 H   0  0  0  0  0  0  0  0  0  0  0  0
   12.5966   17.1782   23.4822 H   0  0  0  0  0  0  0  0  0  0  0  0
   10.0434   15.3170   22.1340 H   0  0  0  0  0  0  0  0  0  0  0  0
   10.3536   15.4663   20.3937 H   0  0  0  0  0  0  0  0  0  0  0  0
   13.7494   14.7678   22.8301 H   0  0  0  0  0  0  0  0  0  0  0  0
   12.1945   14.8758   23.6770 H   0  0  0  0  0  0  0  0  0  0  0  0
   12.6338   14.5902   20.6527 H   0  0  0  0  0  0  0  0  0  0  0  0
   11.3742   12.1407   19.9054 H   0  0  0  0  0  0  0  0  0  0  0  0
   13.0600   12.5422   20.3777 H   0  0  0  0  0  0  0  0  0  0  0  0
   12.1774   11.2292   21.2284 H   0  0  0  0  0  0  0  0  0  0  0  0
    9.5824   11.5750   21.4369 H   0  0  0  0  0  0  0  0  0  0  0  0
   10.3069   10.6869   22.8253 H   0  0  0  0  0  0  0  0  0  0  0  0
    5.7042   13.3095   23.3407 H   0  0  0  0  0  0  0  0  0  0  0  0
  1  2  2  0  0  0  0
  1  3  1  0  0  0  0
  2 14  1  0  0  0  0
  3 13  1  0  0  0  0
  3 16  2  0  0  0  0
  4 13  1  0  0  0  0
  4 14  1  0  0  0  0
  4 17  2  0  0  0  0
  5 12  1  0  0  0  0
  5 15  1  0  0  0  0
  5 18  2  0  0  0  0
  6  7  1  0  0  0  0
  6  8  1  0  0  0  0
  7  9  1  0  0  0  0
  8 10  1  0  0  0  0
  9 10  1  0  0  0  0
 10 15  1  0  0  0  0
 11 15  1  0  0  0  0
 12 14  1  0  0  0  0
  1 19  1  0  0  0  0
  2 20  1  0  0  0  0
  6 21  1  0  0  0  0
  6 22  1  0  0  0  0
  7 23  1  0  0  0  0
  7 24  1  0  0  0  0
  8 25  1  0  0  0  0
  8 26  1  0  0  0  0
  9 27  1  0  0  0  0
  9 28  1  0  0  0  0
 10 29  1  0  0  0  0
 11 30  1  0  0  0  0
 11 31  1  0  0  0  0
 11 32  1  0  0  0  0
 12 33  1  0  0  0  0
 12 34  1  0  0  0  0
 13 35  1  0  0  0  0
M  END
> <Catalog ID>
Z191832368

> <PlateID>
1337959-R-10

> <Well>
C03

> <MW (desalted)>
251.282

> <CLogP>
0.161

> <HBD>
1

> <TPSA>
69.720

> <RotBonds>
3

> <ROCS_ShapeQuery>
x0446_0A_x1080_0A_x0929_0A_x0812_0A_x0719_0A_x1140_0A_x0528_0A_x0310_0A

> <ROCS_TanimotoCombo>
0.325 

> <ROCS_ShapeTanimoto>
0.204 

> <ROCS_ColorTanimoto>
0.121 

> <ROCS_RefTversky>
0.189 

> <ROCS_RefColorTversky>
0.131 

> <ROCS_RefTverskyCombo>
0.320 

> <ROCS_FitTversky>
1.622 

> <ROCS_FitColorTversky>
0.615 

> <ROCS_FitTverskyCombo>
2.238 

> <ROCS_ColorScore>
-4.652

> <ROCS_Overlap>
2235.948

> <ROCS_Rank>
160                 

$$$$
untitled-dbase-471_6
  -OEChem-02082415003D

 27 28  0     0  0  0  0  0  0999 V2000
    5.2168   15.2216   24.7437 C   0  0  0  0  0  0  0  0  0  0  0  0
    6.3044   14.6614   25.4139 C   0  0  0  0  0  0  0  0  0  0  0  0
    5.3312   15.5703   23.3980 C   0  0  0  0  0  0  0  0  0  0  0  0
    7.5063   14.4501   24.7383 C   0  0  0  0  0  0  0  0  0  0  0  0
    6.5331   15.3590   22.7224 C   0  0  0  0  0  0  0  0  0  0  0  0
    7.7340   11.0989   23.3034 C   0  0  0  0  0  0  0  0  0  0  0  0
    7.6207   14.7989   23.3926 C   0  0  0  0  0  0  0  0  0  0  0  0
    8.8201   11.9485   23.0310 C   0  0  0  0  0  0  0  0  0  0  0  0
    8.1014   10.4607   24.4584 C   0  0  0  0  0  0  0  0  0  0  0  0
    7.4624    9.4477   25.3073 C   0  0  0  0  0  0  0  0  0  0  0  0
    8.9791   12.8950   21.8814 C   0  0  0  0  0  0  0  0  0  0  0  0
    9.7871   11.8453   23.9470 N   0  0  0  0  0  0  0  0  0  0  0  0
    9.1825   15.4701   21.4318 O   0  0  0  0  0  0  0  0  0  0  0  0
   10.2122   14.5052   23.5186 O   0  0  0  0  0  0  0  0  0  0  0  0
    9.3249   10.8977   24.8524 O   0  0  0  0  0  0  0  0  0  0  0  0
    9.1264   14.5372   22.5482 S   0  0  0  0  0  0  0  0  0  0  0  0
    4.2808   15.3870   25.2693 H   0  0  0  0  0  0  0  0  0  0  0  0
    6.2161   14.3907   26.4619 H   0  0  0  0  0  0  0  0  0  0  0  0
    4.4845   16.0071   22.8768 H   0  0  0  0  0  0  0  0  0  0  0  0
    8.3477   14.0139   25.2702 H   0  0  0  0  0  0  0  0  0  0  0  0
    6.6114   15.6357   21.6746 H   0  0  0  0  0  0  0  0  0  0  0  0
    6.8195   10.9685   22.7436 H   0  0  0  0  0  0  0  0  0  0  0  0
    7.7312    8.4240   24.9889 H   0  0  0  0  0  0  0  0  0  0  0  0
    7.7496    9.5467   26.3712 H   0  0  0  0  0  0  0  0  0  0  0  0
    6.3582    9.5179   25.2892 H   0  0  0  0  0  0  0  0  0  0  0  0
    8.1147   12.8754   21.2118 H   0  0  0  0  0  0  0  0  0  0  0  0
    9.8789   12.6826   21.2971 H   0  0  0  0  0  0  0  0  0  0  0  0
  1  2  2  0  0  0  0
  1  3  1  0  0  0  0
  2  4  1  0  0  0  0
  3  5  2  0  0  0  0
  4  7  2  0  0  0  0
  5  7  1  0  0  0  0
  6  8  1  0  0  0  0
  6  9  2  0  0  0  0
  7 16  1  0  0  0  0
  8 11  1  0  0  0  0
  8 12  2  0  0  0  0
  9 10  1  0  0  0  0
  9 15  1  0  0  0  0
 11 16  1  0  0  0  0
 12 15  1  0  0  0  0
 13 16  2  0  0  0  0
 14 16  2  0  0  0  0
  1 17  1  0  0  0  0
  2 18  1  0  0  0  0
  3 19  1  0  0  0  0
  4 20  1  0  0  0  0
  5 21  1  0  0  0  0
  6 22  1  0  0  0  0
 10 23  1  0  0  0  0
 10 24  1  0  0  0  0
 10 25  1  0  0  0  0
 11 26  1  0  0  0  0
 11 27  1  0  0  0  0
M  END
> <Catalog ID>
Z291973442

> <PlateID>
1337959-R-11

> <Well>
C07

> <MW (desalted)>
237.275

> <CLogP>
0.317

> <HBD>
0

> <TPSA>
60.170

> <RotBonds>
3

> <ROCS_ShapeQuery>
x0446_0A_x1080_0A_x0929_0A_x0812_0A_x0719_0A_x1140_0A_x0528_0A_x0310_0A

> <ROCS_TanimotoCombo>
0.325 

> <ROCS_ShapeTanimoto>
0.179 

> <ROCS_ColorTanimoto>
0.146 

> <ROCS_RefTversky>
0.168 

> <ROCS_RefColorTversky>
0.151 

> <ROCS_RefTverskyCombo>
0.319 

> <ROCS_FitTversky>
1.552 

> <ROCS_FitColorTversky>
0.812 

> <ROCS_FitTverskyCombo>
2.365 

> <ROCS_ColorScore>
-5.371

> <ROCS_Overlap>
1985.853

> <ROCS_Rank>
161                 

$$$$
untitled-dbase-68_0
  -OEChem-02082415003D

 29 30  0     0  0  0  0  0  0999 V2000
    7.8552   11.7369   24.2933 C   0  0  0  0  0  0  0  0  0  0  0  0
    8.4413   12.8793   23.7482 C   0  0  0  0  0  0  0  0  0  0  0  0
    8.5639   10.5358   24.3230 C   0  0  0  0  0  0  0  0  0  0  0  0
   10.4448   11.6195   23.2625 C   0  0  0  0  0  0  0  0  0  0  0  0
    9.7361   12.8206   23.2328 C   0  0  0  0  0  0  0  0  0  0  0  0
    9.8587   10.4771   23.8075 C   0  0  0  0  0  0  0  0  0  0  0  0
    9.4821   14.4941   21.4837 C   0  0  0  0  0  0  0  0  0  0  0  0
   11.8033   13.8570   22.0596 C   0  0  0  0  0  0  0  0  0  0  0  0
   10.4539   15.2229   23.6778 C   0  0  0  0  0  0  0  0  0  0  0  0
   12.4825   15.1588   21.6420 C   0  0  0  0  0  0  0  0  0  0  0  0
   11.2324   16.4382   23.1785 C   0  0  0  0  0  0  0  0  0  0  0  0
   10.3838   14.0859   22.6298 C   0  0  0  0  0  0  0  0  0  0  0  0
    8.9015   15.5657   21.3949 O   0  0  0  0  0  0  0  0  0  0  0  0
   12.5343   16.0684   22.7368 O   0  0  0  0  0  0  0  0  0  0  0  0
    9.4013   13.5036   20.5620 O   0  0  0  0  0  0  0  0  0  0  0  0
   10.5392    9.3238   23.8356 F   0  0  0  0  0  0  0  0  0  0  0  0
    6.8471   11.7826   24.6951 H   0  0  0  0  0  0  0  0  0  0  0  0
    7.8813   13.8107   23.7292 H   0  0  0  0  0  0  0  0  0  0  0  0
    8.1073    9.6466   24.7468 H   0  0  0  0  0  0  0  0  0  0  0  0
   11.4542   11.5641   22.8640 H   0  0  0  0  0  0  0  0  0  0  0  0
   11.7767   13.1691   21.2051 H   0  0  0  0  0  0  0  0  0  0  0  0
   12.4242   13.3806   22.8313 H   0  0  0  0  0  0  0  0  0  0  0  0
   10.9602   14.8442   24.5769 H   0  0  0  0  0  0  0  0  0  0  0  0
    9.4490   15.5345   23.9893 H   0  0  0  0  0  0  0  0  0  0  0  0
   13.5119   14.9539   21.3310 H   0  0  0  0  0  0  0  0  0  0  0  0
   11.9716   15.6292   20.7939 H   0  0  0  0  0  0  0  0  0  0  0  0
   10.7006   16.9479   22.3666 H   0  0  0  0  0  0  0  0  0  0  0  0
   11.3501   17.1600   23.9933 H   0  0  0  0  0  0  0  0  0  0  0  0
    8.8192   13.7483   19.8113 H   0  0  0  0  0  0  0  0  0  0  0  0
  1  2  1  0  0  0  0
  1  3  2  0  0  0  0
  2  5  2  0  0  0  0
  3  6  1  0  0  0  0
  4  5  1  0  0  0  0
  4  6  2  0  0  0  0
  5 12  1  0  0  0  0
  6 16  1  0  0  0  0
  7 12  1  0  0  0  0
  7 13  2  0  0  0  0
  7 15  1  0  0  0  0
  8 10  1  0  0  0  0
  8 12  1  0  0  0  0
  9 11  1  0  0  0  0
  9 12  1  0  0  0  0
 10 14  1  0  0  0  0
 11 14  1  0  0  0  0
  1 17  1  0  0  0  0
  2 18  1  0  0  0  0
  3 19  1  0  0  0  0
  4 20  1  0  0  0  0
  8 21  1  0  0  0  0
  8 22  1  0  0  0  0
  9 23  1  0  0  0  0
  9 24  1  0  0  0  0
 10 25  1  0  0  0  0
 10 26  1  0  0  0  0
 11 27  1  0  0  0  0
 11 28  1  0  0  0  0
 15 29  1  0  0  0  0
M  END
> <Catalog ID>
Z361883658

> <PlateID>
1337959-R-02

> <Well>
B11

> <MW (desalted)>
224.228

> <CLogP>
1.179

> <HBD>
1

> <TPSA>
46.530

> <RotBonds>
2

> <ROCS_ShapeQuery>
x0446_0A_x1080_0A_x0929_0A_x0812_0A_x0719_0A_x1140_0A_x0528_0A_x0310_0A

> <ROCS_TanimotoCombo>
0.325 

> <ROCS_ShapeTanimoto>
0.202 

> <ROCS_ColorTanimoto>
0.123 

> <ROCS_RefTversky>
0.187 

> <ROCS_RefColorTversky>
0.132 

> <ROCS_RefTverskyCombo>
0.319 

> <ROCS_FitTversky>
1.699 

> <ROCS_FitColorTversky>
0.623 

> <ROCS_FitTverskyCombo>
2.323 

> <ROCS_ColorScore>
-4.719

> <ROCS_Overlap>
2202.630

> <ROCS_Rank>
162                 

$$$$
untitled-dbase-608_39
  -OEChem-02082415003D

 33 34  0     1  0  0  0  0  0999 V2000
    9.0465    9.5570   24.3813 C   0  0  0  0  0  0  0  0  0  0  0  0
    9.8678   10.0127   23.3501 C   0  0  0  0  0  0  0  0  0  0  0  0
    8.1912   11.7955   24.6893 C   0  0  0  0  0  0  0  0  0  0  0  0
    9.0125   12.2512   23.6581 C   0  0  0  0  0  0  0  0  0  0  0  0
    8.2081   10.4484   25.0508 C   0  0  0  0  0  0  0  0  0  0  0  0
    9.8509   11.3598   22.9885 C   0  0  0  0  0  0  0  0  0  0  0  0
    8.9914   13.6729   23.2789 C   0  0  0  0  0  0  0  0  0  0  0  0
    7.7392   15.2882   21.8737 C   0  0  0  0  0  0  0  0  0  0  0  0
    6.4416   13.7453   23.1873 C   0  0  0  0  0  0  0  0  0  0  0  0
    6.2716   15.7117   21.8359 C   0  0  2  0  0  0  0  0  0  0  0  0
    5.5380   14.3937   22.1374 C   0  0  2  0  0  0  0  0  0  0  0  0
    5.8773   16.3449   20.5114 C   0  0  0  0  0  0  0  0  0  0  0  0
    4.1112   14.5828   22.6269 C   0  0  0  0  0  0  0  0  0  0  0  0
    7.7866   14.2025   22.8426 N   0  0  0  0  0  0  0  0  0  0  0  0
   10.0477   14.2961   23.3644 O   0  0  0  0  0  0  0  0  0  0  0  0
    3.2622   14.7491   21.5039 O   0  0  0  0  0  0  0  0  0  0  0  0
    7.4188   10.0109   26.0406 F   0  0  0  0  0  0  0  0  0  0  0  0
   10.6441   11.7866   21.9957 F   0  0  0  0  0  0  0  0  0  0  0  0
    9.0591    8.5084   24.6632 H   0  0  0  0  0  0  0  0  0  0  0  0
   10.5194    9.3183   22.8281 H   0  0  0  0  0  0  0  0  0  0  0  0
    7.5338   12.4806   25.2182 H   0  0  0  0  0  0  0  0  0  0  0  0
    8.0840   14.8882   20.9134 H   0  0  0  0  0  0  0  0  0  0  0  0
    8.4098   16.0993   22.1745 H   0  0  0  0  0  0  0  0  0  0  0  0
    6.2216   14.0957   24.2023 H   0  0  0  0  0  0  0  0  0  0  0  0
    6.3866   12.6526   23.1686 H   0  0  0  0  0  0  0  0  0  0  0  0
    6.0885   16.4320   22.6448 H   0  0  0  0  0  0  0  0  0  0  0  0
    5.5269   13.7615   21.2384 H   0  0  0  0  0  0  0  0  0  0  0  0
    6.0516   15.6446   19.6929 H   0  0  0  0  0  0  0  0  0  0  0  0
    6.4674   17.2455   20.3345 H   0  0  0  0  0  0  0  0  0  0  0  0
    4.8199   16.6147   20.5234 H   0  0  0  0  0  0  0  0  0  0  0  0
    4.0439   15.4701   23.2595 H   0  0  0  0  0  0  0  0  0  0  0  0
    3.7870   13.7072   23.1928 H   0  0  0  0  0  0  0  0  0  0  0  0
    2.3599   14.8675   21.8453 H   0  0  0  0  0  0  0  0  0  0  0  0
  1  2  1  0  0  0  0
  1  5  2  0  0  0  0
  2  6  2  0  0  0  0
  3  4  2  0  0  0  0
  3  5  1  0  0  0  0
  4  6  1  0  0  0  0
  4  7  1  0  0  0  0
  5 17  1  0  0  0  0
  6 18  1  0  0  0  0
  7 14  1  0  0  0  0
  7 15  2  0  0  0  0
  8 10  1  0  0  0  0
  8 14  1  0  0  0  0
  9 11  1  0  0  0  0
  9 14  1  0  0  0  0
 10 11  1  0  0  0  0
 10 12  1  6  0  0  0
 11 13  1  1  0  0  0
 13 16  1  0  0  0  0
  1 19  1  0  0  0  0
  2 20  1  0  0  0  0
  3 21  1  0  0  0  0
  8 22  1  0  0  0  0
  8 23  1  0  0  0  0
  9 24  1  0  0  0  0
  9 25  1  0  0  0  0
 10 26  1  0  0  0  0
 11 27  1  0  0  0  0
 12 28  1  0  0  0  0
 12 29  1  0  0  0  0
 12 30  1  0  0  0  0
 13 31  1  0  0  0  0
 13 32  1  0  0  0  0
 16 33  1  0  0  0  0
M  END
> <Catalog ID>
Z1842738994

> <PlateID>
1337959-R-14

> <Well>
B07

> <MW (desalted)>
255.261

> <CLogP>
1.349

> <HBD>
1

> <TPSA>
40.540

> <RotBonds>
2

> <ROCS_ShapeQuery>
x0446_0A_x1080_0A_x0929_0A_x0812_0A_x0719_0A_x1140_0A_x0528_0A_x0310_0A

> <ROCS_TanimotoCombo>
0.325 

> <ROCS_ShapeTanimoto>
0.206 

> <ROCS_ColorTanimoto>
0.119 

> <ROCS_RefTversky>
0.191 

> <ROCS_RefColorTversky>
0.126 

> <ROCS_RefTverskyCombo>
0.317 

> <ROCS_FitTversky>
1.635 

> <ROCS_FitColorTversky>
0.678 

> <ROCS_FitTverskyCombo>
2.313 

> <ROCS_ColorScore>
-4.483

> <ROCS_Overlap>
2249.758

> <ROCS_Rank>
163                 

$$$$
untitled-dbase-550_17
  -OEChem-02082415003D

 35 36  0     0  0  0  0  0  0999 V2000
   12.6587   16.0838   22.4721 C   0  0  0  0  0  0  0  0  0  0  0  0
   11.3576   16.3089   22.0228 C   0  0  0  0  0  0  0  0  0  0  0  0
   13.0904   14.7839   22.7361 C   0  0  0  0  0  0  0  0  0  0  0  0
   10.9196   13.9342   22.1015 C   0  0  0  0  0  0  0  0  0  0  0  0
   10.4880   15.2341   21.8375 C   0  0  0  0  0  0  0  0  0  0  0  0
   12.2208   13.7091   22.5508 C   0  0  0  0  0  0  0  0  0  0  0  0
    9.9918   12.8273   21.9001 C   0  0  0  0  0  0  0  0  0  0  0  0
    8.3237   12.1522   25.0702 C   0  0  0  0  0  0  0  0  0  0  0  0
    8.0987   10.2004   23.4751 C   0  0  0  0  0  0  0  0  0  0  0  0
    9.6625   12.4880   24.4145 C   0  0  0  0  0  0  0  0  0  0  0  0
    9.4345   10.5987   22.8456 C   0  0  0  0  0  0  0  0  0  0  0  0
    7.9725   10.6655   24.9318 C   0  0  0  0  0  0  0  0  0  0  0  0
    8.2241   15.7082   22.3905 C   0  0  0  0  0  0  0  0  0  0  0  0
    9.6829   12.0309   23.0183 N   0  0  0  0  0  0  0  0  0  0  0  0
    8.7840    9.8574   25.8129 N   0  0  0  0  0  0  0  0  0  0  0  0
    9.5094   12.6194   20.7854 O   0  0  0  0  0  0  0  0  0  0  0  0
    9.2212   15.4791   21.3974 O   0  0  0  0  0  0  0  0  0  0  0  0
   12.7982   12.1167   22.8903 Cl  0  0  0  0  0  0  0  0  0  0  0  0
   13.3357   16.9207   22.6164 H   0  0  0  0  0  0  0  0  0  0  0  0
   11.0281   17.3241   21.8190 H   0  0  0  0  0  0  0  0  0  0  0  0
   14.1075   14.6260   23.0856 H   0  0  0  0  0  0  0  0  0  0  0  0
    8.3451   12.4458   26.1268 H   0  0  0  0  0  0  0  0  0  0  0  0
    7.5350   12.7519   24.5973 H   0  0  0  0  0  0  0  0  0  0  0  0
    7.2857   10.6496   22.8894 H   0  0  0  0  0  0  0  0  0  0  0  0
    7.9656    9.1141   23.4029 H   0  0  0  0  0  0  0  0  0  0  0  0
    9.8357   13.5650   24.4835 H   0  0  0  0  0  0  0  0  0  0  0  0
   10.4947   11.9987   24.9332 H   0  0  0  0  0  0  0  0  0  0  0  0
   10.2676   10.0593   23.3103 H   0  0  0  0  0  0  0  0  0  0  0  0
    9.4321   10.3356   21.7827 H   0  0  0  0  0  0  0  0  0  0  0  0
    6.9229   10.5337   25.2433 H   0  0  0  0  0  0  0  0  0  0  0  0
    7.2616   15.8904   21.9063 H   0  0  0  0  0  0  0  0  0  0  0  0
    8.5066   16.5706   22.9996 H   0  0  0  0  0  0  0  0  0  0  0  0
    8.1473   14.8240   23.0277 H   0  0  0  0  0  0  0  0  0  0  0  0
    9.2707    9.1961   25.2584 H   0  0  0  0  0  0  0  0  0  0  0  0
    9.4151   10.4593   26.2830 H   0  0  0  0  0  0  0  0  0  0  0  0
  1  2  1  0  0  0  0
  1  3  2  0  0  0  0
  2  5  2  0  0  0  0
  3  6  1  0  0  0  0
  4  5  1  0  0  0  0
  4  6  2  0  0  0  0
  4  7  1  0  0  0  0
  5 17  1  0  0  0  0
  6 18  1  0  0  0  0
  7 14  1  0  0  0  0
  7 16  2  0  0  0  0
  8 10  1  0  0  0  0
  8 12  1  0  0  0  0
  9 11  1  0  0  0  0
  9 12  1  0  0  0  0
 10 14  1  0  0  0  0
 11 14  1  0  0  0  0
 12 15  1  0  0  0  0
 13 17  1  0  0  0  0
  1 19  1  0  0  0  0
  2 20  1  0  0  0  0
  3 21  1  0  0  0  0
  8 22  1  0  0  0  0
  8 23  1  0  0  0  0
  9 24  1  0  0  0  0
  9 25  1  0  0  0  0
 10 26  1  0  0  0  0
 10 27  1  0  0  0  0
 11 28  1  0  0  0  0
 11 29  1  0  0  0  0
 12 30  1  0  0  0  0
 13 31  1  0  0  0  0
 13 32  1  0  0  0  0
 13 33  1  0  0  0  0
 15 34  1  0  0  0  0
 15 35  1  0  0  0  0
M  END
> <Catalog ID>
Z2242905964

> <PlateID>
1337959-R-12

> <Well>
H09

> <MW (desalted)>
268.739

> <CLogP>
0.788

> <HBD>
1

> <TPSA>
55.560

> <RotBonds>
2

> <ROCS_ShapeQuery>
x0446_0A_x1080_0A_x0929_0A_x0812_0A_x0719_0A_x1140_0A_x0528_0A_x0310_0A

> <ROCS_TanimotoCombo>
0.325 

> <ROCS_ShapeTanimoto>
0.207 

> <ROCS_ColorTanimoto>
0.118 

> <ROCS_RefTversky>
0.191 

> <ROCS_RefColorTversky>
0.128 

> <ROCS_RefTverskyCombo>
0.319 

> <ROCS_FitTversky>
1.653 

> <ROCS_FitColorTversky>
0.603 

> <ROCS_FitTverskyCombo>
2.255 

> <ROCS_ColorScore>
-4.557

> <ROCS_Overlap>
2256.038

> <ROCS_Rank>
164                 

$$$$
untitled-dbase-360_0
  -OEChem-02082415003D

 31 32  0     1  0  0  0  0  0999 V2000
    9.4282   12.6960   23.2602 C   0  0  0  0  0  0  0  0  0  0  0  0
   10.1699   10.6546   22.6058 C   0  0  0  0  0  0  0  0  0  0  0  0
    7.0222   12.0528   22.8460 C   0  0  0  0  0  0  0  0  0  0  0  0
    8.2929   11.7151   23.6099 C   0  0  2  0  0  0  0  0  0  0  0  0
    6.1682   12.8353   23.8537 C   0  0  0  0  0  0  0  0  0  0  0  0
    7.8482   11.7068   25.0796 C   0  0  0  0  0  0  0  0  0  0  0  0
    4.7311   12.3085   23.9055 C   0  0  0  0  0  0  0  0  0  0  0  0
    6.1313   14.3354   23.5553 C   0  0  0  0  0  0  0  0  0  0  0  0
    7.2799   10.3486   25.5303 C   0  0  0  0  0  0  0  0  0  0  0  0
    8.9199   12.1339   26.0852 C   0  0  0  0  0  0  0  0  0  0  0  0
   10.4608   11.9936   22.6885 N   0  0  0  0  0  0  0  0  0  0  0  0
    8.9004   10.4828   23.1507 N   0  0  0  0  0  0  0  0  0  0  0  0
    9.4127   13.9039   23.4517 O   0  0  0  0  0  0  0  0  0  0  0  0
   10.8843    9.7767   22.1418 O   0  0  0  0  0  0  0  0  0  0  0  0
    6.7659   12.6599   25.1526 O   0  0  0  0  0  0  0  0  0  0  0  0
    7.2026   12.6193   21.9251 H   0  0  0  0  0  0  0  0  0  0  0  0
    6.5028   11.1316   22.5511 H   0  0  0  0  0  0  0  0  0  0  0  0
    4.1571   12.8844   24.6274 H   0  0  0  0  0  0  0  0  0  0  0  0
    4.7365   11.2624   24.2023 H   0  0  0  0  0  0  0  0  0  0  0  0
    4.2725   12.4020   22.9240 H   0  0  0  0  0  0  0  0  0  0  0  0
    5.5154   14.8413   24.2957 H   0  0  0  0  0  0  0  0  0  0  0  0
    5.7118   14.5019   22.5655 H   0  0  0  0  0  0  0  0  0  0  0  0
    7.1403   14.7409   23.5904 H   0  0  0  0  0  0  0  0  0  0  0  0
    6.9868   10.4128   26.5726 H   0  0  0  0  0  0  0  0  0  0  0  0
    8.0415    9.5858   25.4103 H   0  0  0  0  0  0  0  0  0  0  0  0
    6.4165   10.1036   24.9213 H   0  0  0  0  0  0  0  0  0  0  0  0
    8.5122   12.0959   27.0929 H   0  0  0  0  0  0  0  0  0  0  0  0
    9.2430   13.1492   25.8667 H   0  0  0  0  0  0  0  0  0  0  0  0
    9.7734   11.4628   26.0176 H   0  0  0  0  0  0  0  0  0  0  0  0
   11.3262   12.4113   22.3666 H   0  0  0  0  0  0  0  0  0  0  0  0
    8.4409    9.5784   23.1926 H   0  0  0  0  0  0  0  0  0  0  0  0
  1  4  1  0  0  0  0
  1 11  1  0  0  0  0
  1 13  2  0  0  0  0
  2 11  1  0  0  0  0
  2 12  1  0  0  0  0
  2 14  2  0  0  0  0
  3  4  1  0  0  0  0
  3  5  1  0  0  0  0
  4  6  1  0  0  0  0
  4 12  1  0  0  0  0
  5  7  1  0  0  0  0
  5  8  1  0  0  0  0
  5 15  1  0  0  0  0
  6  9  1  0  0  0  0
  6 10  1  0  0  0  0
  6 15  1  0  0  0  0
  3 16  1  0  0  0  0
  3 17  1  0  0  0  0
  7 18  1  0  0  0  0
  7 19  1  0  0  0  0
  7 20  1  0  0  0  0
  8 21  1  0  0  0  0
  8 22  1  0  0  0  0
  8 23  1  0  0  0  0
  9 24  1  0  0  0  0
  9 25  1  0  0  0  0
  9 26  1  0  0  0  0
 10 27  1  0  0  0  0
 10 28  1  0  0  0  0
 10 29  1  0  0  0  0
 11 30  1  0  0  0  0
 12 31  1  0  0  0  0
M  END
> <Catalog ID>
Z1359440461

> <PlateID>
1337959-R-08

> <Well>
G09

> <MW (desalted)>
212.246

> <CLogP>
0.134

> <HBD>
2

> <TPSA>
67.430

> <RotBonds>
0

> <ROCS_ShapeQuery>
x0446_0A_x1080_0A_x0929_0A_x0812_0A_x0719_0A_x1140_0A_x0528_0A_x0310_0A

> <ROCS_TanimotoCombo>
0.325 

> <ROCS_ShapeTanimoto>
0.202 

> <ROCS_ColorTanimoto>
0.122 

> <ROCS_RefTversky>
0.186 

> <ROCS_RefColorTversky>
0.141 

> <ROCS_RefTverskyCombo>
0.327 

> <ROCS_FitTversky>
1.738 

> <ROCS_FitColorTversky>
0.483 

> <ROCS_FitTverskyCombo>
2.220 

> <ROCS_ColorScore>
-5.034

> <ROCS_Overlap>
2199.006

> <ROCS_Rank>
165                 

$$$$
untitled-dbase-604_1
  -OEChem-02082415003D

 33 34  0     0  0  0  0  0  0999 V2000
    5.2995   13.6753   22.7399 C   0  0  0  0  0  0  0  0  0  0  0  0
    9.1874   11.2056   25.4863 C   0  0  0  0  0  0  0  0  0  0  0  0
    6.5475   13.6883   22.1270 C   0  0  0  0  0  0  0  0  0  0  0  0
    9.6041   12.2481   24.6661 C   0  0  0  0  0  0  0  0  0  0  0  0
    5.1785   14.2858   23.9778 C   0  0  0  0  0  0  0  0  0  0  0  0
    8.5714   10.1173   24.8897 C   0  0  0  0  0  0  0  0  0  0  0  0
    7.3962   14.8854   23.9987 C   0  0  0  0  0  0  0  0  0  0  0  0
    7.6212   14.3028   22.7618 C   0  0  0  0  0  0  0  0  0  0  0  0
    9.3951   12.1715   23.2935 C   0  0  0  0  0  0  0  0  0  0  0  0
    8.7700   11.0399   22.7950 C   0  0  0  0  0  0  0  0  0  0  0  0
    8.9361   14.3315   22.1458 C   0  0  0  0  0  0  0  0  0  0  0  0
    8.5156   10.8999   21.3289 C   0  0  0  0  0  0  0  0  0  0  0  0
   12.1556   13.9180   22.7502 C   0  0  0  0  0  0  0  0  0  0  0  0
   11.1794   13.2347   21.8543 C   0  0  0  0  0  0  0  0  0  0  0  0
    6.1983   14.8926   24.6253 N   0  0  0  0  0  0  0  0  0  0  0  0
    8.3512   10.0072   23.5604 N   0  0  0  0  0  0  0  0  0  0  0  0
    9.8264   13.2539   22.4308 N   0  0  0  0  0  0  0  0  0  0  0  0
    9.2646   15.2765   21.4135 O   0  0  0  0  0  0  0  0  0  0  0  0
    4.4481   13.2028   22.2636 H   0  0  0  0  0  0  0  0  0  0  0  0
    9.3405   11.2443   26.5588 H   0  0  0  0  0  0  0  0  0  0  0  0
    6.6725   13.2166   21.1560 H   0  0  0  0  0  0  0  0  0  0  0  0
   10.0893   13.1149   25.1073 H   0  0  0  0  0  0  0  0  0  0  0  0
    4.2263   14.3025   24.4976 H   0  0  0  0  0  0  0  0  0  0  0  0
    8.2289    9.2781   25.4862 H   0  0  0  0  0  0  0  0  0  0  0  0
    8.1951   15.3806   24.5424 H   0  0  0  0  0  0  0  0  0  0  0  0
    9.3662   10.4098   20.8420 H   0  0  0  0  0  0  0  0  0  0  0  0
    7.6134   10.3062   21.1392 H   0  0  0  0  0  0  0  0  0  0  0  0
    8.3593   11.8787   20.8597 H   0  0  0  0  0  0  0  0  0  0  0  0
   12.1781   13.4089   23.7251 H   0  0  0  0  0  0  0  0  0  0  0  0
   13.1567   13.8837   22.2956 H   0  0  0  0  0  0  0  0  0  0  0  0
   11.8526   14.9660   22.8910 H   0  0  0  0  0  0  0  0  0  0  0  0
   11.1629   13.7494   20.8823 H   0  0  0  0  0  0  0  0  0  0  0  0
   11.4937   12.1903   21.7109 H   0  0  0  0  0  0  0  0  0  0  0  0
  1  3  1  0  0  0  0
  1  5  2  0  0  0  0
  2  4  1  0  0  0  0
  2  6  2  0  0  0  0
  3  8  2  0  0  0  0
  4  9  2  0  0  0  0
  5 15  1  0  0  0  0
  6 16  1  0  0  0  0
  7  8  1  0  0  0  0
  7 15  2  0  0  0  0
  8 11  1  0  0  0  0
  9 10  1  0  0  0  0
  9 17  1  0  0  0  0
 10 12  1  0  0  0  0
 10 16  2  0  0  0  0
 11 17  1  0  0  0  0
 11 18  2  0  0  0  0
 13 14  1  0  0  0  0
 14 17  1  0  0  0  0
  1 19  1  0  0  0  0
  2 20  1  0  0  0  0
  3 21  1  0  0  0  0
  4 22  1  0  0  0  0
  5 23  1  0  0  0  0
  6 24  1  0  0  0  0
  7 25  1  0  0  0  0
 12 26  1  0  0  0  0
 12 27  1  0  0  0  0
 12 28  1  0  0  0  0
 13 29  1  0  0  0  0
 13 30  1  0  0  0  0
 13 31  1  0  0  0  0
 14 32  1  0  0  0  0
 14 33  1  0  0  0  0
M  END
> <Catalog ID>
Z1981006209

> <PlateID>
1337959-R-14

> <Well>
B02

> <MW (desalted)>
241.288

> <CLogP>
0.406

> <HBD>
0

> <TPSA>
46.090

> <RotBonds>
3

> <ROCS_ShapeQuery>
x0446_0A_x1080_0A_x0929_0A_x0812_0A_x0719_0A_x1140_0A_x0528_0A_x0310_0A

> <ROCS_TanimotoCombo>
0.324 

> <ROCS_ShapeTanimoto>
0.204 

> <ROCS_ColorTanimoto>
0.120 

> <ROCS_RefTversky>
0.189 

> <ROCS_RefColorTversky>
0.127 

> <ROCS_RefTverskyCombo>
0.317 

> <ROCS_FitTversky>
1.610 

> <ROCS_FitColorTversky>
0.686 

> <ROCS_FitTverskyCombo>
2.296 

> <ROCS_ColorScore>
-4.534

> <ROCS_Overlap>
2234.517

> <ROCS_Rank>
166                 

$$$$
untitled-dbase-505_21
  -OEChem-02082415003D

 32 33  0     1  0  0  0  0  0999 V2000
    9.8114   15.1596   21.8511 C   0  0  0  0  0  0  0  0  0  0  0  0
   12.2288   15.2972   21.5998 C   0  0  0  0  0  0  0  0  0  0  0  0
   13.5194   15.0061   22.0415 C   0  0  0  0  0  0  0  0  0  0  0  0
   12.6032   13.8167   23.9344 C   0  0  0  0  0  0  0  0  0  0  0  0
   11.1254   14.8481   22.3253 C   0  0  0  0  0  0  0  0  0  0  0  0
   11.3126   14.1078   23.4927 C   0  0  0  0  0  0  0  0  0  0  0  0
   13.7067   14.2659   23.2088 C   0  0  0  0  0  0  0  0  0  0  0  0
    9.1946   10.6283   24.6371 C   0  0  0  0  0  0  0  0  0  0  0  0
    7.9398   12.6296   24.1306 C   0  0  0  0  0  0  0  0  0  0  0  0
    7.8148   11.2408   24.7389 C   0  0  1  0  0  0  0  0  0  0  0  0
    9.8273   11.3558   23.4563 C   0  0  1  0  0  0  0  0  0  0  0  0
   10.1490   13.6086   24.2995 C   0  0  0  0  0  0  0  0  0  0  0  0
    9.4646   10.7214   22.1116 C   0  0  0  0  0  0  0  0  0  0  0  0
    8.7459   15.4121   21.4667 N   0  0  0  0  0  0  0  0  0  0  0  0
    9.2807   12.7250   23.5198 N   0  0  2  0  0  0  0  0  0  0  0  0
   10.0845   11.4660   21.0785 O   0  0  0  0  0  0  0  0  0  0  0  0
   14.9464   13.9868   23.6320 F   0  0  0  0  0  0  0  0  0  0  0  0
    6.9520   10.5095   23.9820 F   0  0  0  0  0  0  0  0  0  0  0  0
   12.1011   15.8760   20.6879 H   0  0  0  0  0  0  0  0  0  0  0  0
   14.3784   15.3561   21.4768 H   0  0  0  0  0  0  0  0  0  0  0  0
   12.7604   13.2406   24.8425 H   0  0  0  0  0  0  0  0  0  0  0  0
    9.7683   10.8342   25.5440 H   0  0  0  0  0  0  0  0  0  0  0  0
    9.1299    9.5480   24.4946 H   0  0  0  0  0  0  0  0  0  0  0  0
    7.1474   12.8099   23.3677 H   0  0  0  0  0  0  0  0  0  0  0  0
    7.8071   13.4048   24.9238 H   0  0  0  0  0  0  0  0  0  0  0  0
    7.4247   11.2571   25.7650 H   0  0  0  0  0  0  0  0  0  0  0  0
   10.9110   11.3651   23.5679 H   0  0  0  0  0  0  0  0  0  0  0  0
   10.4975   13.0515   25.1759 H   0  0  0  0  0  0  0  0  0  0  0  0
    9.5383   14.4409   24.6649 H   0  0  0  0  0  0  0  0  0  0  0  0
    8.3835   10.7403   21.9693 H   0  0  0  0  0  0  0  0  0  0  0  0
    9.8212    9.6915   22.0760 H   0  0  0  0  0  0  0  0  0  0  0  0
    9.8397   11.0447   20.2372 H   0  0  0  0  0  0  0  0  0  0  0  0
  1  5  1  0  0  0  0
  1 14  3  0  0  0  0
  2  3  1  0  0  0  0
  2  5  2  0  0  0  0
  3  7  2  0  0  0  0
  4  6  2  0  0  0  0
  4  7  1  0  0  0  0
  5  6  1  0  0  0  0
  6 12  1  0  0  0  0
  7 17  1  0  0  0  0
  8 10  1  0  0  0  0
  8 11  1  0  0  0  0
  9 10  1  0  0  0  0
  9 15  1  0  0  0  0
 10 18  1  1  0  0  0
 11 13  1  1  0  0  0
 11 15  1  0  0  0  0
 12 15  1  0  0  0  0
 13 16  1  0  0  0  0
  2 19  1  0  0  0  0
  3 20  1  0  0  0  0
  4 21  1  0  0  0  0
  8 22  1  0  0  0  0
  8 23  1  0  0  0  0
  9 24  1  0  0  0  0
  9 25  1  0  0  0  0
 10 26  1  0  0  0  0
 11 27  1  0  0  0  0
 12 28  1  0  0  0  0
 12 29  1  0  0  0  0
 13 30  1  0  0  0  0
 13 31  1  0  0  0  0
 16 32  1  0  0  0  0
M  END
> <Catalog ID>
Z2057681069

> <PlateID>
1337959-R-11

> <Well>
H11

> <MW (desalted)>
252.260

> <CLogP>
1.684

> <HBD>
1

> <TPSA>
47.260

> <RotBonds>
3

> <ROCS_ShapeQuery>
x0446_0A_x1080_0A_x0929_0A_x0812_0A_x0719_0A_x1140_0A_x0528_0A_x0310_0A

> <ROCS_TanimotoCombo>
0.324 

> <ROCS_ShapeTanimoto>
0.214 

> <ROCS_ColorTanimoto>
0.111 

> <ROCS_RefTversky>
0.196 

> <ROCS_RefColorTversky>
0.121 

> <ROCS_RefTverskyCombo>
0.317 

> <ROCS_FitTversky>
1.689 

> <ROCS_FitColorTversky>
0.569 

> <ROCS_FitTverskyCombo>
2.258 

> <ROCS_ColorScore>
-4.302

> <ROCS_Overlap>
2318.668

> <ROCS_Rank>
167                 

$$$$
untitled-dbase-671_0
  -OEChem-02082415003D

 26 28  0     1  0  0  0  0  0999 V2000
    6.0787   13.3663   24.5751 C   0  0  0  0  0  0  0  0  0  0  0  0
    5.5896   12.1066   24.8997 C   0  0  0  0  0  0  0  0  0  0  0  0
    7.3676   13.5063   24.0505 C   0  0  0  0  0  0  0  0  0  0  0  0
    6.3927   10.9880   24.7099 C   0  0  0  0  0  0  0  0  0  0  0  0
    8.2077   12.3964   23.8363 C   0  0  0  0  0  0  0  0  0  0  0  0
    7.6882   11.1347   24.2005 C   0  0  0  0  0  0  0  0  0  0  0  0
   10.1772   11.1359   22.8649 C   0  0  0  0  0  0  0  0  0  0  0  0
   10.5757   13.5224   23.7967 C   0  0  0  0  0  0  0  0  0  0  0  0
    9.8133   10.1445   23.9596 C   0  0  0  0  0  0  0  0  0  0  0  0
   10.0342   13.6987   22.4046 C   0  0  2  0  0  0  0  0  0  0  0  0
    9.6123   12.4938   23.2354 C   0  0  2  0  0  0  0  0  0  0  0  0
   10.9331   13.5546   21.2519 N   0  0  0  0  0  0  0  0  0  0  0  0
    8.3965    9.9634   24.0476 O   0  0  0  0  0  0  0  0  0  0  0  0
    5.4579   14.2451   24.7250 H   0  0  0  0  0  0  0  0  0  0  0  0
    4.5870   11.9969   25.3016 H   0  0  0  0  0  0  0  0  0  0  0  0
    7.7080   14.5103   23.8101 H   0  0  0  0  0  0  0  0  0  0  0  0
    6.0105   10.0035   24.9667 H   0  0  0  0  0  0  0  0  0  0  0  0
   11.2659   11.1666   22.7445 H   0  0  0  0  0  0  0  0  0  0  0  0
    9.7384   10.8173   21.9111 H   0  0  0  0  0  0  0  0  0  0  0  0
   11.6173   13.2450   23.9162 H   0  0  0  0  0  0  0  0  0  0  0  0
   10.2284   14.2089   24.5607 H   0  0  0  0  0  0  0  0  0  0  0  0
   10.2489    9.1666   23.7292 H   0  0  0  0  0  0  0  0  0  0  0  0
   10.2001   10.4542   24.9388 H   0  0  0  0  0  0  0  0  0  0  0  0
    9.3182   14.5009   22.2658 H   0  0  0  0  0  0  0  0  0  0  0  0
   11.8596   13.6925   21.5721 H   0  0  0  0  0  0  0  0  0  0  0  0
   10.8133   12.6417   20.8882 H   0  0  0  0  0  0  0  0  0  0  0  0
  1  2  2  0  0  0  0
  1  3  1  0  0  0  0
  2  4  1  0  0  0  0
  3  5  2  0  0  0  0
  4  6  2  0  0  0  0
  5  6  1  0  0  0  0
  5 11  1  0  0  0  0
  6 13  1  0  0  0  0
  7  9  1  0  0  0  0
  7 11  1  0  0  0  0
  8 10  1  0  0  0  0
  8 11  1  1  0  0  0
  9 13  1  0  0  0  0
 10 11  1  0  0  0  0
 10 12  1  6  0  0  0
  1 14  1  0  0  0  0
  2 15  1  0  0  0  0
  3 16  1  0  0  0  0
  4 17  1  0  0  0  0
  7 18  1  0  0  0  0
  7 19  1  0  0  0  0
  8 20  1  0  0  0  0
  8 21  1  0  0  0  0
  9 22  1  0  0  0  0
  9 23  1  0  0  0  0
 10 24  1  0  0  0  0
 12 25  1  0  0  0  0
 12 26  1  0  0  0  0
M  END
> <Catalog ID>
Z3522296777

> <PlateID>
1337959-R-15

> <Well>
G02

> <MW (desalted)>
175.227

> <CLogP>
1.312

> <HBD>
1

> <TPSA>
35.250

> <RotBonds>
0

> <ROCS_ShapeQuery>
x0446_0A_x1080_0A_x0929_0A_x0812_0A_x0719_0A_x1140_0A_x0528_0A_x0310_0A

> <ROCS_TanimotoCombo>
0.324 

> <ROCS_ShapeTanimoto>
0.205 

> <ROCS_ColorTanimoto>
0.120 

> <ROCS_RefTversky>
0.187 

> <ROCS_RefColorTversky>
0.127 

> <ROCS_RefTverskyCombo>
0.313 

> <ROCS_FitTversky>
1.877 

> <ROCS_FitColorTversky>
0.681 

> <ROCS_FitTverskyCombo>
2.558 

> <ROCS_ColorScore>
-4.507

> <ROCS_Overlap>
2201.678

> <ROCS_Rank>
168                 

$$$$
untitled-dbase-549_11
  -OEChem-02082415003D

 34 35  0     0  0  0  0  0  0999 V2000
    5.8409   12.3767   24.7061 C   0  0  0  0  0  0  0  0  0  0  0  0
    6.8069   11.7800   25.5163 C   0  0  0  0  0  0  0  0  0  0  0  0
    6.0997   12.5870   23.3516 C   0  0  0  0  0  0  0  0  0  0  0  0
    8.0317   11.3936   24.9721 C   0  0  0  0  0  0  0  0  0  0  0  0
    7.3246   12.2006   22.8075 C   0  0  0  0  0  0  0  0  0  0  0  0
   13.0783   16.0784   21.7112 C   0  0  0  0  0  0  0  0  0  0  0  0
    8.2906   11.6039   23.6177 C   0  0  0  0  0  0  0  0  0  0  0  0
   11.4756   14.4623   22.4999 C   0  0  0  0  0  0  0  0  0  0  0  0
   11.0610   15.2577   21.4523 C   0  0  0  0  0  0  0  0  0  0  0  0
   10.7658   13.3794   23.2282 C   0  0  0  0  0  0  0  0  0  0  0  0
    9.7429   15.2033   20.7867 C   0  0  0  0  0  0  0  0  0  0  0  0
   10.5280   10.5496   24.1057 C   0  0  0  0  0  0  0  0  0  0  0  0
    9.4182   10.1594   21.8859 C   0  0  0  0  0  0  0  0  0  0  0  0
    9.6379   11.1794   23.0184 C   0  0  0  0  0  0  0  0  0  0  0  0
   11.9786   16.1853   20.9990 N   0  0  0  0  0  0  0  0  0  0  0  0
   10.3672   12.3090   22.4552 N   0  0  0  0  0  0  0  0  0  0  0  0
   10.5610   13.5008   24.4332 O   0  0  0  0  0  0  0  0  0  0  0  0
   13.0784   14.8827   22.9422 S   0  0  0  0  0  0  0  0  0  0  0  0
    4.8867   12.6762   25.1297 H   0  0  0  0  0  0  0  0  0  0  0  0
    6.6051   11.6151   26.5707 H   0  0  0  0  0  0  0  0  0  0  0  0
    5.3475   13.0505   22.7203 H   0  0  0  0  0  0  0  0  0  0  0  0
    8.7785   10.9296   25.6110 H   0  0  0  0  0  0  0  0  0  0  0  0
    7.5175   12.3685   21.7512 H   0  0  0  0  0  0  0  0  0  0  0  0
   13.9406   16.7069   21.5356 H   0  0  0  0  0  0  0  0  0  0  0  0
    9.0237   15.8786   21.2772 H   0  0  0  0  0  0  0  0  0  0  0  0
    9.8053   15.4925   19.7243 H   0  0  0  0  0  0  0  0  0  0  0  0
    9.3149   14.1869   20.8025 H   0  0  0  0  0  0  0  0  0  0  0  0
   11.4956   10.2408   23.6917 H   0  0  0  0  0  0  0  0  0  0  0  0
   10.7336   11.2650   24.9115 H   0  0  0  0  0  0  0  0  0  0  0  0
   10.0685    9.6643   24.5585 H   0  0  0  0  0  0  0  0  0  0  0  0
   10.3737    9.8466   21.4476 H   0  0  0  0  0  0  0  0  0  0  0  0
    8.8163   10.5909   21.0767 H   0  0  0  0  0  0  0  0  0  0  0  0
    8.9060    9.2555   22.2332 H   0  0  0  0  0  0  0  0  0  0  0  0
   10.5106   12.2979   21.4564 H   0  0  0  0  0  0  0  0  0  0  0  0
  1  2  2  0  0  0  0
  1  3  1  0  0  0  0
  2  4  1  0  0  0  0
  3  5  2  0  0  0  0
  4  7  2  0  0  0  0
  5  7  1  0  0  0  0
  6 15  2  0  0  0  0
  6 18  1  0  0  0  0
  7 14  1  0  0  0  0
  8  9  2  0  0  0  0
  8 10  1  0  0  0  0
  8 18  1  0  0  0  0
  9 11  1  0  0  0  0
  9 15  1  0  0  0  0
 10 16  1  0  0  0  0
 10 17  2  0  0  0  0
 12 14  1  0  0  0  0
 13 14  1  0  0  0  0
 14 16  1  0  0  0  0
  1 19  1  0  0  0  0
  2 20  1  0  0  0  0
  3 21  1  0  0  0  0
  4 22  1  0  0  0  0
  5 23  1  0  0  0  0
  6 24  1  0  0  0  0
 11 25  1  0  0  0  0
 11 26  1  0  0  0  0
 11 27  1  0  0  0  0
 12 28  1  0  0  0  0
 12 29  1  0  0  0  0
 12 30  1  0  0  0  0
 13 31  1  0  0  0  0
 13 32  1  0  0  0  0
 13 33  1  0  0  0  0
 16 34  1  0  0  0  0
M  END
> <Catalog ID>
Z875665466

> <PlateID>
1337959-R-12

> <Well>
H08

> <MW (desalted)>
260.355

> <CLogP>
2.800

> <HBD>
1

> <TPSA>
41.990

> <RotBonds>
3

> <ROCS_ShapeQuery>
x0446_0A_x1080_0A_x0929_0A_x0812_0A_x0719_0A_x1140_0A_x0528_0A_x0310_0A

> <ROCS_TanimotoCombo>
0.324 

> <ROCS_ShapeTanimoto>
0.220 

> <ROCS_ColorTanimoto>
0.103 

> <ROCS_RefTversky>
0.202 

> <ROCS_RefColorTversky>
0.114 

> <ROCS_RefTverskyCombo>
0.315 

> <ROCS_FitTversky>
1.740 

> <ROCS_FitColorTversky>
0.535 

> <ROCS_FitTverskyCombo>
2.276 

> <ROCS_ColorScore>
-4.048

> <ROCS_Overlap>
2378.358

> <ROCS_Rank>
169                 

$$$$
untitled-dbase-245_27
  -OEChem-02082415003D

 32 33  0     1  0  0  0  0  0999 V2000
   11.2000   14.4980   22.5828 C   0  0  0  0  0  0  0  0  0  0  0  0
   10.4184   13.3895   22.8890 C   0  0  0  0  0  0  0  0  0  0  0  0
   10.6100   15.5314   21.8731 C   0  0  0  0  0  0  0  0  0  0  0  0
    8.5940   14.4338   21.7767 C   0  0  0  0  0  0  0  0  0  0  0  0
    9.0896   13.3489   22.4818 C   0  0  0  0  0  0  0  0  0  0  0  0
    9.0646   10.3986   24.1660 C   0  0  0  0  0  0  0  0  0  0  0  0
    8.4260   11.3990   25.0980 C   0  0  0  0  0  0  0  0  0  0  0  0
    8.2109   12.1546   22.8006 C   0  0  2  0  0  0  0  0  0  0  0  0
    7.5481   12.2660   24.1850 C   0  0  1  0  0  0  0  0  0  0  0  0
   10.8163   10.6428   21.3645 C   0  0  0  0  0  0  0  0  0  0  0  0
    6.1086   11.7464   24.1556 C   0  0  0  0  0  0  0  0  0  0  0  0
    9.4202   10.2250   21.6792 C   0  0  0  0  0  0  0  0  0  0  0  0
    9.3225   15.5279   21.4607 N   0  0  0  0  0  0  0  0  0  0  0  0
    8.9307   10.8911   22.8707 N   0  0  0  0  0  0  0  0  0  0  0  0
    9.6216    9.3731   24.5295 O   0  0  0  0  0  0  0  0  0  0  0  0
    5.5900   11.7716   25.4740 O   0  0  0  0  0  0  0  0  0  0  0  0
   12.2381   14.5515   22.8903 H   0  0  0  0  0  0  0  0  0  0  0  0
   10.8527   12.5629   23.4448 H   0  0  0  0  0  0  0  0  0  0  0  0
   11.1774   16.4179   21.6093 H   0  0  0  0  0  0  0  0  0  0  0  0
    7.5645   14.4588   21.4330 H   0  0  0  0  0  0  0  0  0  0  0  0
    7.8363   10.8520   25.8428 H   0  0  0  0  0  0  0  0  0  0  0  0
    9.1911   11.9972   25.6030 H   0  0  0  0  0  0  0  0  0  0  0  0
    7.4588   12.0547   21.9976 H   0  0  0  0  0  0  0  0  0  0  0  0
    7.5501   13.2858   24.5428 H   0  0  0  0  0  0  0  0  0  0  0  0
   11.4746   10.3892   22.2085 H   0  0  0  0  0  0  0  0  0  0  0  0
   11.1608   10.1190   20.4606 H   0  0  0  0  0  0  0  0  0  0  0  0
   10.8437   11.7288   21.1917 H   0  0  0  0  0  0  0  0  0  0  0  0
    6.0872   10.7216   23.7817 H   0  0  0  0  0  0  0  0  0  0  0  0
    5.4932   12.3814   23.5164 H   0  0  0  0  0  0  0  0  0  0  0  0
    8.7687   10.4819   20.8309 H   0  0  0  0  0  0  0  0  0  0  0  0
    9.3990    9.1373   21.8415 H   0  0  0  0  0  0  0  0  0  0  0  0
    4.6781   11.4379   25.4273 H   0  0  0  0  0  0  0  0  0  0  0  0
  1  2  1  0  0  0  0
  1  3  2  0  0  0  0
  2  5  2  0  0  0  0
  3 13  1  0  0  0  0
  4  5  1  0  0  0  0
  4 13  2  0  0  0  0
  5  8  1  6  0  0  0
  6  7  1  0  0  0  0
  6 14  1  0  0  0  0
  6 15  2  0  0  0  0
  7  9  1  0  0  0  0
  8  9  1  0  0  0  0
  8 14  1  0  0  0  0
  9 11  1  1  0  0  0
 10 12  1  0  0  0  0
 11 16  1  0  0  0  0
 12 14  1  0  0  0  0
  1 17  1  0  0  0  0
  2 18  1  0  0  0  0
  3 19  1  0  0  0  0
  4 20  1  0  0  0  0
  7 21  1  0  0  0  0
  7 22  1  0  0  0  0
  8 23  1  0  0  0  0
  9 24  1  0  0  0  0
 10 25  1  0  0  0  0
 10 26  1  0  0  0  0
 10 27  1  0  0  0  0
 11 28  1  0  0  0  0
 11 29  1  0  0  0  0
 12 30  1  0  0  0  0
 12 31  1  0  0  0  0
 16 32  1  0  0  0  0
M  END
> <Catalog ID>
Z2236049677

> <PlateID>
1337959-R-05

> <Well>
H04

> <MW (desalted)>
220.268

> <CLogP>
-0.600

> <HBD>
1

> <TPSA>
53.430

> <RotBonds>
3

> <ROCS_ShapeQuery>
x0446_0A_x1080_0A_x0929_0A_x0812_0A_x0719_0A_x1140_0A_x0528_0A_x0310_0A

> <ROCS_TanimotoCombo>
0.324 

> <ROCS_ShapeTanimoto>
0.208 

> <ROCS_ColorTanimoto>
0.116 

> <ROCS_RefTversky>
0.191 

> <ROCS_RefColorTversky>
0.126 

> <ROCS_RefTverskyCombo>
0.317 

> <ROCS_FitTversky>
1.752 

> <ROCS_FitColorTversky>
0.592 

> <ROCS_FitTverskyCombo>
2.343 

> <ROCS_ColorScore>
-4.473

> <ROCS_Overlap>
2254.993

> <ROCS_Rank>
170                 

$$$$
untitled-dbase-345_41
  -OEChem-02082415003D

 27 28  0     0  0  0  0  0  0999 V2000
    7.9351   10.9746   24.9030 C   0  0  0  0  0  0  0  0  0  0  0  0
    8.7618    9.8597   24.7646 C   0  0  0  0  0  0  0  0  0  0  0  0
    7.9695   11.9912   23.9486 C   0  0  0  0  0  0  0  0  0  0  0  0
    9.6230    9.7615   23.6717 C   0  0  0  0  0  0  0  0  0  0  0  0
    7.0273   15.3778   24.1680 C   0  0  0  0  0  0  0  0  0  0  0  0
    8.8306   11.8930   22.8557 C   0  0  0  0  0  0  0  0  0  0  0  0
    9.6574   10.7781   22.7172 C   0  0  0  0  0  0  0  0  0  0  0  0
    7.4841   15.0459   22.8785 C   0  0  0  0  0  0  0  0  0  0  0  0
    6.3789   15.1880   22.0755 C   0  0  0  0  0  0  0  0  0  0  0  0
    6.1744   14.9959   20.6298 C   0  0  0  0  0  0  0  0  0  0  0  0
    5.7328   15.7063   24.1878 N   0  0  0  0  0  0  0  0  0  0  0  0
    5.3667   15.5815   22.9007 N   0  0  0  0  0  0  0  0  0  0  0  0
    8.8638   12.9353   21.8804 N   0  0  0  0  0  0  0  0  0  0  0  0
    9.9187   14.5406   23.6156 O   0  0  0  0  0  0  0  0  0  0  0  0
    9.5214   15.3840   21.2853 O   0  0  0  0  0  0  0  0  0  0  0  0
   10.4892   10.6740   21.6710 F   0  0  0  0  0  0  0  0  0  0  0  0
    9.1179   14.5562   22.4057 S   0  0  0  0  0  0  0  0  0  0  0  0
    7.2642   11.0509   25.7537 H   0  0  0  0  0  0  0  0  0  0  0  0
    8.7350    9.0686   25.5082 H   0  0  0  0  0  0  0  0  0  0  0  0
    7.3201   12.8550   24.0654 H   0  0  0  0  0  0  0  0  0  0  0  0
   10.2673    8.8940   23.5643 H   0  0  0  0  0  0  0  0  0  0  0  0
    7.5816   15.3949   25.0956 H   0  0  0  0  0  0  0  0  0  0  0  0
    5.8717   13.9593   20.4023 H   0  0  0  0  0  0  0  0  0  0  0  0
    5.3946   15.6660   20.2260 H   0  0  0  0  0  0  0  0  0  0  0  0
    7.0881   15.2108   20.0471 H   0  0  0  0  0  0  0  0  0  0  0  0
    4.4049   15.7817   22.6559 H   0  0  0  0  0  0  0  0  0  0  0  0
    8.2062   12.8225   21.0919 H   0  0  0  0  0  0  0  0  0  0  0  0
  1  2  2  0  0  0  0
  1  3  1  0  0  0  0
  2  4  1  0  0  0  0
  3  6  2  0  0  0  0
  4  7  2  0  0  0  0
  5  8  1  0  0  0  0
  5 11  2  0  0  0  0
  6  7  1  0  0  0  0
  6 13  1  0  0  0  0
  7 16  1  0  0  0  0
  8  9  2  0  0  0  0
  8 17  1  0  0  0  0
  9 10  1  0  0  0  0
  9 12  1  0  0  0  0
 11 12  1  0  0  0  0
 13 17  1  0  0  0  0
 14 17  2  0  0  0  0
 15 17  2  0  0  0  0
  1 18  1  0  0  0  0
  2 19  1  0  0  0  0
  3 20  1  0  0  0  0
  4 21  1  0  0  0  0
  5 22  1  0  0  0  0
 10 23  1  0  0  0  0
 10 24  1  0  0  0  0
 10 25  1  0  0  0  0
 12 26  1  0  0  0  0
 13 27  1  0  0  0  0
M  END
> <Catalog ID>
Z600617644

> <PlateID>
1337959-R-08

> <Well>
D02

> <MW (desalted)>
255.269

> <CLogP>
1.908

> <HBD>
2

> <TPSA>
74.850

> <RotBonds>
2

> <ROCS_ShapeQuery>
x0446_0A_x1080_0A_x0929_0A_x0812_0A_x0719_0A_x1140_0A_x0528_0A_x0310_0A

> <ROCS_TanimotoCombo>
0.324 

> <ROCS_ShapeTanimoto>
0.193 

> <ROCS_ColorTanimoto>
0.130 

> <ROCS_RefTversky>
0.180 

> <ROCS_RefColorTversky>
0.143 

> <ROCS_RefTverskyCombo>
0.323 

> <ROCS_FitTversky>
1.600 

> <ROCS_FitColorTversky>
0.598 

> <ROCS_FitTverskyCombo>
2.198 

> <ROCS_ColorScore>
-5.089

> <ROCS_Overlap>
2128.787

> <ROCS_Rank>
171                 

$$$$
untitled-dbase-536_35
  -OEChem-02082415003D

 41 42  0     0  0  0  0  0  0999 V2000
   10.6430   15.5631   21.5561 C   0  0  0  0  0  0  0  0  0  0  0  0
   10.2657   12.9399   23.3311 C   0  0  0  0  0  0  0  0  0  0  0  0
   11.4752   16.8141   21.3677 C   0  0  0  0  0  0  0  0  0  0  0  0
    7.7445   11.0799   25.2247 C   0  0  0  0  0  0  0  0  0  0  0  0
    7.1671   10.3994   23.9842 C   0  0  0  0  0  0  0  0  0  0  0  0
    9.1840   11.5581   25.0593 C   0  0  0  0  0  0  0  0  0  0  0  0
   13.5035   15.6030   21.6859 C   0  0  0  0  0  0  0  0  0  0  0  0
   12.7634   14.3346   22.0646 C   0  0  0  0  0  0  0  0  0  0  0  0
    9.3295   10.6742   22.7202 C   0  0  0  0  0  0  0  0  0  0  0  0
    8.2274    9.6706   23.1398 C   0  0  0  0  0  0  0  0  0  0  0  0
    8.8269    8.4786   23.9106 C   0  0  0  0  0  0  0  0  0  0  0  0
    7.5529    9.1068   21.8727 C   0  0  0  0  0  0  0  0  0  0  0  0
   10.6172   13.1129   21.8729 C   0  0  0  0  0  0  0  0  0  0  0  0
   12.7209   16.7511   22.1203 N   0  0  0  0  0  0  0  0  0  0  0  0
   11.3375   14.3726   21.7541 N   0  0  0  0  0  0  0  0  0  0  0  0
    9.5616   11.7775   23.6671 N   0  0  0  0  0  0  0  0  0  0  0  0
    9.4160   15.6364   21.4453 O   0  0  0  0  0  0  0  0  0  0  0  0
   10.5976   13.8101   24.1399 O   0  0  0  0  0  0  0  0  0  0  0  0
   11.6607   16.9556   20.2969 H   0  0  0  0  0  0  0  0  0  0  0  0
   10.8915   17.6680   21.7276 H   0  0  0  0  0  0  0  0  0  0  0  0
    7.1050   11.9364   25.5151 H   0  0  0  0  0  0  0  0  0  0  0  0
    7.6908   10.3793   26.0803 H   0  0  0  0  0  0  0  0  0  0  0  0
    6.4037    9.6789   24.3158 H   0  0  0  0  0  0  0  0  0  0  0  0
    6.6353   11.1459   23.3765 H   0  0  0  0  0  0  0  0  0  0  0  0
    9.3364   12.4741   25.6566 H   0  0  0  0  0  0  0  0  0  0  0  0
    9.8827   10.8068   25.4706 H   0  0  0  0  0  0  0  0  0  0  0  0
   14.4799   15.6159   22.1825 H   0  0  0  0  0  0  0  0  0  0  0  0
   13.6915   15.6412   20.6060 H   0  0  0  0  0  0  0  0  0  0  0  0
   13.2069   13.4812   21.5449 H   0  0  0  0  0  0  0  0  0  0  0  0
   12.8471   14.1614   23.1422 H   0  0  0  0  0  0  0  0  0  0  0  0
   10.3037   10.1494   22.6203 H   0  0  0  0  0  0  0  0  0  0  0  0
    9.1147   11.0577   21.7037 H   0  0  0  0  0  0  0  0  0  0  0  0
    9.5687    7.9878   23.2894 H   0  0  0  0  0  0  0  0  0  0  0  0
    8.0359    7.7785   24.1578 H   0  0  0  0  0  0  0  0  0  0  0  0
    9.2934    8.8399   24.8211 H   0  0  0  0  0  0  0  0  0  0  0  0
    8.2956    8.5919   21.2735 H   0  0  0  0  0  0  0  0  0  0  0  0
    7.1250    9.9246   21.3037 H   0  0  0  0  0  0  0  0  0  0  0  0
    6.7715    8.4138   22.1641 H   0  0  0  0  0  0  0  0  0  0  0  0
    9.6938   13.1317   21.3018 H   0  0  0  0  0  0  0  0  0  0  0  0
   11.2379   12.2741   21.5720 H   0  0  0  0  0  0  0  0  0  0  0  0
   13.2537   17.6041   21.9518 H   0  0  0  0  0  0  0  0  0  0  0  0
  1  3  1  0  0  0  0
  1 15  1  0  0  0  0
  1 17  2  0  0  0  0
  2 13  1  0  0  0  0
  2 16  1  0  0  0  0
  2 18  2  0  0  0  0
  3 14  1  0  0  0  0
  4  5  1  0  0  0  0
  4  6  1  0  0  0  0
  5 10  1  0  0  0  0
  6 16  1  0  0  0  0
  7  8  1  0  0  0  0
  7 14  1  0  0  0  0
  8 15  1  0  0  0  0
  9 10  1  0  0  0  0
  9 16  1  0  0  0  0
 10 11  1  0  0  0  0
 10 12  1  0  0  0  0
 13 15  1  0  0  0  0
  3 19  1  0  0  0  0
  3 20  1  0  0  0  0
  4 21  1  0  0  0  0
  4 22  1  0  0  0  0
  5 23  1  0  0  0  0
  5 24  1  0  0  0  0
  6 25  1  0  0  0  0
  6 26  1  0  0  0  0
  7 27  1  0  0  0  0
  7 28  1  0  0  0  0
  8 29  1  0  0  0  0
  8 30  1  0  0  0  0
  9 31  1  0  0  0  0
  9 32  1  0  0  0  0
 11 33  1  0  0  0  0
 11 34  1  0  0  0  0
 11 35  1  0  0  0  0
 12 36  1  0  0  0  0
 12 37  1  0  0  0  0
 12 38  1  0  0  0  0
 13 39  1  0  0  0  0
 13 40  1  0  0  0  0
 14 41  1  0  0  0  0
M  END
> <Catalog ID>
Z2242918885

> <PlateID>
1337959-R-12

> <Well>
F05

> <MW (desalted)>
253.341

> <CLogP>
1.782

> <HBD>
1

> <TPSA>
52.650

> <RotBonds>
2

> <ROCS_ShapeQuery>
x0446_0A_x1080_0A_x0929_0A_x0812_0A_x0719_0A_x1140_0A_x0528_0A_x0310_0A

> <ROCS_TanimotoCombo>
0.324 

> <ROCS_ShapeTanimoto>
0.197 

> <ROCS_ColorTanimoto>
0.127 

> <ROCS_RefTversky>
0.183 

> <ROCS_RefColorTversky>
0.139 

> <ROCS_RefTverskyCombo>
0.323 

> <ROCS_FitTversky>
1.591 

> <ROCS_FitColorTversky>
0.584 

> <ROCS_FitTverskyCombo>
2.175 

> <ROCS_ColorScore>
-4.970

> <ROCS_Overlap>
2164.696

> <ROCS_Rank>
172                 

$$$$
untitled-dbase-248_23
  -OEChem-02082415003D

 28 28  0     0  0  0  0  0  0999 V2000
    9.5713    9.9805   23.9563 C   0  0  0  0  0  0  0  0  0  0  0  0
    8.1951    9.8754   24.1575 C   0  0  0  0  0  0  0  0  0  0  0  0
   10.1434   11.2231   23.6837 C   0  0  0  0  0  0  0  0  0  0  0  0
    7.3909   11.0128   24.0860 C   0  0  0  0  0  0  0  0  0  0  0  0
    9.3392   12.3606   23.6121 C   0  0  0  0  0  0  0  0  0  0  0  0
    7.9630   12.2554   23.8133 C   0  0  0  0  0  0  0  0  0  0  0  0
    9.9687   13.6436   23.3253 C   0  0  0  0  0  0  0  0  0  0  0  0
    7.0568   14.1605   22.5382 C   0  0  0  0  0  0  0  0  0  0  0  0
    5.5411   16.1225   21.9945 C   0  0  0  0  0  0  0  0  0  0  0  0
    6.3188   13.8004   24.9255 C   0  0  0  0  0  0  0  0  0  0  0  0
    6.8144   15.6599   22.6863 C   0  0  0  0  0  0  0  0  0  0  0  0
    7.1070   13.4227   23.7419 N   0  0  0  0  0  0  0  0  0  0  0  0
    9.7129   14.3622   22.3560 O   0  0  0  0  0  0  0  0  0  0  0  0
    7.2239   13.6859   21.4119 O   0  0  0  0  0  0  0  0  0  0  0  0
   10.8954   13.9855   24.2602 O   0  0  0  0  0  0  0  0  0  0  0  0
   10.1972    9.0945   24.0118 H   0  0  0  0  0  0  0  0  0  0  0  0
    7.7502    8.9077   24.3701 H   0  0  0  0  0  0  0  0  0  0  0  0
   11.2173   11.2919   23.5290 H   0  0  0  0  0  0  0  0  0  0  0  0
    6.3197   10.9176   24.2448 H   0  0  0  0  0  0  0  0  0  0  0  0
    4.6730   15.5978   22.4055 H   0  0  0  0  0  0  0  0  0  0  0  0
    5.5829   15.9232   20.9186 H   0  0  0  0  0  0  0  0  0  0  0  0
    5.3867   17.1978   22.1322 H   0  0  0  0  0  0  0  0  0  0  0  0
    6.9046   14.4888   25.5524 H   0  0  0  0  0  0  0  0  0  0  0  0
    5.3908   14.2964   24.6049 H   0  0  0  0  0  0  0  0  0  0  0  0
    6.0713   12.8983   25.5042 H   0  0  0  0  0  0  0  0  0  0  0  0
    7.6623   16.2018   22.2539 H   0  0  0  0  0  0  0  0  0  0  0  0
    6.7360   15.8992   23.7522 H   0  0  0  0  0  0  0  0  0  0  0  0
   11.3244   14.8484   24.0766 H   0  0  0  0  0  0  0  0  0  0  0  0
  1  2  2  0  0  0  0
  1  3  1  0  0  0  0
  2  4  1  0  0  0  0
  3  5  2  0  0  0  0
  4  6  2  0  0  0  0
  5  6  1  0  0  0  0
  5  7  1  0  0  0  0
  6 12  1  0  0  0  0
  7 13  2  0  0  0  0
  7 15  1  0  0  0  0
  8 11  1  0  0  0  0
  8 12  1  0  0  0  0
  8 14  2  0  0  0  0
  9 11  1  0  0  0  0
 10 12  1  0  0  0  0
  1 16  1  0  0  0  0
  2 17  1  0  0  0  0
  3 18  1  0  0  0  0
  4 19  1  0  0  0  0
  9 20  1  0  0  0  0
  9 21  1  0  0  0  0
  9 22  1  0  0  0  0
 10 23  1  0  0  0  0
 10 24  1  0  0  0  0
 10 25  1  0  0  0  0
 11 26  1  0  0  0  0
 11 27  1  0  0  0  0
 15 28  1  0  0  0  0
M  END
> <Catalog ID>
Z224209256

> <PlateID>
1337959-R-05

> <Well>
H09

> <MW (desalted)>
207.226

> <CLogP>
2.829

> <HBD>
1

> <TPSA>
57.610

> <RotBonds>
3

> <ROCS_ShapeQuery>
x0446_0A_x1080_0A_x0929_0A_x0812_0A_x0719_0A_x1140_0A_x0528_0A_x0310_0A

> <ROCS_TanimotoCombo>
0.323 

> <ROCS_ShapeTanimoto>
0.209 

> <ROCS_ColorTanimoto>
0.114 

> <ROCS_RefTversky>
0.191 

> <ROCS_RefColorTversky>
0.125 

> <ROCS_RefTverskyCombo>
0.316 

> <ROCS_FitTversky>
1.814 

> <ROCS_FitColorTversky>
0.586 

> <ROCS_FitTverskyCombo>
2.400 

> <ROCS_ColorScore>
-4.437

> <ROCS_Overlap>
2252.688

> <ROCS_Rank>
173                 

$$$$
untitled-dbase-250_13
  -OEChem-02082415003D

 34 35  0     0  0  0  0  0  0999 V2000
    9.1183   11.0105   25.3214 C   0  0  0  0  0  0  0  0  0  0  0  0
    8.6038   12.2202   24.8552 C   0  0  0  0  0  0  0  0  0  0  0  0
    8.8875   11.4635   22.5783 C   0  0  0  0  0  0  0  0  0  0  0  0
    9.4020   10.2537   23.0446 C   0  0  0  0  0  0  0  0  0  0  0  0
    9.5174   10.0272   24.4161 C   0  0  0  0  0  0  0  0  0  0  0  0
    8.4884   12.4467   23.4837 C   0  0  0  0  0  0  0  0  0  0  0  0
   12.0662   16.0398   22.5640 C   0  0  0  0  0  0  0  0  0  0  0  0
   12.2171   14.7441   23.3638 C   0  0  0  0  0  0  0  0  0  0  0  0
   11.1421   15.7057   21.3943 C   0  0  0  0  0  0  0  0  0  0  0  0
   11.3749   13.6994   22.6336 C   0  0  0  0  0  0  0  0  0  0  0  0
   10.3277   14.5041   21.8674 C   0  0  0  0  0  0  0  0  0  0  0  0
   11.1486    9.3291   21.7217 C   0  0  0  0  0  0  0  0  0  0  0  0
    9.2456   14.9262   22.7539 N   0  0  0  0  0  0  0  0  0  0  0  0
    7.2814   13.7512   21.5727 O   0  0  0  0  0  0  0  0  0  0  0  0
    7.0047   14.5213   23.9506 O   0  0  0  0  0  0  0  0  0  0  0  0
    9.7915    9.2948   22.1607 O   0  0  0  0  0  0  0  0  0  0  0  0
   10.0127    8.8676   24.8697 F   0  0  0  0  0  0  0  0  0  0  0  0
    7.8366   13.9801   22.8930 S   0  0  0  0  0  0  0  0  0  0  0  0
    9.2091   10.8336   26.3890 H   0  0  0  0  0  0  0  0  0  0  0  0
    8.2959   12.9791   25.5696 H   0  0  0  0  0  0  0  0  0  0  0  0
    8.7992   11.6355   21.5082 H   0  0  0  0  0  0  0  0  0  0  0  0
   11.6572   16.8503   23.1748 H   0  0  0  0  0  0  0  0  0  0  0  0
   13.0449   16.3662   22.1946 H   0  0  0  0  0  0  0  0  0  0  0  0
   13.2695   14.4392   23.3824 H   0  0  0  0  0  0  0  0  0  0  0  0
   11.8902   14.8636   24.4012 H   0  0  0  0  0  0  0  0  0  0  0  0
   10.4891   16.5664   21.1769 H   0  0  0  0  0  0  0  0  0  0  0  0
   11.7026   15.4906   20.4732 H   0  0  0  0  0  0  0  0  0  0  0  0
   11.9834   13.0699   21.9685 H   0  0  0  0  0  0  0  0  0  0  0  0
   10.8987   13.0249   23.3635 H   0  0  0  0  0  0  0  0  0  0  0  0
    9.9326   13.9390   21.0252 H   0  0  0  0  0  0  0  0  0  0  0  0
   11.3263    8.5103   21.0201 H   0  0  0  0  0  0  0  0  0  0  0  0
   11.8139    9.2354   22.5837 H   0  0  0  0  0  0  0  0  0  0  0  0
   11.3363   10.2820   21.2211 H   0  0  0  0  0  0  0  0  0  0  0  0
    9.5189   15.5289   23.5379 H   0  0  0  0  0  0  0  0  0  0  0  0
  1  2  1  0  0  0  0
  1  5  2  0  0  0  0
  2  6  2  0  0  0  0
  3  4  2  0  0  0  0
  3  6  1  0  0  0  0
  4  5  1  0  0  0  0
  4 16  1  0  0  0  0
  5 17  1  0  0  0  0
  6 18  1  0  0  0  0
  7  8  1  0  0  0  0
  7  9  1  0  0  0  0
  8 10  1  0  0  0  0
  9 11  1  0  0  0  0
 10 11  1  0  0  0  0
 11 13  1  0  0  0  0
 12 16  1  0  0  0  0
 13 18  1  0  0  0  0
 14 18  2  0  0  0  0
 15 18  2  0  0  0  0
  1 19  1  0  0  0  0
  2 20  1  0  0  0  0
  3 21  1  0  0  0  0
  7 22  1  0  0  0  0
  7 23  1  0  0  0  0
  8 24  1  0  0  0  0
  8 25  1  0  0  0  0
  9 26  1  0  0  0  0
  9 27  1  0  0  0  0
 10 28  1  0  0  0  0
 10 29  1  0  0  0  0
 11 30  1  0  0  0  0
 12 31  1  0  0  0  0
 12 32  1  0  0  0  0
 12 33  1  0  0  0  0
 13 34  1  0  0  0  0
M  END
> <Catalog ID>
Z274526588

> <PlateID>
1337959-R-05

> <Well>
H11

> <MW (desalted)>
273.324

> <CLogP>
2.811

> <HBD>
1

> <TPSA>
55.400

> <RotBonds>
3

> <ROCS_ShapeQuery>
x0446_0A_x1080_0A_x0929_0A_x0812_0A_x0719_0A_x1140_0A_x0528_0A_x0310_0A

> <ROCS_TanimotoCombo>
0.323 

> <ROCS_ShapeTanimoto>
0.216 

> <ROCS_ColorTanimoto>
0.107 

> <ROCS_RefTversky>
0.198 

> <ROCS_RefColorTversky>
0.117 

> <ROCS_RefTverskyCombo>
0.315 

> <ROCS_FitTversky>
1.730 

> <ROCS_FitColorTversky>
0.553 

> <ROCS_FitTverskyCombo>
2.283 

> <ROCS_ColorScore>
-4.185

> <ROCS_Overlap>
2336.179

> <ROCS_Rank>
174                 

$$$$
untitled-dbase-328_123
  -OEChem-02082415003D

 34 35  0     0  0  0  0  0  0999 V2000
   10.9491   17.2240   21.5607 C   0  0  0  0  0  0  0  0  0  0  0  0
   10.9577   15.0602   21.3953 C   0  0  0  0  0  0  0  0  0  0  0  0
    9.9207   12.7957   23.1081 C   0  0  0  0  0  0  0  0  0  0  0  0
    8.9551   10.4298   22.9040 C   0  0  0  0  0  0  0  0  0  0  0  0
    7.9896   12.0613   24.4763 C   0  0  0  0  0  0  0  0  0  0  0  0
    9.4188    9.4377   23.9626 C   0  0  0  0  0  0  0  0  0  0  0  0
    8.3085   11.2610   25.7353 C   0  0  0  0  0  0  0  0  0  0  0  0
   13.5764   15.7281   23.2073 C   0  0  0  0  0  0  0  0  0  0  0  0
   11.4629   13.6469   21.3587 C   0  0  0  0  0  0  0  0  0  0  0  0
   13.1956   16.1425   21.7964 C   0  0  0  0  0  0  0  0  0  0  0  0
    9.7096   16.8388   21.3564 N   0  0  0  0  0  0  0  0  0  0  0  0
    9.7151   15.4622   21.2511 N   0  0  0  0  0  0  0  0  0  0  0  0
   11.7685   16.1366   21.5925 N   0  0  0  0  0  0  0  0  0  0  0  0
    8.9805   11.8012   23.4298 N   0  0  0  0  0  0  0  0  0  0  0  0
   10.4740   12.7063   21.8360 N   0  0  0  0  0  0  0  0  0  0  0  0
   10.2484   13.6878   23.8975 O   0  0  0  0  0  0  0  0  0  0  0  0
    8.3130    9.4652   25.4140 S   0  0  0  0  0  0  0  0  0  0  0  0
   11.2956   18.2396   21.6881 H   0  0  0  0  0  0  0  0  0  0  0  0
    9.5904   10.3929   22.0114 H   0  0  0  0  0  0  0  0  0  0  0  0
    7.9418   10.1653   22.5863 H   0  0  0  0  0  0  0  0  0  0  0  0
    6.9759   11.8352   24.1379 H   0  0  0  0  0  0  0  0  0  0  0  0
    7.9963   13.1388   24.6873 H   0  0  0  0  0  0  0  0  0  0  0  0
    9.4505    8.4226   23.5622 H   0  0  0  0  0  0  0  0  0  0  0  0
   10.4233    9.6969   24.3008 H   0  0  0  0  0  0  0  0  0  0  0  0
    9.3027   11.5399   26.1084 H   0  0  0  0  0  0  0  0  0  0  0  0
    7.5895   11.4840   26.5357 H   0  0  0  0  0  0  0  0  0  0  0  0
   13.1322   16.3990   23.9503 H   0  0  0  0  0  0  0  0  0  0  0  0
   14.6636   15.7549   23.3302 H   0  0  0  0  0  0  0  0  0  0  0  0
   13.2327   14.7120   23.4274 H   0  0  0  0  0  0  0  0  0  0  0  0
   11.7352   13.3606   20.3370 H   0  0  0  0  0  0  0  0  0  0  0  0
   12.3589   13.5337   21.9779 H   0  0  0  0  0  0  0  0  0  0  0  0
   13.6445   15.4659   21.0605 H   0  0  0  0  0  0  0  0  0  0  0  0
   13.5635   17.1514   21.5775 H   0  0  0  0  0  0  0  0  0  0  0  0
   10.1748   11.9582   21.2238 H   0  0  0  0  0  0  0  0  0  0  0  0
  1 11  2  0  0  0  0
  1 13  1  0  0  0  0
  2  9  1  0  0  0  0
  2 12  2  0  0  0  0
  2 13  1  0  0  0  0
  3 14  1  0  0  0  0
  3 15  1  0  0  0  0
  3 16  2  0  0  0  0
  4  6  1  0  0  0  0
  4 14  1  0  0  0  0
  5  7  1  0  0  0  0
  5 14  1  0  0  0  0
  6 17  1  0  0  0  0
  7 17  1  0  0  0  0
  8 10  1  0  0  0  0
  9 15  1  0  0  0  0
 10 13  1  0  0  0  0
 11 12  1  0  0  0  0
  1 18  1  0  0  0  0
  4 19  1  0  0  0  0
  4 20  1  0  0  0  0
  5 21  1  0  0  0  0
  5 22  1  0  0  0  0
  6 23  1  0  0  0  0
  6 24  1  0  0  0  0
  7 25  1  0  0  0  0
  7 26  1  0  0  0  0
  8 27  1  0  0  0  0
  8 28  1  0  0  0  0
  8 29  1  0  0  0  0
  9 30  1  0  0  0  0
  9 31  1  0  0  0  0
 10 32  1  0  0  0  0
 10 33  1  0  0  0  0
 15 34  1  0  0  0  0
M  END
> <Catalog ID>
Z534201548

> <PlateID>
1337959-R-08

> <Well>
A02

> <MW (desalted)>
255.340

> <CLogP>
-0.584

> <HBD>
1

> <TPSA>
63.050

> <RotBonds>
3

> <ROCS_ShapeQuery>
x0446_0A_x1080_0A_x0929_0A_x0812_0A_x0719_0A_x1140_0A_x0528_0A_x0310_0A

> <ROCS_TanimotoCombo>
0.323 

> <ROCS_ShapeTanimoto>
0.189 

> <ROCS_ColorTanimoto>
0.135 

> <ROCS_RefTversky>
0.176 

> <ROCS_RefColorTversky>
0.145 

> <ROCS_RefTverskyCombo>
0.321 

> <ROCS_FitTversky>
1.583 

> <ROCS_FitColorTversky>
0.658 

> <ROCS_FitTverskyCombo>
2.241 

> <ROCS_ColorScore>
-5.163

> <ROCS_Overlap>
2080.154

> <ROCS_Rank>
175                 

$$$$
untitled-dbase-584_45
  -OEChem-02082415003D

 34 35  0     0  0  0  0  0  0999 V2000
    6.3550   14.7930   23.0463 C   0  0  0  0  0  0  0  0  0  0  0  0
    6.6316   14.3695   21.7632 C   0  0  0  0  0  0  0  0  0  0  0  0
    7.9829   13.0282   22.8516 C   0  0  0  0  0  0  0  0  0  0  0  0
   10.8514   13.5965   22.7564 C   0  0  0  0  0  0  0  0  0  0  0  0
    7.7835    9.9254   23.7662 C   0  0  0  0  0  0  0  0  0  0  0  0
    8.0595   10.7477   25.0227 C   0  0  0  0  0  0  0  0  0  0  0  0
    8.6765   10.5144   22.6741 C   0  0  0  0  0  0  0  0  0  0  0  0
    9.1957   11.6974   24.6535 C   0  0  0  0  0  0  0  0  0  0  0  0
    9.0263   11.9383   23.1406 C   0  0  0  0  0  0  0  0  0  0  0  0
    6.0211   14.9023   20.5291 C   0  0  0  0  0  0  0  0  0  0  0  0
   12.7864   15.1183   22.1927 C   0  0  0  0  0  0  0  0  0  0  0  0
   12.1505   13.7553   21.9883 C   0  0  0  0  0  0  0  0  0  0  0  0
    7.5651   13.3579   21.6496 N   0  0  0  0  0  0  0  0  0  0  0  0
   10.2720   12.3556   22.5295 N   0  0  0  0  0  0  0  0  0  0  0  0
   10.3905   14.4711   23.4850 O   0  0  0  0  0  0  0  0  0  0  0  0
    7.2948   13.8937   24.1640 S   0  0  0  0  0  0  0  0  0  0  0  0
    5.6687   15.5613   23.3735 H   0  0  0  0  0  0  0  0  0  0  0  0
    8.0401    8.8756   23.9444 H   0  0  0  0  0  0  0  0  0  0  0  0
    6.7287    9.9620   23.4790 H   0  0  0  0  0  0  0  0  0  0  0  0
    7.1734   11.2968   25.3517 H   0  0  0  0  0  0  0  0  0  0  0  0
    8.3615   10.0871   25.8415 H   0  0  0  0  0  0  0  0  0  0  0  0
    9.5634    9.8937   22.4916 H   0  0  0  0  0  0  0  0  0  0  0  0
    8.1162   10.5441   21.7277 H   0  0  0  0  0  0  0  0  0  0  0  0
    9.0788   12.6348   25.2084 H   0  0  0  0  0  0  0  0  0  0  0  0
   10.1751   11.2886   24.9129 H   0  0  0  0  0  0  0  0  0  0  0  0
    6.6073   15.7451   20.1281 H   0  0  0  0  0  0  0  0  0  0  0  0
    5.9511   14.1361   19.7383 H   0  0  0  0  0  0  0  0  0  0  0  0
    4.9913   15.2604   20.6985 H   0  0  0  0  0  0  0  0  0  0  0  0
   12.1118   15.9193   21.8726 H   0  0  0  0  0  0  0  0  0  0  0  0
   13.0241   15.2734   23.2496 H   0  0  0  0  0  0  0  0  0  0  0  0
   13.7135   15.2101   21.6172 H   0  0  0  0  0  0  0  0  0  0  0  0
   12.8450   12.9733   22.3159 H   0  0  0  0  0  0  0  0  0  0  0  0
   11.9453   13.6021   20.9228 H   0  0  0  0  0  0  0  0  0  0  0  0
   10.7447   11.7082   21.9041 H   0  0  0  0  0  0  0  0  0  0  0  0
  1  2  2  0  0  0  0
  1 16  1  0  0  0  0
  2 10  1  0  0  0  0
  2 13  1  0  0  0  0
  3  9  1  0  0  0  0
  3 13  2  0  0  0  0
  3 16  1  0  0  0  0
  4 12  1  0  0  0  0
  4 14  1  0  0  0  0
  4 15  2  0  0  0  0
  5  6  1  0  0  0  0
  5  7  1  0  0  0  0
  6  8  1  0  0  0  0
  7  9  1  0  0  0  0
  8  9  1  0  0  0  0
  9 14  1  0  0  0  0
 11 12  1  0  0  0  0
  1 17  1  0  0  0  0
  5 18  1  0  0  0  0
  5 19  1  0  0  0  0
  6 20  1  0  0  0  0
  6 21  1  0  0  0  0
  7 22  1  0  0  0  0
  7 23  1  0  0  0  0
  8 24  1  0  0  0  0
  8 25  1  0  0  0  0
 10 26  1  0  0  0  0
 10 27  1  0  0  0  0
 10 28  1  0  0  0  0
 11 29  1  0  0  0  0
 11 30  1  0  0  0  0
 11 31  1  0  0  0  0
 12 32  1  0  0  0  0
 12 33  1  0  0  0  0
 14 34  1  0  0  0  0
M  END
> <Catalog ID>
Z1188610733

> <PlateID>
1337959-R-13

> <Well>
F05

> <MW (desalted)>
238.349

> <CLogP>
1.784

> <HBD>
1

> <TPSA>
41.990

> <RotBonds>
3

> <ROCS_ShapeQuery>
x0446_0A_x1080_0A_x0929_0A_x0812_0A_x0719_0A_x1140_0A_x0528_0A_x0310_0A

> <ROCS_TanimotoCombo>
0.323 

> <ROCS_ShapeTanimoto>
0.208 

> <ROCS_ColorTanimoto>
0.115 

> <ROCS_RefTversky>
0.191 

> <ROCS_RefColorTversky>
0.125 

> <ROCS_RefTverskyCombo>
0.316 

> <ROCS_FitTversky>
1.774 

> <ROCS_FitColorTversky>
0.590 

> <ROCS_FitTverskyCombo>
2.364 

> <ROCS_ColorScore>
-4.460

> <ROCS_Overlap>
2249.393

> <ROCS_Rank>
176                 

$$$$
untitled-dbase-16_3
  -OEChem-02082415003D

 17 18  0     0  0  0  0  0  0999 V2000
    7.9734   14.4883   21.9663 C   0  0  0  0  0  0  0  0  0  0  0  0
    7.7468   12.3184   23.9898 C   0  0  0  0  0  0  0  0  0  0  0  0
    8.8181   12.6447   23.2624 C   0  0  0  0  0  0  0  0  0  0  0  0
    6.5269   13.0736   24.1996 C   0  0  0  0  0  0  0  0  0  0  0  0
    8.0446   10.9951   24.5799 C   0  0  0  0  0  0  0  0  0  0  0  0
    8.4783   15.5326   21.3507 N   0  0  0  0  0  0  0  0  0  0  0  0
    9.8376   15.4639   21.5572 N   0  0  0  0  0  0  0  0  0  0  0  0
   10.1565   14.4002   22.2845 N   0  0  0  0  0  0  0  0  0  0  0  0
    9.7770   11.6573   23.3048 N   0  0  0  0  0  0  0  0  0  0  0  0
    9.3946   10.7009   24.0375 N   0  0  0  0  0  0  0  0  0  0  0  0
    8.9896   13.7920   22.5389 N   0  0  0  0  0  0  0  0  0  0  0  0
    6.4666   14.1896   24.7043 O   0  0  0  0  0  0  0  0  0  0  0  0
    5.4584   12.3684   23.7572 O   0  0  0  0  0  0  0  0  0  0  0  0
    6.9292   14.2138   22.0227 H   0  0  0  0  0  0  0  0  0  0  0  0
    8.0798   11.0292   25.6728 H   0  0  0  0  0  0  0  0  0  0  0  0
    7.3356   10.2290   24.2522 H   0  0  0  0  0  0  0  0  0  0  0  0
    4.6123   12.8485   23.8830 H   0  0  0  0  0  0  0  0  0  0  0  0
  1  6  2  0  0  0  0
  1 11  1  0  0  0  0
  2  3  2  0  0  0  0
  2  4  1  0  0  0  0
  2  5  1  0  0  0  0
  3  9  1  0  0  0  0
  3 11  1  0  0  0  0
  4 12  2  0  0  0  0
  4 13  1  0  0  0  0
  5 10  1  0  0  0  0
  6  7  1  0  0  0  0
  7  8  2  0  0  0  0
  8 11  1  0  0  0  0
  9 10  2  0  0  0  0
  1 14  1  0  0  0  0
  5 15  1  0  0  0  0
  5 16  1  0  0  0  0
 13 17  1  0  0  0  0
M  END
> <Catalog ID>
Z275129290

> <PlateID>
1337959-R-01

> <Well>
C03

> <MW (desalted)>
180.124

> <CLogP>
0.069

> <HBD>
2

> <TPSA>
109.580

> <RotBonds>
2

> <ROCS_ShapeQuery>
x0446_0A_x1080_0A_x0929_0A_x0812_0A_x0719_0A_x1140_0A_x0528_0A_x0310_0A

> <ROCS_TanimotoCombo>
0.323 

> <ROCS_ShapeTanimoto>
0.184 

> <ROCS_ColorTanimoto>
0.139 

> <ROCS_RefTversky>
0.171 

> <ROCS_RefColorTversky>
0.160 

> <ROCS_RefTverskyCombo>
0.331 

> <ROCS_FitTversky>
1.681 

> <ROCS_FitColorTversky>
0.517 

> <ROCS_FitTverskyCombo>
2.198 

> <ROCS_ColorScore>
-5.713

> <ROCS_Overlap>
2021.636

> <ROCS_Rank>
177                 

$$$$
untitled-dbase-476_4
  -OEChem-02082415003D

 30 31  0     0  0  0  0  0  0999 V2000
    8.7751    9.9908   24.1102 C   0  0  0  0  0  0  0  0  0  0  0  0
    9.5729   10.6260   23.1585 C   0  0  0  0  0  0  0  0  0  0  0  0
    7.9258   10.7426   24.9221 C   0  0  0  0  0  0  0  0  0  0  0  0
    8.6721   12.7646   23.8306 C   0  0  0  0  0  0  0  0  0  0  0  0
    9.5214   12.0128   23.0187 C   0  0  0  0  0  0  0  0  0  0  0  0
    7.8743   12.1295   24.7823 C   0  0  0  0  0  0  0  0  0  0  0  0
   10.3614   12.6813   22.0159 C   0  0  0  0  0  0  0  0  0  0  0  0
   11.0491   14.5488   23.6090 C   0  0  0  0  0  0  0  0  0  0  0  0
   10.9452   14.9335   21.1790 C   0  0  0  0  0  0  0  0  0  0  0  0
   12.3757   15.2992   23.6135 C   0  0  0  0  0  0  0  0  0  0  0  0
   12.2799   15.6564   21.2855 C   0  0  0  0  0  0  0  0  0  0  0  0
    6.9662   12.9335   25.6506 C   0  0  0  0  0  0  0  0  0  0  0  0
   10.7904   13.9833   22.2793 N   0  0  0  0  0  0  0  0  0  0  0  0
   10.6210   12.0333   21.0029 O   0  0  0  0  0  0  0  0  0  0  0  0
   12.4034   16.2751   22.5690 O   0  0  0  0  0  0  0  0  0  0  0  0
    6.2464   12.1811   26.5346 F   0  0  0  0  0  0  0  0  0  0  0  0
    7.6187   13.8565   26.4172 F   0  0  0  0  0  0  0  0  0  0  0  0
    6.0435   13.6390   24.9340 F   0  0  0  0  0  0  0  0  0  0  0  0
    8.8161    8.9110   24.2198 H   0  0  0  0  0  0  0  0  0  0  0  0
   10.2308   10.0304   22.5307 H   0  0  0  0  0  0  0  0  0  0  0  0
    7.3073   10.2392   25.6605 H   0  0  0  0  0  0  0  0  0  0  0  0
    8.6316   13.8463   23.7238 H   0  0  0  0  0  0  0  0  0  0  0  0
   11.0485   13.7814   24.3866 H   0  0  0  0  0  0  0  0  0  0  0  0
   10.2247   15.2419   23.8145 H   0  0  0  0  0  0  0  0  0  0  0  0
   10.1185   15.6482   21.2680 H   0  0  0  0  0  0  0  0  0  0  0  0
   10.8560   14.4300   20.2115 H   0  0  0  0  0  0  0  0  0  0  0  0
   12.5001   15.8281   24.5637 H   0  0  0  0  0  0  0  0  0  0  0  0
   13.2246   14.6143   23.5010 H   0  0  0  0  0  0  0  0  0  0  0  0
   13.1229   14.9748   21.1203 H   0  0  0  0  0  0  0  0  0  0  0  0
   12.3371   16.4459   20.5295 H   0  0  0  0  0  0  0  0  0  0  0  0
  1  2  2  0  0  0  0
  1  3  1  0  0  0  0
  2  5  1  0  0  0  0
  3  6  2  0  0  0  0
  4  5  2  0  0  0  0
  4  6  1  0  0  0  0
  5  7  1  0  0  0  0
  6 12  1  0  0  0  0
  7 13  1  0  0  0  0
  7 14  2  0  0  0  0
  8 10  1  0  0  0  0
  8 13  1  0  0  0  0
  9 11  1  0  0  0  0
  9 13  1  0  0  0  0
 10 15  1  0  0  0  0
 11 15  1  0  0  0  0
 12 16  1  0  0  0  0
 12 17  1  0  0  0  0
 12 18  1  0  0  0  0
  1 19  1  0  0  0  0
  2 20  1  0  0  0  0
  3 21  1  0  0  0  0
  4 22  1  0  0  0  0
  8 23  1  0  0  0  0
  8 24  1  0  0  0  0
  9 25  1  0  0  0  0
  9 26  1  0  0  0  0
 10 27  1  0  0  0  0
 10 28  1  0  0  0  0
 11 29  1  0  0  0  0
 11 30  1  0  0  0  0
M  END
> <Catalog ID>
Z31721208

> <PlateID>
1337959-R-11

> <Well>
D06

> <MW (desalted)>
259.224

> <CLogP>
1.787

> <HBD>
0

> <TPSA>
29.540

> <RotBonds>
2

> <ROCS_ShapeQuery>
x0446_0A_x1080_0A_x0929_0A_x0812_0A_x0719_0A_x1140_0A_x0528_0A_x0310_0A

> <ROCS_TanimotoCombo>
0.323 

> <ROCS_ShapeTanimoto>
0.220 

> <ROCS_ColorTanimoto>
0.103 

> <ROCS_RefTversky>
0.201 

> <ROCS_RefColorTversky>
0.108 

> <ROCS_RefTverskyCombo>
0.310 

> <ROCS_FitTversky>
1.712 

> <ROCS_FitColorTversky>
0.680 

> <ROCS_FitTverskyCombo>
2.392 

> <ROCS_ColorScore>
-3.851

> <ROCS_Overlap>
2377.220

> <ROCS_Rank>
178                 

$$$$
untitled-dbase-480_32
  -OEChem-02082415003D

 32 33  0     0  0  0  0  0  0999 V2000
    7.8408   10.5525   24.5238 C   0  0  0  0  0  0  0  0  0  0  0  0
    8.9148    9.7944   24.0575 C   0  0  0  0  0  0  0  0  0  0  0  0
    7.8126   11.9300   24.3060 C   0  0  0  0  0  0  0  0  0  0  0  0
    9.9608   10.4139   23.3736 C   0  0  0  0  0  0  0  0  0  0  0  0
    8.8586   12.5494   23.6220 C   0  0  0  0  0  0  0  0  0  0  0  0
    5.4880   15.2078   22.5338 C   0  0  0  0  0  0  0  0  0  0  0  0
    9.9327   11.7914   23.1558 C   0  0  0  0  0  0  0  0  0  0  0  0
    5.4960   15.0764   23.9354 C   0  0  0  0  0  0  0  0  0  0  0  0
    6.7482   14.8237   22.1457 C   0  0  0  0  0  0  0  0  0  0  0  0
    4.3965   15.3564   24.8756 C   0  0  0  0  0  0  0  0  0  0  0  0
    7.3733   14.7391   20.8122 C   0  0  0  0  0  0  0  0  0  0  0  0
    8.7916   14.0276   23.4111 C   0  0  0  0  0  0  0  0  0  0  0  0
    4.3795   15.6567   21.6736 C   0  0  0  0  0  0  0  0  0  0  0  0
    6.6683   14.6425   24.4059 N   0  0  0  0  0  0  0  0  0  0  0  0
    7.4087   14.4979   23.2937 N   0  0  0  0  0  0  0  0  0  0  0  0
    3.4021   14.6219   21.5528 O   0  0  0  0  0  0  0  0  0  0  0  0
   11.2447   12.5227   22.3054 Cl  0  0  0  0  0  0  0  0  0  0  0  0
    7.0259   10.0698   25.0557 H   0  0  0  0  0  0  0  0  0  0  0  0
    8.9358    8.7218   24.2263 H   0  0  0  0  0  0  0  0  0  0  0  0
    6.9708   12.5112   24.6732 H   0  0  0  0  0  0  0  0  0  0  0  0
   10.7899    9.8087   23.0156 H   0  0  0  0  0  0  0  0  0  0  0  0
    3.7743   14.4605   25.0414 H   0  0  0  0  0  0  0  0  0  0  0  0
    4.7662   15.6920   25.8606 H   0  0  0  0  0  0  0  0  0  0  0  0
    3.7323   16.1604   24.5119 H   0  0  0  0  0  0  0  0  0  0  0  0
    7.8660   15.6880   20.5425 H   0  0  0  0  0  0  0  0  0  0  0  0
    8.1339   13.9409   20.7605 H   0  0  0  0  0  0  0  0  0  0  0  0
    6.6369   14.5086   20.0229 H   0  0  0  0  0  0  0  0  0  0  0  0
    9.2642   14.5778   24.2388 H   0  0  0  0  0  0  0  0  0  0  0  0
    9.3280   14.3327   22.4999 H   0  0  0  0  0  0  0  0  0  0  0  0
    3.8740   16.5539   22.0754 H   0  0  0  0  0  0  0  0  0  0  0  0
    4.7236   15.9199   20.6567 H   0  0  0  0  0  0  0  0  0  0  0  0
    2.7032   14.9721   20.9805 H   0  0  0  0  0  0  0  0  0  0  0  0
  1  2  2  0  0  0  0
  1  3  1  0  0  0  0
  2  4  1  0  0  0  0
  3  5  2  0  0  0  0
  4  7  2  0  0  0  0
  5  7  1  0  0  0  0
  5 12  1  0  0  0  0
  6  8  1  0  0  0  0
  6  9  2  0  0  0  0
  6 13  1  0  0  0  0
  7 17  1  0  0  0  0
  8 10  1  0  0  0  0
  8 14  2  0  0  0  0
  9 11  1  0  0  0  0
  9 15  1  0  0  0  0
 12 15  1  0  0  0  0
 13 16  1  0  0  0  0
 14 15  1  0  0  0  0
  1 18  1  0  0  0  0
  2 19  1  0  0  0  0
  3 20  1  0  0  0  0
  4 21  1  0  0  0  0
 10 22  1  0  0  0  0
 10 23  1  0  0  0  0
 10 24  1  0  0  0  0
 11 25  1  0  0  0  0
 11 26  1  0  0  0  0
 11 27  1  0  0  0  0
 12 28  1  0  0  0  0
 12 29  1  0  0  0  0
 13 30  1  0  0  0  0
 13 31  1  0  0  0  0
 16 32  1  0  0  0  0
M  END
> <Catalog ID>
Z228585282

> <PlateID>
1337959-R-11

> <Well>
E03

> <MW (desalted)>
250.724

> <CLogP>
2.328

> <HBD>
1

> <TPSA>
38.050

> <RotBonds>
3

> <ROCS_ShapeQuery>
x0446_0A_x1080_0A_x0929_0A_x0812_0A_x0719_0A_x1140_0A_x0528_0A_x0310_0A

> <ROCS_TanimotoCombo>
0.323 

> <ROCS_ShapeTanimoto>
0.199 

> <ROCS_ColorTanimoto>
0.124 

> <ROCS_RefTversky>
0.185 

> <ROCS_RefColorTversky>
0.131 

> <ROCS_RefTverskyCombo>
0.315 

> <ROCS_FitTversky>
1.637 

> <ROCS_FitColorTversky>
0.703 

> <ROCS_FitTverskyCombo>
2.340 

> <ROCS_ColorScore>
-4.646

> <ROCS_Overlap>
2181.280

> <ROCS_Rank>
179                 

$$$$
untitled-dbase-367_10
  -OEChem-02082415003D

 32 33  0     0  0  0  0  0  0999 V2000
    8.5684    9.6332   24.4154 C   0  0  0  0  0  0  0  0  0  0  0  0
    9.3327    9.9492   23.2922 C   0  0  0  0  0  0  0  0  0  0  0  0
    7.9064   10.6423   25.1149 C   0  0  0  0  0  0  0  0  0  0  0  0
    8.7731   12.2833   23.5681 C   0  0  0  0  0  0  0  0  0  0  0  0
    9.4351   11.2743   22.8685 C   0  0  0  0  0  0  0  0  0  0  0  0
    8.0088   11.9673   24.6913 C   0  0  0  0  0  0  0  0  0  0  0  0
    8.8965   13.6710   23.1021 C   0  0  0  0  0  0  0  0  0  0  0  0
    5.9989   14.5367   20.9879 C   0  0  0  0  0  0  0  0  0  0  0  0
    7.0853   16.5327   21.7851 C   0  0  0  0  0  0  0  0  0  0  0  0
    6.5224   13.7358   22.1794 C   0  0  0  0  0  0  0  0  0  0  0  0
    7.6226   15.7862   23.0023 C   0  0  0  0  0  0  0  0  0  0  0  0
   11.5663   11.8508   21.9846 C   0  0  0  0  0  0  0  0  0  0  0  0
    5.8224   15.9499   21.3275 N   0  0  0  0  0  0  0  0  0  0  0  0
    7.7313   14.3516   22.7405 N   0  0  0  0  0  0  0  0  0  0  0  0
   10.0353   14.1355   23.0724 O   0  0  0  0  0  0  0  0  0  0  0  0
   10.1877   11.5584   21.7680 O   0  0  0  0  0  0  0  0  0  0  0  0
    7.1721   13.1838   25.5881 Cl  0  0  0  0  0  0  0  0  0  0  0  0
    8.4888    8.6015   24.7452 H   0  0  0  0  0  0  0  0  0  0  0  0
    9.8456    9.1581   22.7519 H   0  0  0  0  0  0  0  0  0  0  0  0
    7.3149   10.3788   25.9881 H   0  0  0  0  0  0  0  0  0  0  0  0
    6.6807   14.4359   20.1346 H   0  0  0  0  0  0  0  0  0  0  0  0
    5.0326   14.1254   20.6766 H   0  0  0  0  0  0  0  0  0  0  0  0
    6.9139   17.5807   22.0538 H   0  0  0  0  0  0  0  0  0  0  0  0
    7.8244   16.5249   20.9746 H   0  0  0  0  0  0  0  0  0  0  0  0
    5.7753   13.7112   22.9823 H   0  0  0  0  0  0  0  0  0  0  0  0
    6.7050   12.7026   21.8724 H   0  0  0  0  0  0  0  0  0  0  0  0
    8.5950   16.1970   23.2933 H   0  0  0  0  0  0  0  0  0  0  0  0
    6.9463   15.9073   23.8575 H   0  0  0  0  0  0  0  0  0  0  0  0
   12.0502   12.0590   21.0272 H   0  0  0  0  0  0  0  0  0  0  0  0
   12.0483   10.9990   22.4711 H   0  0  0  0  0  0  0  0  0  0  0  0
   11.6463   12.7293   22.6293 H   0  0  0  0  0  0  0  0  0  0  0  0
    5.4959   16.4553   20.5043 H   0  0  0  0  0  0  0  0  0  0  0  0
  1  2  1  0  0  0  0
  1  3  2  0  0  0  0
  2  5  2  0  0  0  0
  3  6  1  0  0  0  0
  4  5  1  0  0  0  0
  4  6  2  0  0  0  0
  4  7  1  0  0  0  0
  5 16  1  0  0  0  0
  6 17  1  0  0  0  0
  7 14  1  0  0  0  0
  7 15  2  0  0  0  0
  8 10  1  0  0  0  0
  8 13  1  0  0  0  0
  9 11  1  0  0  0  0
  9 13  1  0  0  0  0
 10 14  1  0  0  0  0
 11 14  1  0  0  0  0
 12 16  1  0  0  0  0
  1 18  1  0  0  0  0
  2 19  1  0  0  0  0
  3 20  1  0  0  0  0
  8 21  1  0  0  0  0
  8 22  1  0  0  0  0
  9 23  1  0  0  0  0
  9 24  1  0  0  0  0
 10 25  1  0  0  0  0
 10 26  1  0  0  0  0
 11 27  1  0  0  0  0
 11 28  1  0  0  0  0
 12 29  1  0  0  0  0
 12 30  1  0  0  0  0
 12 31  1  0  0  0  0
 13 32  1  0  0  0  0
M  END
> <Catalog ID>
Z1455769211

> <PlateID>
1337959-R-08

> <Well>
H10

> <MW (desalted)>
254.713

> <CLogP>
1.733

> <HBD>
1

> <TPSA>
41.570

> <RotBonds>
2

> <ROCS_ShapeQuery>
x0446_0A_x1080_0A_x0929_0A_x0812_0A_x0719_0A_x1140_0A_x0528_0A_x0310_0A

> <ROCS_TanimotoCombo>
0.323 

> <ROCS_ShapeTanimoto>
0.210 

> <ROCS_ColorTanimoto>
0.112 

> <ROCS_RefTversky>
0.193 

> <ROCS_RefColorTversky>
0.122 

> <ROCS_RefTverskyCombo>
0.316 

> <ROCS_FitTversky>
1.719 

> <ROCS_FitColorTversky>
0.577 

> <ROCS_FitTverskyCombo>
2.296 

> <ROCS_ColorScore>
-4.362

> <ROCS_Overlap>
2280.698

> <ROCS_Rank>
180                 

$$$$
untitled-dbase-641_1
  -OEChem-02082415003D

 26 27  0     0  0  0  0  0  0999 V2000
    9.4337   11.4130   24.7607 C   0  0  0  0  0  0  0  0  0  0  0  0
    8.0021   10.9624   23.2061 C   0  0  0  0  0  0  0  0  0  0  0  0
    6.4157   13.5222   24.0208 C   0  0  0  0  0  0  0  0  0  0  0  0
    5.5274   13.0529   25.1653 C   0  0  0  0  0  0  0  0  0  0  0  0
    6.9872   11.2672   25.6380 C   0  0  0  0  0  0  0  0  0  0  0  0
    7.9322   11.7361   24.5490 C   0  0  0  0  0  0  0  0  0  0  0  0
    9.5523   11.0477   23.2559 C   0  0  0  0  0  0  0  0  0  0  0  0
   10.2589    9.7298   22.9741 C   0  0  0  0  0  0  0  0  0  0  0  0
    7.8205   13.1836   24.2787 N   0  0  0  0  0  0  0  0  0  0  0  0
    5.6438   11.6369   25.3142 O   0  0  0  0  0  0  0  0  0  0  0  0
   10.1239   12.0781   22.4190 O   0  0  0  0  0  0  0  0  0  0  0  0
    9.6006    8.7147   23.5583 F   0  0  0  0  0  0  0  0  0  0  0  0
   10.3114    9.5037   21.6508 F   0  0  0  0  0  0  0  0  0  0  0  0
   11.5130    9.7624   23.4550 F   0  0  0  0  0  0  0  0  0  0  0  0
   10.0836   12.2311   25.0899 H   0  0  0  0  0  0  0  0  0  0  0  0
    9.6089   10.5670   25.4382 H   0  0  0  0  0  0  0  0  0  0  0  0
    7.6166    9.9366   23.2663 H   0  0  0  0  0  0  0  0  0  0  0  0
    7.5294   11.4373   22.3396 H   0  0  0  0  0  0  0  0  0  0  0  0
    6.0995   13.0503   23.0844 H   0  0  0  0  0  0  0  0  0  0  0  0
    6.3141   14.6048   23.8849 H   0  0  0  0  0  0  0  0  0  0  0  0
    5.8527   13.5136   26.1034 H   0  0  0  0  0  0  0  0  0  0  0  0
    4.4766   13.3242   25.0073 H   0  0  0  0  0  0  0  0  0  0  0  0
    7.0357   10.1797   25.7758 H   0  0  0  0  0  0  0  0  0  0  0  0
    7.2349   11.7280   26.6001 H   0  0  0  0  0  0  0  0  0  0  0  0
    8.3753   13.4792   23.4745 H   0  0  0  0  0  0  0  0  0  0  0  0
   11.0069   12.2351   22.7731 H   0  0  0  0  0  0  0  0  0  0  0  0
  1  6  1  0  0  0  0
  1  7  1  0  0  0  0
  2  6  1  6  0  0  0
  2  7  1  0  0  0  0
  3  4  1  0  0  0  0
  3  9  1  0  0  0  0
  4 10  1  0  0  0  0
  5  6  1  0  0  0  0
  5 10  1  0  0  0  0
  6  9  1  0  0  0  0
  7  8  1  6  0  0  0
  7 11  1  1  0  0  0
  8 12  1  0  0  0  0
  8 13  1  0  0  0  0
  8 14  1  0  0  0  0
  1 15  1  0  0  0  0
  1 16  1  0  0  0  0
  2 17  1  0  0  0  0
  2 18  1  0  0  0  0
  3 19  1  0  0  0  0
  3 20  1  0  0  0  0
  4 21  1  0  0  0  0
  4 22  1  0  0  0  0
  5 23  1  0  0  0  0
  5 24  1  0  0  0  0
  9 25  1  0  0  0  0
 11 26  1  0  0  0  0
M  END
> <Catalog ID>
Z4657696854

> <PlateID>
1337959-R-15

> <Well>
A10

> <MW (desalted)>
211.182

> <CLogP>
-0.929

> <HBD>
2

> <TPSA>
41.490

> <RotBonds>
1

> <ROCS_ShapeQuery>
x0446_0A_x1080_0A_x0929_0A_x0812_0A_x0719_0A_x1140_0A_x0528_0A_x0310_0A

> <ROCS_TanimotoCombo>
0.323 

> <ROCS_ShapeTanimoto>
0.193 

> <ROCS_ColorTanimoto>
0.129 

> <ROCS_RefTversky>
0.179 

> <ROCS_RefColorTversky>
0.142 

> <ROCS_RefTverskyCombo>
0.321 

> <ROCS_FitTversky>
1.732 

> <ROCS_FitColorTversky>
0.595 

> <ROCS_FitTverskyCombo>
2.327 

> <ROCS_ColorScore>
-5.062

> <ROCS_Overlap>
2106.984

> <ROCS_Rank>
181                 

$$$$
untitled-dbase-586_4
  -OEChem-02082415003D

 22 23  0     0  0  0  0  0  0999 V2000
   11.0533   14.0942   23.8210 C   0  0  0  0  0  0  0  0  0  0  0  0
    9.6348   10.0548   23.2814 C   0  0  0  0  0  0  0  0  0  0  0  0
    8.9280    9.8562   24.4673 C   0  0  0  0  0  0  0  0  0  0  0  0
    9.4763   11.2413   22.5653 C   0  0  0  0  0  0  0  0  0  0  0  0
    8.0626   10.8441   24.9373 C   0  0  0  0  0  0  0  0  0  0  0  0
    7.7981   15.0540   21.1196 C   0  0  0  0  0  0  0  0  0  0  0  0
    8.6109   12.2292   23.0352 C   0  0  0  0  0  0  0  0  0  0  0  0
    7.9041   12.0306   24.2212 C   0  0  0  0  0  0  0  0  0  0  0  0
    8.4769   13.4437   22.2611 C   0  0  0  0  0  0  0  0  0  0  0  0
   10.8941   14.1712   22.3665 C   0  0  0  0  0  0  0  0  0  0  0  0
   11.1816   14.0331   24.9726 N   0  0  0  0  0  0  0  0  0  0  0  0
    7.3716   13.9069   21.7252 N   0  0  0  0  0  0  0  0  0  0  0  0
    9.0978   15.3298   21.2470 N   0  0  0  0  0  0  0  0  0  0  0  0
    9.5086   14.2845   21.9811 N   0  0  0  0  0  0  0  0  0  0  0  0
    6.8175   13.2202   24.8508 Cl  0  0  0  0  0  0  0  0  0  0  0  0
   10.3085    9.2853   22.9162 H   0  0  0  0  0  0  0  0  0  0  0  0
    9.0509    8.9323   25.0250 H   0  0  0  0  0  0  0  0  0  0  0  0
   10.0366   11.3792   21.6434 H   0  0  0  0  0  0  0  0  0  0  0  0
    7.5190   10.6727   25.8630 H   0  0  0  0  0  0  0  0  0  0  0  0
    7.1409   15.7095   20.5683 H   0  0  0  0  0  0  0  0  0  0  0  0
   11.4259   15.0374   21.9570 H   0  0  0  0  0  0  0  0  0  0  0  0
   11.3042   13.2804   21.8777 H   0  0  0  0  0  0  0  0  0  0  0  0
  1 10  1  0  0  0  0
  1 11  3  0  0  0  0
  2  3  2  0  0  0  0
  2  4  1  0  0  0  0
  3  5  1  0  0  0  0
  4  7  2  0  0  0  0
  5  8  2  0  0  0  0
  6 12  1  0  0  0  0
  6 13  2  0  0  0  0
  7  8  1  0  0  0  0
  7  9  1  0  0  0  0
  8 15  1  0  0  0  0
  9 12  2  0  0  0  0
  9 14  1  0  0  0  0
 10 14  1  0  0  0  0
 13 14  1  0  0  0  0
  2 16  1  0  0  0  0
  3 17  1  0  0  0  0
  4 18  1  0  0  0  0
  5 19  1  0  0  0  0
  6 20  1  0  0  0  0
 10 21  1  0  0  0  0
 10 22  1  0  0  0  0
M  END
> <Catalog ID>
Z1172453229

> <PlateID>
1337959-R-13

> <Well>
F07

> <MW (desalted)>
218.642

> <CLogP>
1.151

> <HBD>
0

> <TPSA>
54.500

> <RotBonds>
2

> <ROCS_ShapeQuery>
x0446_0A_x1080_0A_x0929_0A_x0812_0A_x0719_0A_x1140_0A_x0528_0A_x0310_0A

> <ROCS_TanimotoCombo>
0.323 

> <ROCS_ShapeTanimoto>
0.202 

> <ROCS_ColorTanimoto>
0.121 

> <ROCS_RefTversky>
0.186 

> <ROCS_RefColorTversky>
0.128 

> <ROCS_RefTverskyCombo>
0.314 

> <ROCS_FitTversky>
1.741 

> <ROCS_FitColorTversky>
0.686 

> <ROCS_FitTverskyCombo>
2.427 

> <ROCS_ColorScore>
-4.542

> <ROCS_Overlap>
2194.037

> <ROCS_Rank>
182                 

$$$$
untitled-dbase-75_0
  -OEChem-02082415003D

 20 21  0     1  0  0  0  0  0999 V2000
    9.7363   13.0246   23.6939 C   0  0  0  0  0  0  0  0  0  0  0  0
    7.9964   10.6286   22.6367 C   0  0  0  0  0  0  0  0  0  0  0  0
    9.4633   10.3428   24.5008 C   0  0  0  0  0  0  0  0  0  0  0  0
    9.4838   10.6446   23.0102 C   0  0  2  0  0  0  0  0  0  0  0  0
    7.2747   11.1804   23.8836 C   0  0  2  0  0  0  0  0  0  0  0  0
    8.4062   11.3574   24.9122 C   0  0  2  0  0  0  0  0  0  0  0  0
   10.0259   11.9827   22.8255 N   0  0  0  0  0  0  0  0  0  0  0  0
    6.2759   10.2257   24.3514 N   0  0  0  0  0  0  0  0  0  0  0  0
   10.1550   14.1687   23.5333 O   0  0  0  0  0  0  0  0  0  0  0  0
    8.9527   12.6998   24.7777 O   0  0  0  0  0  0  0  0  0  0  0  0
    7.7794   11.2234   21.7423 H   0  0  0  0  0  0  0  0  0  0  0  0
    7.6888    9.5987   22.4138 H   0  0  0  0  0  0  0  0  0  0  0  0
    9.1433    9.3142   24.6998 H   0  0  0  0  0  0  0  0  0  0  0  0
   10.4353   10.5167   24.9738 H   0  0  0  0  0  0  0  0  0  0  0  0
   10.0806    9.9402   22.4252 H   0  0  0  0  0  0  0  0  0  0  0  0
    6.7896   12.1357   23.6533 H   0  0  0  0  0  0  0  0  0  0  0  0
    8.0851   11.2398   25.9515 H   0  0  0  0  0  0  0  0  0  0  0  0
   10.5907   12.1736   22.0037 H   0  0  0  0  0  0  0  0  0  0  0  0
    6.2754    9.4470   23.7352 H   0  0  0  0  0  0  0  0  0  0  0  0
    6.5214    9.9434   25.2713 H   0  0  0  0  0  0  0  0  0  0  0  0
  1  7  1  0  0  0  0
  1  9  2  0  0  0  0
  1 10  1  0  0  0  0
  2  4  1  0  0  0  0
  2  5  1  0  0  0  0
  3  4  1  6  0  0  0
  3  6  1  1  0  0  0
  4  7  1  0  0  0  0
  5  6  1  0  0  0  0
  5  8  1  1  0  0  0
  6 10  1  0  0  0  0
  2 11  1  0  0  0  0
  2 12  1  0  0  0  0
  3 13  1  0  0  0  0
  3 14  1  0  0  0  0
  4 15  1  0  0  0  0
  5 16  1  0  0  0  0
  6 17  1  0  0  0  0
  7 18  1  0  0  0  0
  8 19  1  0  0  0  0
  8 20  1  0  0  0  0
M  END
> <Catalog ID>
Z4309645756

> <PlateID>
1337959-R-02

> <Well>
D05

> <MW (desalted)>
142.156

> <CLogP>
-1.110

> <HBD>
2

> <TPSA>
64.350

> <RotBonds>
0

> <ROCS_ShapeQuery>
x0446_0A_x1080_0A_x0929_0A_x0812_0A_x0719_0A_x1140_0A_x0528_0A_x0310_0A

> <ROCS_TanimotoCombo>
0.322 

> <ROCS_ShapeTanimoto>
0.164 

> <ROCS_ColorTanimoto>
0.158 

> <ROCS_RefTversky>
0.154 

> <ROCS_RefColorTversky>
0.179 

> <ROCS_RefTverskyCombo>
0.333 

> <ROCS_FitTversky>
1.731 

> <ROCS_FitColorTversky>
0.572 

> <ROCS_FitTverskyCombo>
2.304 

> <ROCS_ColorScore>
-6.415

> <ROCS_Overlap>
1812.501

> <ROCS_Rank>
183                 

$$$$
untitled-dbase-625_8
  -OEChem-02082415003D

 36 37  0     1  0  0  0  0  0999 V2000
    7.7287   10.8182   23.9976 C   0  0  0  0  0  0  0  0  0  0  0  0
    8.1169   11.7404   24.9694 C   0  0  0  0  0  0  0  0  0  0  0  0
    8.5241   10.6174   22.8694 C   0  0  0  0  0  0  0  0  0  0  0  0
    9.3003   12.4619   24.8130 C   0  0  0  0  0  0  0  0  0  0  0  0
    9.7075   11.3389   22.7130 C   0  0  0  0  0  0  0  0  0  0  0  0
   10.0957   12.2612   23.6848 C   0  0  0  0  0  0  0  0  0  0  0  0
    9.8994   15.6158   21.4598 C   0  0  0  0  0  0  0  0  0  0  0  0
   13.1912   15.1501   22.2073 C   0  0  0  0  0  0  0  0  0  0  0  0
   12.2518   14.8891   21.0381 C   0  0  0  0  0  0  0  0  0  0  0  0
   12.2761   15.2821   23.4104 C   0  0  0  0  0  0  0  0  0  0  0  0
   10.9087   14.5260   21.6660 C   0  0  1  0  0  0  0  0  0  0  0  0
    9.6934   13.4433   25.8685 C   0  0  0  0  0  0  0  0  0  0  0  0
   10.5413   11.1049   21.4957 C   0  0  0  0  0  0  0  0  0  0  0  0
   11.3695   13.0379   23.5165 C   0  0  0  0  0  0  0  0  0  0  0  0
   11.1174   14.4242   23.1187 N   0  0  1  0  0  0  0  0  0  0  0  0
   10.1633   16.8026   21.3365 O   0  0  0  0  0  0  0  0  0  0  0  0
    8.6437   15.1062   21.4306 O   0  0  0  0  0  0  0  0  0  0  0  0
    6.8067   10.2568   24.1190 H   0  0  0  0  0  0  0  0  0  0  0  0
    7.4902   11.8889   25.8449 H   0  0  0  0  0  0  0  0  0  0  0  0
    8.2130    9.8961   22.1184 H   0  0  0  0  0  0  0  0  0  0  0  0
   13.9322   14.3474   22.3300 H   0  0  0  0  0  0  0  0  0  0  0  0
   13.7443   16.0885   22.0412 H   0  0  0  0  0  0  0  0  0  0  0  0
   12.2148   15.7532   20.3612 H   0  0  0  0  0  0  0  0  0  0  0  0
   12.6292   14.0335   20.4593 H   0  0  0  0  0  0  0  0  0  0  0  0
   12.8057   14.9496   24.3280 H   0  0  0  0  0  0  0  0  0  0  0  0
   11.9714   16.3346   23.5738 H   0  0  0  0  0  0  0  0  0  0  0  0
   10.5162   13.5988   21.2213 H   0  0  0  0  0  0  0  0  0  0  0  0
   10.3093   12.9535   26.6315 H   0  0  0  0  0  0  0  0  0  0  0  0
   10.2633   14.2774   25.4412 H   0  0  0  0  0  0  0  0  0  0  0  0
    8.8108   13.8756   26.3556 H   0  0  0  0  0  0  0  0  0  0  0  0
   10.2373   11.7842   20.6911 H   0  0  0  0  0  0  0  0  0  0  0  0
   11.6053   11.2672   21.7073 H   0  0  0  0  0  0  0  0  0  0  0  0
   10.4403   10.0725   21.1391 H   0  0  0  0  0  0  0  0  0  0  0  0
   11.9386   13.0538   24.4524 H   0  0  0  0  0  0  0  0  0  0  0  0
   12.0099   12.5821   22.7541 H   0  0  0  0  0  0  0  0  0  0  0  0
    7.9678   15.8047   21.2983 H   0  0  0  0  0  0  0  0  0  0  0  0
  1  2  1  0  0  0  0
  1  3  2  0  0  0  0
  2  4  2  0  0  0  0
  3  5  1  0  0  0  0
  4  6  1  0  0  0  0
  4 12  1  0  0  0  0
  5  6  2  0  0  0  0
  5 13  1  0  0  0  0
  6 14  1  0  0  0  0
  7 11  1  6  0  0  0
  7 16  2  0  0  0  0
  7 17  1  0  0  0  0
  8  9  1  0  0  0  0
  8 10  1  0  0  0  0
  9 11  1  0  0  0  0
 10 15  1  0  0  0  0
 11 15  1  0  0  0  0
 14 15  1  0  0  0  0
  1 18  1  0  0  0  0
  2 19  1  0  0  0  0
  3 20  1  0  0  0  0
  8 21  1  0  0  0  0
  8 22  1  0  0  0  0
  9 23  1  0  0  0  0
  9 24  1  0  0  0  0
 10 25  1  0  0  0  0
 10 26  1  0  0  0  0
 11 27  1  0  0  0  0
 12 28  1  0  0  0  0
 12 29  1  0  0  0  0
 12 30  1  0  0  0  0
 13 31  1  0  0  0  0
 13 32  1  0  0  0  0
 13 33  1  0  0  0  0
 14 34  1  0  0  0  0
 14 35  1  0  0  0  0
 17 36  1  0  0  0  0
M  END
> <Catalog ID>
Z1459954429

> <PlateID>
1337959-R-14

> <Well>
G04

> <MW (desalted)>
233.306

> <CLogP>
1.129

> <HBD>
1

> <TPSA>
40.540

> <RotBonds>
3

> <ROCS_ShapeQuery>
x0446_0A_x1080_0A_x0929_0A_x0812_0A_x0719_0A_x1140_0A_x0528_0A_x0310_0A

> <ROCS_TanimotoCombo>
0.322 

> <ROCS_ShapeTanimoto>
0.199 

> <ROCS_ColorTanimoto>
0.123 

> <ROCS_RefTversky>
0.184 

> <ROCS_RefColorTversky>
0.133 

> <ROCS_RefTverskyCombo>
0.317 

> <ROCS_FitTversky>
1.634 

> <ROCS_FitColorTversky>
0.626 

> <ROCS_FitTverskyCombo>
2.260 

> <ROCS_ColorScore>
-4.737

> <ROCS_Overlap>
2176.594

> <ROCS_Rank>
184                 

$$$$
untitled-dbase-117_1
  -OEChem-02082415003D

 26 26  0     0  0  0  0  0  0999 V2000
    9.0184   10.0580   24.6920 C   0  0  0  0  0  0  0  0  0  0  0  0
    9.2273    9.8463   23.3292 C   0  0  0  0  0  0  0  0  0  0  0  0
    8.6051   11.3098   25.1480 C   0  0  0  0  0  0  0  0  0  0  0  0
    9.0232   10.8863   22.4225 C   0  0  0  0  0  0  0  0  0  0  0  0
    8.4010   12.3499   24.2413 C   0  0  0  0  0  0  0  0  0  0  0  0
    8.6100   12.1382   22.8785 C   0  0  0  0  0  0  0  0  0  0  0  0
    9.2537   10.6333   20.9683 C   0  0  0  0  0  0  0  0  0  0  0  0
    7.9582   13.6807   24.7555 C   0  0  0  0  0  0  0  0  0  0  0  0
    8.3912   13.2534   21.9062 C   0  0  0  0  0  0  0  0  0  0  0  0
   10.9204   13.5715   21.1626 N   0  0  0  0  0  0  0  0  0  0  0  0
    9.3774   15.6172   21.3890 O   0  0  0  0  0  0  0  0  0  0  0  0
   10.1417   14.4027   23.4690 O   0  0  0  0  0  0  0  0  0  0  0  0
    9.7314   14.3855   22.0748 S   0  0  0  0  0  0  0  0  0  0  0  0
    9.1781    9.2482   25.3982 H   0  0  0  0  0  0  0  0  0  0  0  0
    9.5488    8.8670   22.9842 H   0  0  0  0  0  0  0  0  0  0  0  0
    8.4446   11.4642   26.2116 H   0  0  0  0  0  0  0  0  0  0  0  0
    8.3301   10.2838   20.4929 H   0  0  0  0  0  0  0  0  0  0  0  0
    9.5881   11.5437   20.4561 H   0  0  0  0  0  0  0  0  0  0  0  0
   10.0334    9.8767   20.8169 H   0  0  0  0  0  0  0  0  0  0  0  0
    8.8277   14.3044   24.9927 H   0  0  0  0  0  0  0  0  0  0  0  0
    7.3421   14.2061   24.0157 H   0  0  0  0  0  0  0  0  0  0  0  0
    7.3479   13.5723   25.6606 H   0  0  0  0  0  0  0  0  0  0  0  0
    7.4615   13.7958   22.1041 H   0  0  0  0  0  0  0  0  0  0  0  0
    8.3739   12.8995   20.8707 H   0  0  0  0  0  0  0  0  0  0  0  0
   11.1848   13.9739   20.2549 H   0  0  0  0  0  0  0  0  0  0  0  0
   11.7052   13.1467   21.6716 H   0  0  0  0  0  0  0  0  0  0  0  0
  1  2  1  0  0  0  0
  1  3  2  0  0  0  0
  2  4  2  0  0  0  0
  3  5  1  0  0  0  0
  4  6  1  0  0  0  0
  4  7  1  0  0  0  0
  5  6  2  0  0  0  0
  5  8  1  0  0  0  0
  6  9  1  0  0  0  0
  9 13  1  0  0  0  0
 10 13  1  0  0  0  0
 11 13  2  0  0  0  0
 12 13  2  0  0  0  0
  1 14  1  0  0  0  0
  2 15  1  0  0  0  0
  3 16  1  0  0  0  0
  7 17  1  0  0  0  0
  7 18  1  0  0  0  0
  7 19  1  0  0  0  0
  8 20  1  0  0  0  0
  8 21  1  0  0  0  0
  8 22  1  0  0  0  0
  9 23  1  0  0  0  0
  9 24  1  0  0  0  0
 10 25  1  0  0  0  0
 10 26  1  0  0  0  0
M  END
> <Catalog ID>
Z1525491547

> <PlateID>
1337959-R-03

> <Well>
C04

> <MW (desalted)>
199.270

> <CLogP>
1.172

> <HBD>
1

> <TPSA>
60.160

> <RotBonds>
2

> <ROCS_ShapeQuery>
x0446_0A_x1080_0A_x0929_0A_x0812_0A_x0719_0A_x1140_0A_x0528_0A_x0310_0A

> <ROCS_TanimotoCombo>
0.322 

> <ROCS_ShapeTanimoto>
0.176 

> <ROCS_ColorTanimoto>
0.146 

> <ROCS_RefTversky>
0.164 

> <ROCS_RefColorTversky>
0.148 

> <ROCS_RefTverskyCombo>
0.312 

> <ROCS_FitTversky>
1.708 

> <ROCS_FitColorTversky>
0.926 

> <ROCS_FitTverskyCombo>
2.634 

> <ROCS_ColorScore>
-5.244

> <ROCS_Overlap>
1933.333

> <ROCS_Rank>
185                 

$$$$
untitled-dbase-650_2
  -OEChem-02082415003D

 27 28  0     0  0  0  0  0  0999 V2000
    9.5503   10.5187   23.3679 C   0  0  0  0  0  0  0  0  0  0  0  0
    8.4611   10.4766   24.2382 C   0  0  0  0  0  0  0  0  0  0  0  0
    9.9445   11.7312   22.8022 C   0  0  0  0  0  0  0  0  0  0  0  0
    7.7660   11.6469   24.5427 C   0  0  0  0  0  0  0  0  0  0  0  0
   10.9460   15.8163   21.9356 C   0  0  0  0  0  0  0  0  0  0  0  0
    9.2494   12.9016   23.1066 C   0  0  0  0  0  0  0  0  0  0  0  0
    8.1601   12.8595   23.9769 C   0  0  0  0  0  0  0  0  0  0  0  0
    9.6923   14.1365   22.4975 C   0  0  0  0  0  0  0  0  0  0  0  0
   11.6384   13.9355   24.9118 C   0  0  0  0  0  0  0  0  0  0  0  0
   13.2889   15.0002   23.3154 C   0  0  0  0  0  0  0  0  0  0  0  0
   12.0288   14.1427   23.4471 C   0  0  0  0  0  0  0  0  0  0  0  0
    9.7799   15.9819   21.3532 N   0  0  0  0  0  0  0  0  0  0  0  0
    8.9823   14.9132   21.7107 N   0  0  0  0  0  0  0  0  0  0  0  0
   10.9353   14.6670   22.6662 N   0  0  0  0  0  0  0  0  0  0  0  0
    7.2614   14.2786   24.3897 Cl  0  0  0  0  0  0  0  0  0  0  0  0
   10.0912    9.6072   23.1314 H   0  0  0  0  0  0  0  0  0  0  0  0
    8.1537    9.5326   24.6787 H   0  0  0  0  0  0  0  0  0  0  0  0
   10.7969   11.7451   22.1268 H   0  0  0  0  0  0  0  0  0  0  0  0
    6.9191   11.5961   25.2224 H   0  0  0  0  0  0  0  0  0  0  0  0
   11.8006   16.4740   21.8651 H   0  0  0  0  0  0  0  0  0  0  0  0
   11.3860   14.8802   25.4051 H   0  0  0  0  0  0  0  0  0  0  0  0
   12.4637   13.4792   25.4688 H   0  0  0  0  0  0  0  0  0  0  0  0
   10.7693   13.2734   24.9942 H   0  0  0  0  0  0  0  0  0  0  0  0
   13.1199   16.0063   23.7146 H   0  0  0  0  0  0  0  0  0  0  0  0
   13.5785   15.0990   22.2638 H   0  0  0  0  0  0  0  0  0  0  0  0
   14.1372   14.5656   23.8549 H   0  0  0  0  0  0  0  0  0  0  0  0
   12.2644   13.1544   23.0316 H   0  0  0  0  0  0  0  0  0  0  0  0
  1  2  2  0  0  0  0
  1  3  1  0  0  0  0
  2  4  1  0  0  0  0
  3  6  2  0  0  0  0
  4  7  2  0  0  0  0
  5 12  2  0  0  0  0
  5 14  1  0  0  0  0
  6  7  1  0  0  0  0
  6  8  1  0  0  0  0
  7 15  1  0  0  0  0
  8 13  2  0  0  0  0
  8 14  1  0  0  0  0
  9 11  1  0  0  0  0
 10 11  1  0  0  0  0
 11 14  1  0  0  0  0
 12 13  1  0  0  0  0
  1 16  1  0  0  0  0
  2 17  1  0  0  0  0
  3 18  1  0  0  0  0
  4 19  1  0  0  0  0
  5 20  1  0  0  0  0
  9 21  1  0  0  0  0
  9 22  1  0  0  0  0
  9 23  1  0  0  0  0
 10 24  1  0  0  0  0
 10 25  1  0  0  0  0
 10 26  1  0  0  0  0
 11 27  1  0  0  0  0
M  END
> <Catalog ID>
Z1492980784

> <PlateID>
1337959-R-15

> <Well>
C02

> <MW (desalted)>
221.686

> <CLogP>
2.322

> <HBD>
0

> <TPSA>
30.710

> <RotBonds>
2

> <ROCS_ShapeQuery>
x0446_0A_x1080_0A_x0929_0A_x0812_0A_x0719_0A_x1140_0A_x0528_0A_x0310_0A

> <ROCS_TanimotoCombo>
0.322 

> <ROCS_ShapeTanimoto>
0.206 

> <ROCS_ColorTanimoto>
0.116 

> <ROCS_RefTversky>
0.189 

> <ROCS_RefColorTversky>
0.124 

> <ROCS_RefTverskyCombo>
0.313 

> <ROCS_FitTversky>
1.777 

> <ROCS_FitColorTversky>
0.639 

> <ROCS_FitTverskyCombo>
2.416 

> <ROCS_ColorScore>
-4.404

> <ROCS_Overlap>
2228.663

> <ROCS_Rank>
186                 

$$$$
untitled-dbase-4_16
  -OEChem-02082415003D

 21 22  0     0  0  0  0  0  0999 V2000
    7.7245   11.1949   23.8182 C   0  0  0  0  0  0  0  0  0  0  0  0
    8.7161   10.2869   23.5569 C   0  0  0  0  0  0  0  0  0  0  0  0
    8.4234   12.3815   24.0993 C   0  0  0  0  0  0  0  0  0  0  0  0
    8.1889   14.5202   22.1236 C   0  0  0  0  0  0  0  0  0  0  0  0
    7.4904   13.9870   25.9374 C   0  0  0  0  0  0  0  0  0  0  0  0
    6.3430   13.6550   25.0355 C   0  0  0  0  0  0  0  0  0  0  0  0
    7.7472   13.7302   24.4633 C   0  0  0  0  0  0  0  0  0  0  0  0
    8.0959   14.8974   23.5872 C   0  0  0  0  0  0  0  0  0  0  0  0
    9.7473   12.2217   24.0185 N   0  0  0  0  0  0  0  0  0  0  0  0
    7.5328   13.6502   21.5710 O   0  0  0  0  0  0  0  0  0  0  0  0
    9.9280   10.8877   23.6732 O   0  0  0  0  0  0  0  0  0  0  0  0
    9.1123   15.2870   21.4886 O   0  0  0  0  0  0  0  0  0  0  0  0
    6.6590   11.0197   23.8059 H   0  0  0  0  0  0  0  0  0  0  0  0
    8.7316    9.2407   23.2900 H   0  0  0  0  0  0  0  0  0  0  0  0
    7.5646   15.0039   26.3048 H   0  0  0  0  0  0  0  0  0  0  0  0
    7.7969   13.2378   26.6582 H   0  0  0  0  0  0  0  0  0  0  0  0
    5.8780   12.6827   25.1499 H   0  0  0  0  0  0  0  0  0  0  0  0
    5.6441   14.4486   24.7977 H   0  0  0  0  0  0  0  0  0  0  0  0
    7.3330   15.6858   23.6815 H   0  0  0  0  0  0  0  0  0  0  0  0
    9.0678   15.3205   23.8855 H   0  0  0  0  0  0  0  0  0  0  0  0
    9.1868   15.0574   20.5377 H   0  0  0  0  0  0  0  0  0  0  0  0
  1  2  2  0  0  0  0
  1  3  1  0  0  0  0
  2 11  1  0  0  0  0
  3  7  1  0  0  0  0
  3  9  2  0  0  0  0
  4  8  1  0  0  0  0
  4 10  2  0  0  0  0
  4 12  1  0  0  0  0
  5  6  1  0  0  0  0
  5  7  1  0  0  0  0
  6  7  1  0  0  0  0
  7  8  1  0  0  0  0
  9 11  1  0  0  0  0
  1 13  1  0  0  0  0
  2 14  1  0  0  0  0
  5 15  1  0  0  0  0
  5 16  1  0  0  0  0
  6 17  1  0  0  0  0
  6 18  1  0  0  0  0
  8 19  1  0  0  0  0
  8 20  1  0  0  0  0
 12 21  1  0  0  0  0
M  END
> <Catalog ID>
Z1416161563

> <PlateID>
1337959-R-01

> <Well>
A08

> <MW (desalted)>
167.162

> <CLogP>
0.086

> <HBD>
1

> <TPSA>
63.330

> <RotBonds>
3

> <ROCS_ShapeQuery>
x0446_0A_x1080_0A_x0929_0A_x0812_0A_x0719_0A_x1140_0A_x0528_0A_x0310_0A

> <ROCS_TanimotoCombo>
0.322 

> <ROCS_ShapeTanimoto>
0.174 

> <ROCS_ColorTanimoto>
0.148 

> <ROCS_RefTversky>
0.162 

> <ROCS_RefColorTversky>
0.153 

> <ROCS_RefTverskyCombo>
0.315 

> <ROCS_FitTversky>
1.707 

> <ROCS_FitColorTversky>
0.820 

> <ROCS_FitTverskyCombo>
2.527 

> <ROCS_ColorScore>
-5.429

> <ROCS_Overlap>
1912.247

> <ROCS_Rank>
187                 

$$$$
untitled-dbase-654_0
  -OEChem-02082415003D

 25 26  0     1  0  0  0  0  0999 V2000
    7.7109   11.9757   24.4486 C   0  0  0  0  0  0  0  0  0  0  0  0
    8.9007   11.4683   25.2659 C   0  0  0  0  0  0  0  0  0  0  0  0
    8.8022   12.3858   22.1610 C   0  0  0  0  0  0  0  0  0  0  0  0
   10.7860   11.5351   23.5251 C   0  0  0  0  0  0  0  0  0  0  0  0
    7.9575   11.4422   23.0388 C   0  0  1  0  0  0  0  0  0  0  0  0
    9.7436   10.6772   24.2675 C   0  0  2  0  0  0  0  0  0  0  0  0
   10.1713   12.7230   22.7690 C   0  0  0  0  0  0  0  0  0  0  0  0
    9.9790   15.0594   22.9340 C   0  0  0  0  0  0  0  0  0  0  0  0
    8.7266   10.2208   23.3110 N   0  0  0  0  0  0  0  0  0  0  0  0
   10.0202   13.8353   23.6506 O   0  0  0  0  0  0  0  0  0  0  0  0
    6.7855   11.5544   24.8605 H   0  0  0  0  0  0  0  0  0  0  0  0
    7.6178   13.0655   24.4832 H   0  0  0  0  0  0  0  0  0  0  0  0
    9.4549   12.2832   25.7418 H   0  0  0  0  0  0  0  0  0  0  0  0
    8.5347   10.8103   26.0638 H   0  0  0  0  0  0  0  0  0  0  0  0
    8.9634   11.8950   21.1921 H   0  0  0  0  0  0  0  0  0  0  0  0
    8.2367   13.3060   21.9708 H   0  0  0  0  0  0  0  0  0  0  0  0
   11.5389   11.8875   24.2401 H   0  0  0  0  0  0  0  0  0  0  0  0
   11.3015   10.8918   22.7999 H   0  0  0  0  0  0  0  0  0  0  0  0
    7.0165   11.2125   22.5283 H   0  0  0  0  0  0  0  0  0  0  0  0
   10.2431    9.8300   24.7490 H   0  0  0  0  0  0  0  0  0  0  0  0
   10.8513   13.0529   21.9756 H   0  0  0  0  0  0  0  0  0  0  0  0
    9.8630   15.8893   23.6354 H   0  0  0  0  0  0  0  0  0  0  0  0
    9.1425   15.0429   22.2309 H   0  0  0  0  0  0  0  0  0  0  0  0
   10.9141   15.1798   22.3820 H   0  0  0  0  0  0  0  0  0  0  0  0
    8.1193    9.5417   23.7720 H   0  0  0  0  0  0  0  0  0  0  0  0
  1  2  1  0  0  0  0
  1  5  1  0  0  0  0
  2  6  1  0  0  0  0
  3  5  1  0  0  0  0
  3  7  1  0  0  0  0
  4  6  1  0  0  0  0
  4  7  1  0  0  0  0
  5  9  1  6  0  0  0
  6  9  1  1  0  0  0
  7 10  1  1  0  0  0
  8 10  1  0  0  0  0
  1 11  1  0  0  0  0
  1 12  1  0  0  0  0
  2 13  1  0  0  0  0
  2 14  1  0  0  0  0
  3 15  1  0  0  0  0
  3 16  1  0  0  0  0
  4 17  1  0  0  0  0
  4 18  1  0  0  0  0
  5 19  1  0  0  0  0
  6 20  1  0  0  0  0
  7 21  1  0  0  0  0
  8 22  1  0  0  0  0
  8 23  1  0  0  0  0
  8 24  1  0  0  0  0
  9 25  1  0  0  0  0
M  END
> <Catalog ID>
Z3013892974

> <PlateID>
1337959-R-15

> <Well>
C06

> <MW (desalted)>
141.211

> <CLogP>
-0.122

> <HBD>
1

> <TPSA>
21.260

> <RotBonds>
1

> <ROCS_ShapeQuery>
x0446_0A_x1080_0A_x0929_0A_x0812_0A_x0719_0A_x1140_0A_x0528_0A_x0310_0A

> <ROCS_TanimotoCombo>
0.322 

> <ROCS_ShapeTanimoto>
0.162 

> <ROCS_ColorTanimoto>
0.160 

> <ROCS_RefTversky>
0.151 

> <ROCS_RefColorTversky>
0.177 

> <ROCS_RefTverskyCombo>
0.329 

> <ROCS_FitTversky>
1.729 

> <ROCS_FitColorTversky>
0.621 

> <ROCS_FitTverskyCombo>
2.350 

> <ROCS_ColorScore>
-6.342

> <ROCS_Overlap>
1782.093

> <ROCS_Rank>
188                 

$$$$
untitled-dbase-579_19
  -OEChem-02082415003D

 31 32  0     0  0  0  0  0  0999 V2000
    9.5146   11.8460   22.6597 C   0  0  0  0  0  0  0  0  0  0  0  0
    9.1229   10.6878   23.3311 C   0  0  0  0  0  0  0  0  0  0  0  0
    7.4933   11.9624   24.5789 C   0  0  0  0  0  0  0  0  0  0  0  0
    8.8958   13.0624   22.9480 C   0  0  0  0  0  0  0  0  0  0  0  0
    7.8851   13.1206   23.9076 C   0  0  0  0  0  0  0  0  0  0  0  0
    8.1123   10.7460   24.2907 C   0  0  0  0  0  0  0  0  0  0  0  0
    9.3250   14.2723   22.2277 C   0  0  0  0  0  0  0  0  0  0  0  0
   11.2774   15.3958   21.2273 C   0  0  0  0  0  0  0  0  0  0  0  0
   11.5075   14.3835   23.5132 C   0  0  0  0  0  0  0  0  0  0  0  0
   12.2397   16.4828   21.6815 C   0  0  0  0  0  0  0  0  0  0  0  0
   12.9863   14.2550   23.1749 C   0  0  0  0  0  0  0  0  0  0  0  0
    6.2457   14.2631   25.1970 C   0  0  0  0  0  0  0  0  0  0  0  0
   10.6619   14.6768   22.3456 N   0  0  0  0  0  0  0  0  0  0  0  0
    8.4616   14.8528   21.5705 O   0  0  0  0  0  0  0  0  0  0  0  0
    7.2674   14.2989   24.2029 O   0  0  0  0  0  0  0  0  0  0  0  0
   13.6911   15.8119   22.5509 S   0  0  0  0  0  0  0  0  0  0  0  0
    7.6293    9.3169   25.1188 Cl  0  0  0  0  0  0  0  0  0  0  0  0
   10.3038   11.7879   21.9144 H   0  0  0  0  0  0  0  0  0  0  0  0
    9.6146    9.7472   23.0959 H   0  0  0  0  0  0  0  0  0  0  0  0
    6.7046   12.0155   25.3258 H   0  0  0  0  0  0  0  0  0  0  0  0
   10.5068   15.8498   20.5855 H   0  0  0  0  0  0  0  0  0  0  0  0
   11.7908   14.6521   20.5922 H   0  0  0  0  0  0  0  0  0  0  0  0
   11.1212   13.4605   23.9837 H   0  0  0  0  0  0  0  0  0  0  0  0
   11.3811   15.1796   24.2676 H   0  0  0  0  0  0  0  0  0  0  0  0
   12.5994   17.0474   20.8079 H   0  0  0  0  0  0  0  0  0  0  0  0
   11.7313   17.2074   22.3375 H   0  0  0  0  0  0  0  0  0  0  0  0
   13.5616   13.9281   24.0537 H   0  0  0  0  0  0  0  0  0  0  0  0
   13.1232   13.4862   22.4016 H   0  0  0  0  0  0  0  0  0  0  0  0
    5.8363   15.2667   25.3360 H   0  0  0  0  0  0  0  0  0  0  0  0
    6.6638   13.8951   26.1374 H   0  0  0  0  0  0  0  0  0  0  0  0
    5.4509   13.5905   24.8659 H   0  0  0  0  0  0  0  0  0  0  0  0
  1  2  1  0  0  0  0
  1  4  2  0  0  0  0
  2  6  2  0  0  0  0
  3  5  2  0  0  0  0
  3  6  1  0  0  0  0
  4  5  1  0  0  0  0
  4  7  1  0  0  0  0
  5 15  1  0  0  0  0
  6 17  1  0  0  0  0
  7 13  1  0  0  0  0
  7 14  2  0  0  0  0
  8 10  1  0  0  0  0
  8 13  1  0  0  0  0
  9 11  1  0  0  0  0
  9 13  1  0  0  0  0
 10 16  1  0  0  0  0
 11 16  1  0  0  0  0
 12 15  1  0  0  0  0
  1 18  1  0  0  0  0
  2 19  1  0  0  0  0
  3 20  1  0  0  0  0
  8 21  1  0  0  0  0
  8 22  1  0  0  0  0
  9 23  1  0  0  0  0
  9 24  1  0  0  0  0
 10 25  1  0  0  0  0
 10 26  1  0  0  0  0
 11 27  1  0  0  0  0
 11 28  1  0  0  0  0
 12 29  1  0  0  0  0
 12 30  1  0  0  0  0
 12 31  1  0  0  0  0
M  END
> <Catalog ID>
Z899389184

> <PlateID>
1337959-R-13

> <Well>
E07

> <MW (desalted)>
271.763

> <CLogP>
2.482

> <HBD>
0

> <TPSA>
29.540

> <RotBonds>
2

> <ROCS_ShapeQuery>
x0446_0A_x1080_0A_x0929_0A_x0812_0A_x0719_0A_x1140_0A_x0528_0A_x0310_0A

> <ROCS_TanimotoCombo>
0.321 

> <ROCS_ShapeTanimoto>
0.215 

> <ROCS_ColorTanimoto>
0.106 

> <ROCS_RefTversky>
0.197 

> <ROCS_RefColorTversky>
0.111 

> <ROCS_RefTverskyCombo>
0.308 

> <ROCS_FitTversky>
1.774 

> <ROCS_FitColorTversky>
0.699 

> <ROCS_FitTverskyCombo>
2.473 

> <ROCS_ColorScore>
-3.958

> <ROCS_Overlap>
2319.801

> <ROCS_Rank>
189                 

$$$$
untitled-dbase-564_36
  -OEChem-02082415003D

 34 35  0     0  0  0  0  0  0999 V2000
   10.3937   17.6787   19.7699 C   0  0  0  0  0  0  0  0  0  0  0  0
    9.1080   17.7862   20.2883 C   0  0  0  0  0  0  0  0  0  0  0  0
    7.8476    9.9192   24.2890 C   0  0  0  0  0  0  0  0  0  0  0  0
    9.2330    9.7614   24.2508 C   0  0  0  0  0  0  0  0  0  0  0  0
   11.1629   16.5574   20.0602 C   0  0  0  0  0  0  0  0  0  0  0  0
    8.0883   12.2101   23.5605 C   0  0  0  0  0  0  0  0  0  0  0  0
    8.6417   16.7531   21.0853 C   0  0  0  0  0  0  0  0  0  0  0  0
    9.4737   12.0524   23.5223 C   0  0  0  0  0  0  0  0  0  0  0  0
    7.2753   11.1435   23.9438 C   0  0  0  0  0  0  0  0  0  0  0  0
   10.0460   10.8280   23.8675 C   0  0  0  0  0  0  0  0  0  0  0  0
   10.6047   15.5795   20.8676 C   0  0  0  0  0  0  0  0  0  0  0  0
   10.2995   13.1824   23.1186 C   0  0  0  0  0  0  0  0  0  0  0  0
    5.7940   11.3116   23.9848 C   0  0  0  0  0  0  0  0  0  0  0  0
   11.5267   10.6316   23.8354 C   0  0  0  0  0  0  0  0  0  0  0  0
   11.4067   14.3551   21.2019 C   0  0  0  0  0  0  0  0  0  0  0  0
    9.3594   15.6486   21.3893 N   0  0  0  0  0  0  0  0  0  0  0  0
   10.5836   13.3035   21.7544 N   0  0  0  0  0  0  0  0  0  0  0  0
   10.7371   13.9769   23.9680 O   0  0  0  0  0  0  0  0  0  0  0  0
   10.7954   18.4674   19.1409 H   0  0  0  0  0  0  0  0  0  0  0  0
    8.4905   18.6511   20.0752 H   0  0  0  0  0  0  0  0  0  0  0  0
    7.2219    9.0827   24.5889 H   0  0  0  0  0  0  0  0  0  0  0  0
    9.6691    8.8034   24.5216 H   0  0  0  0  0  0  0  0  0  0  0  0
   12.1674   16.4615   19.6621 H   0  0  0  0  0  0  0  0  0  0  0  0
    7.6390   13.1636   23.2920 H   0  0  0  0  0  0  0  0  0  0  0  0
    7.6455   16.7887   21.5138 H   0  0  0  0  0  0  0  0  0  0  0  0
    5.4763   11.6598   24.9753 H   0  0  0  0  0  0  0  0  0  0  0  0
    5.4544   12.0381   23.2353 H   0  0  0  0  0  0  0  0  0  0  0  0
    5.2796   10.3665   23.7668 H   0  0  0  0  0  0  0  0  0  0  0  0
   11.8409   10.2767   22.8472 H   0  0  0  0  0  0  0  0  0  0  0  0
   12.0550   11.5672   24.0555 H   0  0  0  0  0  0  0  0  0  0  0  0
   11.8454    9.8999   24.5879 H   0  0  0  0  0  0  0  0  0  0  0  0
   11.9013   13.9614   20.3072 H   0  0  0  0  0  0  0  0  0  0  0  0
   12.1900   14.5856   21.9317 H   0  0  0  0  0  0  0  0  0  0  0  0
   10.2527   12.5908   21.1123 H   0  0  0  0  0  0  0  0  0  0  0  0
  1  2  2  0  0  0  0
  1  5  1  0  0  0  0
  2  7  1  0  0  0  0
  3  4  1  0  0  0  0
  3  9  2  0  0  0  0
  4 10  2  0  0  0  0
  5 11  2  0  0  0  0
  6  8  2  0  0  0  0
  6  9  1  0  0  0  0
  7 16  2  0  0  0  0
  8 10  1  0  0  0  0
  8 12  1  0  0  0  0
  9 13  1  0  0  0  0
 10 14  1  0  0  0  0
 11 15  1  0  0  0  0
 11 16  1  0  0  0  0
 12 17  1  0  0  0  0
 12 18  2  0  0  0  0
 15 17  1  0  0  0  0
  1 19  1  0  0  0  0
  2 20  1  0  0  0  0
  3 21  1  0  0  0  0
  4 22  1  0  0  0  0
  5 23  1  0  0  0  0
  6 24  1  0  0  0  0
  7 25  1  0  0  0  0
 13 26  1  0  0  0  0
 13 27  1  0  0  0  0
 13 28  1  0  0  0  0
 14 29  1  0  0  0  0
 14 30  1  0  0  0  0
 14 31  1  0  0  0  0
 15 32  1  0  0  0  0
 15 33  1  0  0  0  0
 17 34  1  0  0  0  0
M  END
> <Catalog ID>
Z30166500

> <PlateID>
1337959-R-13

> <Well>
B10

> <MW (desalted)>
240.300

> <CLogP>
1.990

> <HBD>
1

> <TPSA>
41.990

> <RotBonds>
3

> <ROCS_ShapeQuery>
x0446_0A_x1080_0A_x0929_0A_x0812_0A_x0719_0A_x1140_0A_x0528_0A_x0310_0A

> <ROCS_TanimotoCombo>
0.321 

> <ROCS_ShapeTanimoto>
0.191 

> <ROCS_ColorTanimoto>
0.130 

> <ROCS_RefTversky>
0.179 

> <ROCS_RefColorTversky>
0.136 

> <ROCS_RefTverskyCombo>
0.316 

> <ROCS_FitTversky>
1.535 

> <ROCS_FitColorTversky>
0.733 

> <ROCS_FitTverskyCombo>
2.268 

> <ROCS_ColorScore>
-4.845

> <ROCS_Overlap>
2117.828

> <ROCS_Rank>
190                 

$$$$
untitled-dbase-63_0
  -OEChem-02082415003D

 20 21  0     0  0  0  0  0  0999 V2000
    9.6309   12.9125   23.5784 C   0  0  0  0  0  0  0  0  0  0  0  0
    7.3756   11.9120   23.5854 C   0  0  0  0  0  0  0  0  0  0  0  0
    9.0764   11.2525   25.3175 C   0  0  0  0  0  0  0  0  0  0  0  0
    7.8991   10.7948   22.6626 C   0  0  0  0  0  0  0  0  0  0  0  0
    9.5836   10.1411   24.3790 C   0  0  0  0  0  0  0  0  0  0  0  0
    8.5105   12.4223   24.4920 C   0  0  0  0  0  0  0  0  0  0  0  0
    9.3993   10.5839   22.9191 C   0  0  0  0  0  0  0  0  0  0  0  0
   10.0633   11.8720   22.7580 N   0  0  0  0  0  0  0  0  0  0  0  0
   10.0707   14.0549   23.5813 O   0  0  0  0  0  0  0  0  0  0  0  0
    6.9834   12.7340   22.9738 H   0  0  0  0  0  0  0  0  0  0  0  0
    6.5423   11.5365   24.1905 H   0  0  0  0  0  0  0  0  0  0  0  0
    8.3086   10.8521   25.9896 H   0  0  0  0  0  0  0  0  0  0  0  0
    9.9041   11.6016   25.9474 H   0  0  0  0  0  0  0  0  0  0  0  0
    7.3437    9.8673   22.8446 H   0  0  0  0  0  0  0  0  0  0  0  0
    7.7255   11.0665   21.6144 H   0  0  0  0  0  0  0  0  0  0  0  0
   10.6409    9.9345   24.5847 H   0  0  0  0  0  0  0  0  0  0  0  0
    9.0369    9.2103   24.5704 H   0  0  0  0  0  0  0  0  0  0  0  0
    8.1688   13.2367   25.1376 H   0  0  0  0  0  0  0  0  0  0  0  0
    9.8338    9.8649   22.2189 H   0  0  0  0  0  0  0  0  0  0  0  0
   10.8064   12.0061   22.0796 H   0  0  0  0  0  0  0  0  0  0  0  0
  1  6  1  0  0  0  0
  1  8  1  0  0  0  0
  1  9  2  0  0  0  0
  2  4  1  0  0  0  0
  2  6  1  0  0  0  0
  3  5  1  0  0  0  0
  3  6  1  0  0  0  0
  4  7  1  0  0  0  0
  5  7  1  0  0  0  0
  7  8  1  0  0  0  0
  2 10  1  0  0  0  0
  2 11  1  0  0  0  0
  3 12  1  0  0  0  0
  3 13  1  0  0  0  0
  4 14  1  0  0  0  0
  4 15  1  0  0  0  0
  5 16  1  0  0  0  0
  5 17  1  0  0  0  0
  6 18  1  0  0  0  0
  7 19  1  0  0  0  0
  8 20  1  0  0  0  0
M  END
> <Catalog ID>
Z926909656

> <PlateID>
1337959-R-02

> <Well>
B03

> <MW (desalted)>
125.168

> <CLogP>
-0.100

> <HBD>
1

> <TPSA>
29.100

> <RotBonds>
0

> <ROCS_ShapeQuery>
x0446_0A_x1080_0A_x0929_0A_x0812_0A_x0719_0A_x1140_0A_x0528_0A_x0310_0A

> <ROCS_TanimotoCombo>
0.321 

> <ROCS_ShapeTanimoto>
0.154 

> <ROCS_ColorTanimoto>
0.167 

> <ROCS_RefTversky>
0.145 

> <ROCS_RefColorTversky>
0.181 

> <ROCS_RefTverskyCombo>
0.326 

> <ROCS_FitTversky>
1.710 

> <ROCS_FitColorTversky>
0.681 

> <ROCS_FitTverskyCombo>
2.392 

> <ROCS_ColorScore>
-6.481

> <ROCS_Overlap>
1704.805

> <ROCS_Rank>
191                 

$$$$
untitled-dbase-406_24
  -OEChem-02082415003D

 29 30  0     0  0  0  0  0  0999 V2000
    6.2982   11.4788   25.0786 C   0  0  0  0  0  0  0  0  0  0  0  0
    7.5764   12.4063   23.2114 C   0  0  0  0  0  0  0  0  0  0  0  0
    8.7756   12.5441   22.5124 C   0  0  0  0  0  0  0  0  0  0  0  0
    8.6757   10.9713   24.8144 C   0  0  0  0  0  0  0  0  0  0  0  0
    7.5265   11.6199   24.3625 C   0  0  0  0  0  0  0  0  0  0  0  0
    9.9248   11.8955   22.9643 C   0  0  0  0  0  0  0  0  0  0  0  0
    9.8749   11.1091   24.1153 C   0  0  0  0  0  0  0  0  0  0  0  0
   12.7521   15.1288   20.8840 C   0  0  0  0  0  0  0  0  0  0  0  0
   11.8034   15.7149   23.0249 C   0  0  0  0  0  0  0  0  0  0  0  0
   12.3365   13.8641   21.0125 C   0  0  0  0  0  0  0  0  0  0  0  0
   12.4768   16.0914   21.9269 C   0  0  0  0  0  0  0  0  0  0  0  0
   11.3319   14.3050   23.1834 C   0  0  0  0  0  0  0  0  0  0  0  0
   12.9720   17.4886   21.7161 C   0  0  0  0  0  0  0  0  0  0  0  0
   11.2139   12.0459   22.2094 C   0  0  0  0  0  0  0  0  0  0  0  0
    5.3004   11.3642   25.6602 N   0  0  0  0  0  0  0  0  0  0  0  0
   11.6397   13.4380   22.1290 N   0  0  0  0  0  0  0  0  0  0  0  0
   10.7171   13.9978   24.2036 O   0  0  0  0  0  0  0  0  0  0  0  0
   10.9741   10.4820   24.5572 F   0  0  0  0  0  0  0  0  0  0  0  0
    6.6890   12.9180   22.8467 H   0  0  0  0  0  0  0  0  0  0  0  0
    8.8051   13.1588   21.6166 H   0  0  0  0  0  0  0  0  0  0  0  0
    8.6529   10.3549   25.7098 H   0  0  0  0  0  0  0  0  0  0  0  0
   13.2972   15.4443   20.0012 H   0  0  0  0  0  0  0  0  0  0  0  0
   11.5779   16.4074   23.8286 H   0  0  0  0  0  0  0  0  0  0  0  0
   12.5311   13.1242   20.2439 H   0  0  0  0  0  0  0  0  0  0  0  0
   12.2089   18.0738   21.2061 H   0  0  0  0  0  0  0  0  0  0  0  0
   13.8778   17.4688   21.1122 H   0  0  0  0  0  0  0  0  0  0  0  0
   13.1971   17.9459   22.6782 H   0  0  0  0  0  0  0  0  0  0  0  0
   12.0140   11.4760   22.6942 H   0  0  0  0  0  0  0  0  0  0  0  0
   11.1173   11.6658   21.1870 H   0  0  0  0  0  0  0  0  0  0  0  0
  1  5  1  0  0  0  0
  1 15  3  0  0  0  0
  2  3  1  0  0  0  0
  2  5  2  0  0  0  0
  3  6  2  0  0  0  0
  4  5  1  0  0  0  0
  4  7  2  0  0  0  0
  6  7  1  0  0  0  0
  6 14  1  0  0  0  0
  7 18  1  0  0  0  0
  8 10  2  0  0  0  0
  8 11  1  0  0  0  0
  9 11  2  0  0  0  0
  9 12  1  0  0  0  0
 10 16  1  0  0  0  0
 11 13  1  0  0  0  0
 12 16  1  0  0  0  0
 12 17  2  0  0  0  0
 14 16  1  0  0  0  0
  2 19  1  0  0  0  0
  3 20  1  0  0  0  0
  4 21  1  0  0  0  0
  8 22  1  0  0  0  0
  9 23  1  0  0  0  0
 10 24  1  0  0  0  0
 13 25  1  0  0  0  0
 13 26  1  0  0  0  0
 13 27  1  0  0  0  0
 14 28  1  0  0  0  0
 14 29  1  0  0  0  0
M  END
> <Catalog ID>
Z1065656684

> <PlateID>
1337959-R-09

> <Well>
F05

> <MW (desalted)>
242.248

> <CLogP>
1.757

> <HBD>
0

> <TPSA>
44.100

> <RotBonds>
2

> <ROCS_ShapeQuery>
x0446_0A_x1080_0A_x0929_0A_x0812_0A_x0719_0A_x1140_0A_x0528_0A_x0310_0A

> <ROCS_TanimotoCombo>
0.321 

> <ROCS_ShapeTanimoto>
0.205 

> <ROCS_ColorTanimoto>
0.116 

> <ROCS_RefTversky>
0.190 

> <ROCS_RefColorTversky>
0.120 

> <ROCS_RefTverskyCombo>
0.311 

> <ROCS_FitTversky>
1.621 

> <ROCS_FitColorTversky>
0.755 

> <ROCS_FitTverskyCombo>
2.376 

> <ROCS_ColorScore>
-4.273

> <ROCS_Overlap>
2245.845

> <ROCS_Rank>
192                 

$$$$
untitled-dbase-372_0
  -OEChem-02082415003D

 24 25  0     0  0  0  0  0  0999 V2000
    8.9329    9.9878   23.0434 C   0  0  0  0  0  0  0  0  0  0  0  0
    7.8655    9.8699   23.9336 C   0  0  0  0  0  0  0  0  0  0  0  0
    9.6471   11.1834   22.9652 C   0  0  0  0  0  0  0  0  0  0  0  0
    7.5123   10.9476   24.7456 C   0  0  0  0  0  0  0  0  0  0  0  0
    9.2938   12.2612   23.7772 C   0  0  0  0  0  0  0  0  0  0  0  0
    9.8136   14.5624   22.8070 C   0  0  0  0  0  0  0  0  0  0  0  0
    8.2264   12.1433   24.6674 C   0  0  0  0  0  0  0  0  0  0  0  0
   10.0586   13.4757   23.6642 C   0  0  0  0  0  0  0  0  0  0  0  0
   10.8243   15.4402   23.0968 C   0  0  0  0  0  0  0  0  0  0  0  0
    8.7754   14.7632   21.8413 C   0  0  0  0  0  0  0  0  0  0  0  0
   11.1982   16.7696   22.5950 C   0  0  0  0  0  0  0  0  0  0  0  0
   11.1387   13.6651   24.4273 N   0  0  0  0  0  0  0  0  0  0  0  0
    8.6280   15.7669   21.1136 O   0  0  0  0  0  0  0  0  0  0  0  0
   11.6218   14.9160   24.0624 O   0  0  0  0  0  0  0  0  0  0  0  0
    7.8981   13.7140   21.7614 O   0  0  0  0  0  0  0  0  0  0  0  0
    7.7443   13.4461   25.6982 Cl  0  0  0  0  0  0  0  0  0  0  0  0
    9.2084    9.1483   22.4120 H   0  0  0  0  0  0  0  0  0  0  0  0
    7.3090    8.9391   23.9935 H   0  0  0  0  0  0  0  0  0  0  0  0
   10.4774   11.2560   22.2663 H   0  0  0  0  0  0  0  0  0  0  0  0
    6.6777   10.8382   25.4336 H   0  0  0  0  0  0  0  0  0  0  0  0
   10.7140   17.5727   23.1790 H   0  0  0  0  0  0  0  0  0  0  0  0
   12.2895   16.9436   22.6376 H   0  0  0  0  0  0  0  0  0  0  0  0
   10.9135   16.9147   21.5361 H   0  0  0  0  0  0  0  0  0  0  0  0
    7.1833   13.8415   21.1018 H   0  0  0  0  0  0  0  0  0  0  0  0
  1  2  2  0  0  0  0
  1  3  1  0  0  0  0
  2  4  1  0  0  0  0
  3  5  2  0  0  0  0
  4  7  2  0  0  0  0
  5  7  1  0  0  0  0
  5  8  1  0  0  0  0
  6  8  1  0  0  0  0
  6  9  2  0  0  0  0
  6 10  1  0  0  0  0
  7 16  1  0  0  0  0
  8 12  2  0  0  0  0
  9 11  1  0  0  0  0
  9 14  1  0  0  0  0
 10 13  2  0  0  0  0
 10 15  1  0  0  0  0
 12 14  1  0  0  0  0
  1 17  1  0  0  0  0
  2 18  1  0  0  0  0
  3 19  1  0  0  0  0
  4 20  1  0  0  0  0
 11 21  1  0  0  0  0
 11 22  1  0  0  0  0
 11 23  1  0  0  0  0
 15 24  1  0  0  0  0
M  END
> <Catalog ID>
Z57254347

> <PlateID>
1337959-R-09

> <Well>
A06

> <MW (desalted)>
237.639

> <CLogP>
2.081

> <HBD>
1

> <TPSA>
63.330

> <RotBonds>
2

> <ROCS_ShapeQuery>
x0446_0A_x1080_0A_x0929_0A_x0812_0A_x0719_0A_x1140_0A_x0528_0A_x0310_0A

> <ROCS_TanimotoCombo>
0.321 

> <ROCS_ShapeTanimoto>
0.202 

> <ROCS_ColorTanimoto>
0.118 

> <ROCS_RefTversky>
0.187 

> <ROCS_RefColorTversky>
0.128 

> <ROCS_RefTverskyCombo>
0.315 

> <ROCS_FitTversky>
1.690 

> <ROCS_FitColorTversky>
0.605 

> <ROCS_FitTverskyCombo>
2.294 

> <ROCS_ColorScore>
-4.577

> <ROCS_Overlap>
2206.059

> <ROCS_Rank>
193                 

$$$$
untitled-dbase-537_1
  -OEChem-02082415003D

 29 30  0     1  0  0  0  0  0999 V2000
    6.0128   15.4784   21.8028 C   0  0  0  0  0  0  0  0  0  0  0  0
    5.3702   16.0543   22.8988 C   0  0  0  0  0  0  0  0  0  0  0  0
    7.1712   14.7245   21.9905 C   0  0  0  0  0  0  0  0  0  0  0  0
    5.8861   15.8762   24.1825 C   0  0  0  0  0  0  0  0  0  0  0  0
    7.6872   14.5464   23.2742 C   0  0  0  0  0  0  0  0  0  0  0  0
    7.0446   15.1223   24.3702 C   0  0  0  0  0  0  0  0  0  0  0  0
    8.9090   13.7436   23.4162 C   0  0  0  0  0  0  0  0  0  0  0  0
   10.5778   11.2657   22.5490 C   0  0  0  0  0  0  0  0  0  0  0  0
    7.8807   10.1814   23.7169 C   0  0  0  0  0  0  0  0  0  0  0  0
    9.2516   10.2102   24.3889 C   0  0  0  0  0  0  0  0  0  0  0  0
    7.4842   11.6493   23.6733 C   0  0  0  0  0  0  0  0  0  0  0  0
    9.8794   11.4930   23.8561 C   0  0  2  0  0  0  0  0  0  0  0  0
    8.7508   12.3762   23.5944 N   0  0  0  0  0  0  0  0  0  0  0  0
    9.9831   14.3372   23.3523 O   0  0  0  0  0  0  0  0  0  0  0  0
   10.0366   11.2737   21.4534 O   0  0  0  0  0  0  0  0  0  0  0  0
   11.9008   11.0454   22.7451 O   0  0  0  0  0  0  0  0  0  0  0  0
    7.7061   14.9140   26.1364 Br  0  0  0  0  0  0  0  0  0  0  0  0
    5.6110   15.6171   20.8036 H   0  0  0  0  0  0  0  0  0  0  0  0
    4.4681   16.6412   22.7524 H   0  0  0  0  0  0  0  0  0  0  0  0
    7.6618   14.2814   21.1277 H   0  0  0  0  0  0  0  0  0  0  0  0
    5.3711   16.3329   25.0241 H   0  0  0  0  0  0  0  0  0  0  0  0
    7.9621    9.7783   22.7009 H   0  0  0  0  0  0  0  0  0  0  0  0
    7.1617    9.5716   24.2714 H   0  0  0  0  0  0  0  0  0  0  0  0
    9.1289   10.2771   25.4765 H   0  0  0  0  0  0  0  0  0  0  0  0
    9.8307    9.3109   24.1579 H   0  0  0  0  0  0  0  0  0  0  0  0
    6.8442   11.8892   22.8192 H   0  0  0  0  0  0  0  0  0  0  0  0
    6.9781   11.9538   24.5962 H   0  0  0  0  0  0  0  0  0  0  0  0
   10.5836   11.9521   24.5556 H   0  0  0  0  0  0  0  0  0  0  0  0
   12.3759   10.8923   21.9006 H   0  0  0  0  0  0  0  0  0  0  0  0
  1  2  2  0  0  0  0
  1  3  1  0  0  0  0
  2  4  1  0  0  0  0
  3  5  2  0  0  0  0
  4  6  2  0  0  0  0
  5  6  1  0  0  0  0
  5  7  1  0  0  0  0
  6 17  1  0  0  0  0
  7 13  1  0  0  0  0
  7 14  2  0  0  0  0
  8 12  1  1  0  0  0
  8 15  2  0  0  0  0
  8 16  1  0  0  0  0
  9 10  1  0  0  0  0
  9 11  1  0  0  0  0
 10 12  1  0  0  0  0
 11 13  1  0  0  0  0
 12 13  1  0  0  0  0
  1 18  1  0  0  0  0
  2 19  1  0  0  0  0
  3 20  1  0  0  0  0
  4 21  1  0  0  0  0
  9 22  1  0  0  0  0
  9 23  1  0  0  0  0
 10 24  1  0  0  0  0
 10 25  1  0  0  0  0
 11 26  1  0  0  0  0
 11 27  1  0  0  0  0
 12 28  1  0  0  0  0
 16 29  1  0  0  0  0
M  END
> <Catalog ID>
Z98656087

> <PlateID>
1337959-R-12

> <Well>
F09

> <MW (desalted)>
298.133

> <CLogP>
2.102

> <HBD>
1

> <TPSA>
57.610

> <RotBonds>
2

> <ROCS_ShapeQuery>
x0446_0A_x1080_0A_x0929_0A_x0812_0A_x0719_0A_x1140_0A_x0528_0A_x0310_0A

> <ROCS_TanimotoCombo>
0.321 

> <ROCS_ShapeTanimoto>
0.201 

> <ROCS_ColorTanimoto>
0.120 

> <ROCS_RefTversky>
0.186 

> <ROCS_RefColorTversky>
0.132 

> <ROCS_RefTverskyCombo>
0.319 

> <ROCS_FitTversky>
1.651 

> <ROCS_FitColorTversky>
0.555 

> <ROCS_FitTverskyCombo>
2.206 

> <ROCS_ColorScore>
-4.726

> <ROCS_Overlap>
2198.924

> <ROCS_Rank>
194                 

$$$$
untitled-dbase-623_5
  -OEChem-02082415003D

 23 24  0     0  0  0  0  0  0999 V2000
   12.7870   15.0702   21.1657 C   0  0  0  0  0  0  0  0  0  0  0  0
    8.1249   12.9045   23.6999 C   0  0  0  0  0  0  0  0  0  0  0  0
    9.8321   11.3882   22.9103 C   0  0  0  0  0  0  0  0  0  0  0  0
   13.7097   16.0685   20.9978 C   0  0  0  0  0  0  0  0  0  0  0  0
    7.5943   11.8913   24.4983 C   0  0  0  0  0  0  0  0  0  0  0  0
    9.3015   10.3750   23.7087 C   0  0  0  0  0  0  0  0  0  0  0  0
    8.1826   10.6265   24.5027 C   0  0  0  0  0  0  0  0  0  0  0  0
    9.2438   12.6530   22.9059 C   0  0  0  0  0  0  0  0  0  0  0  0
   12.1240   15.4243   22.3535 C   0  0  0  0  0  0  0  0  0  0  0  0
   12.5991   16.5556   22.8818 N   0  0  0  0  0  0  0  0  0  0  0  0
   11.0557   14.6694   22.9511 N   0  0  0  0  0  0  0  0  0  0  0  0
    8.8433   14.8817   21.6416 O   0  0  0  0  0  0  0  0  0  0  0  0
   10.6005   13.3115   20.7778 O   0  0  0  0  0  0  0  0  0  0  0  0
   13.6074   16.9610   22.0156 O   0  0  0  0  0  0  0  0  0  0  0  0
    6.5199   12.1327   25.2608 F   0  0  0  0  0  0  0  0  0  0  0  0
    9.8664    9.1605   23.7131 F   0  0  0  0  0  0  0  0  0  0  0  0
    7.6731    9.6537   25.2695 F   0  0  0  0  0  0  0  0  0  0  0  0
    9.9080   13.9212   21.9064 S   0  0  0  0  0  0  0  0  0  0  0  0
   12.6232   14.2185   20.5222 H   0  0  0  0  0  0  0  0  0  0  0  0
    7.6585   13.8859   23.7043 H   0  0  0  0  0  0  0  0  0  0  0  0
   10.7039   11.1811   22.2957 H   0  0  0  0  0  0  0  0  0  0  0  0
   14.4656   16.2820   20.2571 H   0  0  0  0  0  0  0  0  0  0  0  0
   10.6804   15.0691   23.8214 H   0  0  0  0  0  0  0  0  0  0  0  0
  1  4  2  0  0  0  0
  1  9  1  0  0  0  0
  2  5  2  0  0  0  0
  2  8  1  0  0  0  0
  3  6  1  0  0  0  0
  3  8  2  0  0  0  0
  4 14  1  0  0  0  0
  5  7  1  0  0  0  0
  5 15  1  0  0  0  0
  6  7  2  0  0  0  0
  6 16  1  0  0  0  0
  7 17  1  0  0  0  0
  8 18  1  0  0  0  0
  9 10  2  0  0  0  0
  9 11  1  0  0  0  0
 10 14  1  0  0  0  0
 11 18  1  0  0  0  0
 12 18  2  0  0  0  0
 13 18  2  0  0  0  0
  1 19  1  0  0  0  0
  2 20  1  0  0  0  0
  3 21  1  0  0  0  0
  4 22  1  0  0  0  0
 11 23  1  0  0  0  0
M  END
> <Catalog ID>
Z1638935398

> <PlateID>
1337959-R-14

> <Well>
F11

> <MW (desalted)>
278.208

> <CLogP>
1.515

> <HBD>
1

> <TPSA>
72.200

> <RotBonds>
2

> <ROCS_ShapeQuery>
x0446_0A_x1080_0A_x0929_0A_x0812_0A_x0719_0A_x1140_0A_x0528_0A_x0310_0A

> <ROCS_TanimotoCombo>
0.321 

> <ROCS_ShapeTanimoto>
0.220 

> <ROCS_ColorTanimoto>
0.101 

> <ROCS_RefTversky>
0.201 

> <ROCS_RefColorTversky>
0.111 

> <ROCS_RefTverskyCombo>
0.312 

> <ROCS_FitTversky>
1.721 

> <ROCS_FitColorTversky>
0.524 

> <ROCS_FitTverskyCombo>
2.245 

> <ROCS_ColorScore>
-3.964

> <ROCS_Overlap>
2374.847

> <ROCS_Rank>
195                 

$$$$
untitled-dbase-357_31
  -OEChem-02082415003D

 36 37  0     0  0  0  0  0  0999 V2000
    6.9522   15.2022   20.9215 C   0  0  0  0  0  0  0  0  0  0  0  0
    7.6241   14.0671   21.3751 C   0  0  0  0  0  0  0  0  0  0  0  0
    6.5405   16.1783   21.8289 C   0  0  0  0  0  0  0  0  0  0  0  0
    7.4724   14.8841   23.6438 C   0  0  0  0  0  0  0  0  0  0  0  0
    7.8841   13.9080   22.7363 C   0  0  0  0  0  0  0  0  0  0  0  0
    6.8006   16.0192   23.1901 C   0  0  0  0  0  0  0  0  0  0  0  0
   10.0974   13.0104   23.2057 C   0  0  0  0  0  0  0  0  0  0  0  0
    8.4234   11.4014   22.3487 C   0  0  0  0  0  0  0  0  0  0  0  0
    8.2006   12.2980   24.6836 C   0  0  0  0  0  0  0  0  0  0  0  0
    9.0163   10.1391   22.9696 C   0  0  0  0  0  0  0  0  0  0  0  0
    8.7849   10.9712   25.1638 C   0  0  0  0  0  0  0  0  0  0  0  0
    8.6268   12.6506   23.2379 C   0  0  0  0  0  0  0  0  0  0  0  0
   12.9822   11.9225   22.3641 C   0  0  0  0  0  0  0  0  0  0  0  0
   12.1218   12.9809   21.7624 C   0  0  0  0  0  0  0  0  0  0  0  0
   10.7221   12.7176   22.0085 N   0  0  0  0  0  0  0  0  0  0  0  0
   10.6175   13.5156   24.1936 O   0  0  0  0  0  0  0  0  0  0  0  0
    8.4671    9.9144   24.2644 O   0  0  0  0  0  0  0  0  0  0  0  0
    6.2914   17.2232   24.3093 Cl  0  0  0  0  0  0  0  0  0  0  0  0
    6.7498   15.3256   19.8615 H   0  0  0  0  0  0  0  0  0  0  0  0
    7.9411   13.3116   20.6610 H   0  0  0  0  0  0  0  0  0  0  0  0
    6.0176   17.0577   21.4611 H   0  0  0  0  0  0  0  0  0  0  0  0
    7.6780   14.7556   24.7040 H   0  0  0  0  0  0  0  0  0  0  0  0
    8.8554   11.5550   21.3517 H   0  0  0  0  0  0  0  0  0  0  0  0
    7.3460   11.2378   22.2060 H   0  0  0  0  0  0  0  0  0  0  0  0
    7.1051   12.2166   24.7193 H   0  0  0  0  0  0  0  0  0  0  0  0
    8.4806   13.0958   25.3829 H   0  0  0  0  0  0  0  0  0  0  0  0
    8.7691    9.2721   22.3485 H   0  0  0  0  0  0  0  0  0  0  0  0
   10.1091   10.1939   23.0355 H   0  0  0  0  0  0  0  0  0  0  0  0
    9.8725   11.0340   25.2863 H   0  0  0  0  0  0  0  0  0  0  0  0
    8.3621   10.7150   26.1407 H   0  0  0  0  0  0  0  0  0  0  0  0
   12.7228   10.9465   21.9280 H   0  0  0  0  0  0  0  0  0  0  0  0
   14.0388   12.1473   22.1569 H   0  0  0  0  0  0  0  0  0  0  0  0
   12.8201   11.8927   23.4517 H   0  0  0  0  0  0  0  0  0  0  0  0
   12.3872   13.9531   22.2034 H   0  0  0  0  0  0  0  0  0  0  0  0
   12.2960   13.0110   20.6767 H   0  0  0  0  0  0  0  0  0  0  0  0
   10.1714   12.2972   21.2659 H   0  0  0  0  0  0  0  0  0  0  0  0
  1  2  1  0  0  0  0
  1  3  2  0  0  0  0
  2  5  2  0  0  0  0
  3  6  1  0  0  0  0
  4  5  1  0  0  0  0
  4  6  2  0  0  0  0
  5 12  1  0  0  0  0
  6 18  1  0  0  0  0
  7 12  1  0  0  0  0
  7 15  1  0  0  0  0
  7 16  2  0  0  0  0
  8 10  1  0  0  0  0
  8 12  1  0  0  0  0
  9 11  1  0  0  0  0
  9 12  1  0  0  0  0
 10 17  1  0  0  0  0
 11 17  1  0  0  0  0
 13 14  1  0  0  0  0
 14 15  1  0  0  0  0
  1 19  1  0  0  0  0
  2 20  1  0  0  0  0
  3 21  1  0  0  0  0
  4 22  1  0  0  0  0
  8 23  1  0  0  0  0
  8 24  1  0  0  0  0
  9 25  1  0  0  0  0
  9 26  1  0  0  0  0
 10 27  1  0  0  0  0
 10 28  1  0  0  0  0
 11 29  1  0  0  0  0
 11 30  1  0  0  0  0
 13 31  1  0  0  0  0
 13 32  1  0  0  0  0
 13 33  1  0  0  0  0
 14 34  1  0  0  0  0
 14 35  1  0  0  0  0
 15 36  1  0  0  0  0
M  END
> <Catalog ID>
Z803329894

> <PlateID>
1337959-R-08

> <Well>
G04

> <MW (desalted)>
267.751

> <CLogP>
1.554

> <HBD>
1

> <TPSA>
38.330

> <RotBonds>
3

> <ROCS_ShapeQuery>
x0446_0A_x1080_0A_x0929_0A_x0812_0A_x0719_0A_x1140_0A_x0528_0A_x0310_0A

> <ROCS_TanimotoCombo>
0.320 

> <ROCS_ShapeTanimoto>
0.205 

> <ROCS_ColorTanimoto>
0.115 

> <ROCS_RefTversky>
0.190 

> <ROCS_RefColorTversky>
0.123 

> <ROCS_RefTverskyCombo>
0.312 

> <ROCS_FitTversky>
1.645 

> <ROCS_FitColorTversky>
0.660 

> <ROCS_FitTverskyCombo>
2.306 

> <ROCS_ColorScore>
-4.364

> <ROCS_Overlap>
2240.525

> <ROCS_Rank>
196                 

$$$$
untitled-dbase-326_16
  -OEChem-02082415003D

 31 32  0     0  0  0  0  0  0999 V2000
    9.2628   10.2708   23.6315 C   0  0  0  0  0  0  0  0  0  0  0  0
    9.8161   11.3064   22.8786 C   0  0  0  0  0  0  0  0  0  0  0  0
    8.0830   12.7987   23.6574 C   0  0  0  0  0  0  0  0  0  0  0  0
    7.5296   11.7630   24.4103 C   0  0  0  0  0  0  0  0  0  0  0  0
    8.1195   10.4991   24.3974 C   0  0  0  0  0  0  0  0  0  0  0  0
    9.2262   12.5704   22.8916 C   0  0  0  0  0  0  0  0  0  0  0  0
   10.8109   15.9637   23.4671 C   0  0  0  0  0  0  0  0  0  0  0  0
   12.4543   14.2170   22.9176 C   0  0  0  0  0  0  0  0  0  0  0  0
   11.5112   16.8681   22.4637 C   0  0  0  0  0  0  0  0  0  0  0  0
   13.0882   15.1921   21.9366 C   0  0  0  0  0  0  0  0  0  0  0  0
    6.3070   12.0110   25.2278 C   0  0  0  0  0  0  0  0  0  0  0  0
   11.0086   14.5379   23.0822 N   0  0  0  0  0  0  0  0  0  0  0  0
   10.6849   13.2845   20.8579 O   0  0  0  0  0  0  0  0  0  0  0  0
    8.8811   14.8448   21.6700 O   0  0  0  0  0  0  0  0  0  0  0  0
   12.9000   16.5375   22.3828 O   0  0  0  0  0  0  0  0  0  0  0  0
    7.5956    9.4978   25.1180 F   0  0  0  0  0  0  0  0  0  0  0  0
    9.9266   13.8802   21.9373 S   0  0  0  0  0  0  0  0  0  0  0  0
    9.7216    9.2866   23.6224 H   0  0  0  0  0  0  0  0  0  0  0  0
   10.7067   11.1173   22.2854 H   0  0  0  0  0  0  0  0  0  0  0  0
    7.6216   13.7836   23.6680 H   0  0  0  0  0  0  0  0  0  0  0  0
   11.2229   16.1208   24.4755 H   0  0  0  0  0  0  0  0  0  0  0  0
    9.7375   16.1984   23.4872 H   0  0  0  0  0  0  0  0  0  0  0  0
   12.5672   13.1908   22.5408 H   0  0  0  0  0  0  0  0  0  0  0  0
   12.9485   14.2865   23.8985 H   0  0  0  0  0  0  0  0  0  0  0  0
   11.0613   16.7886   21.4668 H   0  0  0  0  0  0  0  0  0  0  0  0
   11.4344   17.9121   22.7828 H   0  0  0  0  0  0  0  0  0  0  0  0
   14.1653   15.0100   21.8705 H   0  0  0  0  0  0  0  0  0  0  0  0
   12.6675   15.0823   20.9300 H   0  0  0  0  0  0  0  0  0  0  0  0
    5.4052   11.8078   24.6375 H   0  0  0  0  0  0  0  0  0  0  0  0
    6.2891   11.3735   26.1212 H   0  0  0  0  0  0  0  0  0  0  0  0
    6.2665   13.0505   25.5785 H   0  0  0  0  0  0  0  0  0  0  0  0
  1  2  1  0  0  0  0
  1  5  2  0  0  0  0
  2  6  2  0  0  0  0
  3  4  2  0  0  0  0
  3  6  1  0  0  0  0
  4  5  1  0  0  0  0
  4 11  1  0  0  0  0
  5 16  1  0  0  0  0
  6 17  1  0  0  0  0
  7  9  1  0  0  0  0
  7 12  1  0  0  0  0
  8 10  1  0  0  0  0
  8 12  1  0  0  0  0
  9 15  1  0  0  0  0
 10 15  1  0  0  0  0
 12 17  1  0  0  0  0
 13 17  2  0  0  0  0
 14 17  2  0  0  0  0
  1 18  1  0  0  0  0
  2 19  1  0  0  0  0
  3 20  1  0  0  0  0
  7 21  1  0  0  0  0
  7 22  1  0  0  0  0
  8 23  1  0  0  0  0
  8 24  1  0  0  0  0
  9 25  1  0  0  0  0
  9 26  1  0  0  0  0
 10 27  1  0  0  0  0
 10 28  1  0  0  0  0
 11 29  1  0  0  0  0
 11 30  1  0  0  0  0
 11 31  1  0  0  0  0
M  END
> <Catalog ID>
Z57901832

> <PlateID>
1337959-R-07

> <Well>
H08

> <MW (desalted)>
259.297

> <CLogP>
1.925

> <HBD>
0

> <TPSA>
46.610

> <RotBonds>
1

> <ROCS_ShapeQuery>
x0446_0A_x1080_0A_x0929_0A_x0812_0A_x0719_0A_x1140_0A_x0528_0A_x0310_0A

> <ROCS_TanimotoCombo>
0.320 

> <ROCS_ShapeTanimoto>
0.211 

> <ROCS_ColorTanimoto>
0.109 

> <ROCS_RefTversky>
0.194 

> <ROCS_RefColorTversky>
0.117 

> <ROCS_RefTverskyCombo>
0.311 

> <ROCS_FitTversky>
1.743 

> <ROCS_FitColorTversky>
0.628 

> <ROCS_FitTverskyCombo>
2.370 

> <ROCS_ColorScore>
-4.150

> <ROCS_Overlap>
2287.844

> <ROCS_Rank>
197                 

$$$$
untitled-dbase-606_5
  -OEChem-02082415003D

 34 35  0     0  0  0  0  0  0999 V2000
    7.4417   13.3683   24.1172 C   0  0  0  0  0  0  0  0  0  0  0  0
   14.2616   11.9016   23.3940 C   0  0  0  0  0  0  0  0  0  0  0  0
   13.8462   11.4374   22.1460 C   0  0  0  0  0  0  0  0  0  0  0  0
   13.4857   11.6496   24.5255 C   0  0  0  0  0  0  0  0  0  0  0  0
    8.0578   12.0942   23.9779 C   0  0  0  0  0  0  0  0  0  0  0  0
   12.6549   10.7214   22.0293 C   0  0  0  0  0  0  0  0  0  0  0  0
   12.2943   10.9336   24.4088 C   0  0  0  0  0  0  0  0  0  0  0  0
   11.8789   10.4694   23.1608 C   0  0  0  0  0  0  0  0  0  0  0  0
    7.5763   10.8322   24.3744 C   0  0  0  0  0  0  0  0  0  0  0  0
    9.2813   11.8325   23.4115 C   0  0  0  0  0  0  0  0  0  0  0  0
   12.2328   10.2351   20.6813 C   0  0  0  0  0  0  0  0  0  0  0  0
   11.4820   10.6770   25.6360 C   0  0  0  0  0  0  0  0  0  0  0  0
    6.2993   10.5160   25.0397 C   0  0  0  0  0  0  0  0  0  0  0  0
   10.6015    9.7016   23.0356 C   0  0  0  0  0  0  0  0  0  0  0  0
    6.9389   14.4081   24.2310 N   0  0  0  0  0  0  0  0  0  0  0  0
    8.4247    9.8422   24.0843 N   0  0  0  0  0  0  0  0  0  0  0  0
    9.4516   10.4822   23.4994 N   0  0  0  0  0  0  0  0  0  0  0  0
   10.2190   12.6263   22.8509 N   0  0  0  0  0  0  0  0  0  0  0  0
   15.1890   12.4599   23.4847 H   0  0  0  0  0  0  0  0  0  0  0  0
   14.4584   11.6387   21.2707 H   0  0  0  0  0  0  0  0  0  0  0  0
   13.8185   12.0151   25.4933 H   0  0  0  0  0  0  0  0  0  0  0  0
   12.6379    9.2339   20.4951 H   0  0  0  0  0  0  0  0  0  0  0  0
   11.1398   10.1910   20.6006 H   0  0  0  0  0  0  0  0  0  0  0  0
   12.5848   10.9079   19.8897 H   0  0  0  0  0  0  0  0  0  0  0  0
   10.7633   11.4896   25.7921 H   0  0  0  0  0  0  0  0  0  0  0  0
   10.9302    9.7325   25.5554 H   0  0  0  0  0  0  0  0  0  0  0  0
   12.1207   10.5991   26.5245 H   0  0  0  0  0  0  0  0  0  0  0  0
    5.5045   10.3134   24.3022 H   0  0  0  0  0  0  0  0  0  0  0  0
    6.3799    9.6309   25.6948 H   0  0  0  0  0  0  0  0  0  0  0  0
    5.9521   11.3410   25.6863 H   0  0  0  0  0  0  0  0  0  0  0  0
   10.4080    9.4039   21.9944 H   0  0  0  0  0  0  0  0  0  0  0  0
   10.6308    8.7685   23.6175 H   0  0  0  0  0  0  0  0  0  0  0  0
   10.0805   13.6410   22.7362 H   0  0  0  0  0  0  0  0  0  0  0  0
   11.0767   12.2445   22.4257 H   0  0  0  0  0  0  0  0  0  0  0  0
  1  5  1  0  0  0  0
  1 15  3  0  0  0  0
  2  3  2  0  0  0  0
  2  4  1  0  0  0  0
  3  6  1  0  0  0  0
  4  7  2  0  0  0  0
  5  9  1  0  0  0  0
  5 10  2  0  0  0  0
  6  8  2  0  0  0  0
  6 11  1  0  0  0  0
  7  8  1  0  0  0  0
  7 12  1  0  0  0  0
  8 14  1  0  0  0  0
  9 13  1  0  0  0  0
  9 16  2  0  0  0  0
 10 17  1  0  0  0  0
 10 18  1  0  0  0  0
 14 17  1  0  0  0  0
 16 17  1  0  0  0  0
  2 19  1  0  0  0  0
  3 20  1  0  0  0  0
  4 21  1  0  0  0  0
 11 22  1  0  0  0  0
 11 23  1  0  0  0  0
 11 24  1  0  0  0  0
 12 25  1  0  0  0  0
 12 26  1  0  0  0  0
 12 27  1  0  0  0  0
 13 28  1  0  0  0  0
 13 29  1  0  0  0  0
 13 30  1  0  0  0  0
 14 31  1  0  0  0  0
 14 32  1  0  0  0  0
 18 33  1  0  0  0  0
 18 34  1  0  0  0  0
M  END
> <Catalog ID>
Z1419631768

> <PlateID>
1337959-R-14

> <Well>
B05

> <MW (desalted)>
240.304

> <CLogP>
2.597

> <HBD>
1

> <TPSA>
67.630

> <RotBonds>
2

> <ROCS_ShapeQuery>
x0446_0A_x1080_0A_x0929_0A_x0812_0A_x0719_0A_x1140_0A_x0528_0A_x0310_0A

> <ROCS_TanimotoCombo>
0.320 

> <ROCS_ShapeTanimoto>
0.199 

> <ROCS_ColorTanimoto>
0.121 

> <ROCS_RefTversky>
0.185 

> <ROCS_RefColorTversky>
0.131 

> <ROCS_RefTverskyCombo>
0.316 

> <ROCS_FitTversky>
1.575 

> <ROCS_FitColorTversky>
0.616 

> <ROCS_FitTverskyCombo>
2.192 

> <ROCS_ColorScore>
-4.660

> <ROCS_Overlap>
2188.924

> <ROCS_Rank>
198                 

$$$$
untitled-dbase-12_2
  -OEChem-02082415003D

 21 22  0     0  0  0  0  0  0999 V2000
    8.0226   12.0739   24.2754 C   0  0  0  0  0  0  0  0  0  0  0  0
    8.8898   13.1411   24.0418 C   0  0  0  0  0  0  0  0  0  0  0  0
    8.3860   10.7830   23.8918 C   0  0  0  0  0  0  0  0  0  0  0  0
   10.4839   11.6265   23.0407 C   0  0  0  0  0  0  0  0  0  0  0  0
   12.8612   15.0863   23.3882 C   0  0  0  0  0  0  0  0  0  0  0  0
   10.1205   12.9174   23.4244 C   0  0  0  0  0  0  0  0  0  0  0  0
    9.6166   10.5593   23.2744 C   0  0  0  0  0  0  0  0  0  0  0  0
   11.0176   14.0209   23.1827 C   0  0  0  0  0  0  0  0  0  0  0  0
   10.9693   15.1970   22.4764 C   0  0  0  0  0  0  0  0  0  0  0  0
    9.8765   15.6937   21.6977 C   0  0  0  0  0  0  0  0  0  0  0  0
   12.1535   15.8755   22.6120 N   0  0  0  0  0  0  0  0  0  0  0  0
    8.7729   15.1331   21.5299 O   0  0  0  0  0  0  0  0  0  0  0  0
   12.2402   13.9393   23.7778 O   0  0  0  0  0  0  0  0  0  0  0  0
   10.1336   16.9046   21.1096 O   0  0  0  0  0  0  0  0  0  0  0  0
    9.9657    9.3196   22.9063 F   0  0  0  0  0  0  0  0  0  0  0  0
    7.0640   12.2475   24.7558 H   0  0  0  0  0  0  0  0  0  0  0  0
    8.5922   14.1415   24.3470 H   0  0  0  0  0  0  0  0  0  0  0  0
    7.7112    9.9521   24.0734 H   0  0  0  0  0  0  0  0  0  0  0  0
   11.4390   11.4358   22.5577 H   0  0  0  0  0  0  0  0  0  0  0  0
   13.8672   15.2370   23.7510 H   0  0  0  0  0  0  0  0  0  0  0  0
    9.3899   17.2543   20.5740 H   0  0  0  0  0  0  0  0  0  0  0  0
  1  2  1  0  0  0  0
  1  3  2  0  0  0  0
  2  6  2  0  0  0  0
  3  7  1  0  0  0  0
  4  6  1  0  0  0  0
  4  7  2  0  0  0  0
  5 11  2  0  0  0  0
  5 13  1  0  0  0  0
  6  8  1  0  0  0  0
  7 15  1  0  0  0  0
  8  9  2  0  0  0  0
  8 13  1  0  0  0  0
  9 10  1  0  0  0  0
  9 11  1  0  0  0  0
 10 12  2  0  0  0  0
 10 14  1  0  0  0  0
  1 16  1  0  0  0  0
  2 17  1  0  0  0  0
  3 18  1  0  0  0  0
  4 19  1  0  0  0  0
  5 20  1  0  0  0  0
 14 21  1  0  0  0  0
M  END
> <Catalog ID>
Z838909206

> <PlateID>
1337959-R-01

> <Well>
B09

> <MW (desalted)>
207.158

> <CLogP>
1.625

> <HBD>
1

> <TPSA>
63.330

> <RotBonds>
2

> <ROCS_ShapeQuery>
x0446_0A_x1080_0A_x0929_0A_x0812_0A_x0719_0A_x1140_0A_x0528_0A_x0310_0A

> <ROCS_TanimotoCombo>
0.320 

> <ROCS_ShapeTanimoto>
0.203 

> <ROCS_ColorTanimoto>
0.116 

> <ROCS_RefTversky>
0.187 

> <ROCS_RefColorTversky>
0.126 

> <ROCS_RefTverskyCombo>
0.314 

> <ROCS_FitTversky>
1.731 

> <ROCS_FitColorTversky>
0.595 

> <ROCS_FitTverskyCombo>
2.326 

> <ROCS_ColorScore>
-4.503

> <ROCS_Overlap>
2210.232

> <ROCS_Rank>
199                 

$$$$
untitled-dbase-516_0
  -OEChem-02082415003D

 32 33  0     0  0  0  0  0  0999 V2000
    6.2705   10.9507   24.7041 C   0  0  0  0  0  0  0  0  0  0  0  0
    7.5529   13.4420   24.2170 C   0  0  0  0  0  0  0  0  0  0  0  0
    9.5871   10.5479   23.6060 C   0  0  0  0  0  0  0  0  0  0  0  0
    5.5959   12.1623   24.9008 C   0  0  0  0  0  0  0  0  0  0  0  0
    6.2276   13.3847   24.6608 C   0  0  0  0  0  0  0  0  0  0  0  0
    7.6024   10.9896   24.2582 C   0  0  0  0  0  0  0  0  0  0  0  0
    8.2050   12.2232   24.0279 C   0  0  0  0  0  0  0  0  0  0  0  0
    4.1787   12.1189   25.3760 C   0  0  0  0  0  0  0  0  0  0  0  0
    5.4961   14.6715   24.8759 C   0  0  0  0  0  0  0  0  0  0  0  0
   10.7150   12.1478   20.5649 C   0  0  0  0  0  0  0  0  0  0  0  0
    9.4798   14.2221   21.0453 C   0  0  0  0  0  0  0  0  0  0  0  0
    8.4761    9.9608   23.9910 N   0  0  0  0  0  0  0  0  0  0  0  0
    9.4737   11.9103   23.6117 N   0  0  0  0  0  0  0  0  0  0  0  0
   10.5694   13.3108   21.4761 N   0  0  0  0  0  0  0  0  0  0  0  0
   10.4097   14.2290   23.9092 O   0  0  0  0  0  0  0  0  0  0  0  0
   11.9549   12.3016   23.4378 O   0  0  0  0  0  0  0  0  0  0  0  0
   10.6727   12.9759   23.1861 S   0  0  0  0  0  0  0  0  0  0  0  0
    5.7799   10.0000   24.8900 H   0  0  0  0  0  0  0  0  0  0  0  0
    8.0492   14.3882   24.0294 H   0  0  0  0  0  0  0  0  0  0  0  0
   10.4970   10.0411   23.3148 H   0  0  0  0  0  0  0  0  0  0  0  0
    4.1466   12.1313   26.4709 H   0  0  0  0  0  0  0  0  0  0  0  0
    3.6095   12.9763   24.9983 H   0  0  0  0  0  0  0  0  0  0  0  0
    3.6708   11.2147   25.0199 H   0  0  0  0  0  0  0  0  0  0  0  0
    4.9858   14.9742   23.9551 H   0  0  0  0  0  0  0  0  0  0  0  0
    4.7515   14.5729   25.6743 H   0  0  0  0  0  0  0  0  0  0  0  0
    6.1842   15.4707   25.1755 H   0  0  0  0  0  0  0  0  0  0  0  0
   11.5309   11.5019   20.9214 H   0  0  0  0  0  0  0  0  0  0  0  0
    9.7755   11.5759   20.5476 H   0  0  0  0  0  0  0  0  0  0  0  0
   10.9461   12.5040   19.5501 H   0  0  0  0  0  0  0  0  0  0  0  0
    9.4083   15.0663   21.7469 H   0  0  0  0  0  0  0  0  0  0  0  0
    9.6969   14.6018   20.0360 H   0  0  0  0  0  0  0  0  0  0  0  0
    8.5263   13.6736   21.0335 H   0  0  0  0  0  0  0  0  0  0  0  0
  1  4  1  0  0  0  0
  1  6  2  0  0  0  0
  2  5  1  0  0  0  0
  2  7  2  0  0  0  0
  3 12  2  0  0  0  0
  3 13  1  0  0  0  0
  4  5  2  0  0  0  0
  4  8  1  0  0  0  0
  5  9  1  0  0  0  0
  6  7  1  0  0  0  0
  6 12  1  0  0  0  0
  7 13  1  0  0  0  0
 10 14  1  0  0  0  0
 11 14  1  0  0  0  0
 13 17  1  0  0  0  0
 14 17  1  0  0  0  0
 15 17  2  0  0  0  0
 16 17  2  0  0  0  0
  1 18  1  0  0  0  0
  2 19  1  0  0  0  0
  3 20  1  0  0  0  0
  8 21  1  0  0  0  0
  8 22  1  0  0  0  0
  8 23  1  0  0  0  0
  9 24  1  0  0  0  0
  9 25  1  0  0  0  0
  9 26  1  0  0  0  0
 10 27  1  0  0  0  0
 10 28  1  0  0  0  0
 10 29  1  0  0  0  0
 11 30  1  0  0  0  0
 11 31  1  0  0  0  0
 11 32  1  0  0  0  0
M  END
> <Catalog ID>
Z274555680

> <PlateID>
1337959-R-12

> <Well>
B10

> <MW (desalted)>
253.321

> <CLogP>
1.666

> <HBD>
0

> <TPSA>
55.200

> <RotBonds>
0

> <ROCS_ShapeQuery>
x0446_0A_x1080_0A_x0929_0A_x0812_0A_x0719_0A_x1140_0A_x0528_0A_x0310_0A

> <ROCS_TanimotoCombo>
0.320 

> <ROCS_ShapeTanimoto>
0.219 

> <ROCS_ColorTanimoto>
0.101 

> <ROCS_RefTversky>
0.200 

> <ROCS_RefColorTversky>
0.106 

> <ROCS_RefTverskyCombo>
0.306 

> <ROCS_FitTversky>
1.776 

> <ROCS_FitColorTversky>
0.664 

> <ROCS_FitTverskyCombo>
2.440 

> <ROCS_ColorScore>
-3.773

> <ROCS_Overlap>
2358.186

> <ROCS_Rank>
200                 

$$$$
untitled-dbase-222_0
  -OEChem-02082415003D

 25 26  0     1  0  0  0  0  0999 V2000
    8.8573   11.5175   25.2619 C   0  0  0  0  0  0  0  0  0  0  0  0
    7.6962   12.0155   24.4005 C   0  0  0  0  0  0  0  0  0  0  0  0
   10.7892   11.5034   23.5623 C   0  0  0  0  0  0  0  0  0  0  0  0
    8.8530   12.3391   22.1240 C   0  0  0  0  0  0  0  0  0  0  0  0
    9.7149   10.6885   24.3076 C   0  0  2  0  0  0  0  0  0  0  0  0
    7.9731   11.4394   23.0131 C   0  0  1  0  0  0  0  0  0  0  0  0
   10.2158   12.6909   22.7581 C   0  0  0  0  0  0  0  0  0  0  0  0
   11.2131   13.1510   21.6918 C   0  0  0  0  0  0  0  0  0  0  0  0
    8.7353   10.2164   23.3151 N   0  0  0  0  0  0  0  0  0  0  0  0
   10.0438   13.7909   23.6589 O   0  0  0  0  0  0  0  0  0  0  0  0
    9.4091   12.3362   25.7335 H   0  0  0  0  0  0  0  0  0  0  0  0
    8.4612   10.8841   26.0652 H   0  0  0  0  0  0  0  0  0  0  0  0
    6.7562   11.6145   24.7993 H   0  0  0  0  0  0  0  0  0  0  0  0
    7.6136   13.1066   24.4020 H   0  0  0  0  0  0  0  0  0  0  0  0
   11.5233   11.8686   24.2918 H   0  0  0  0  0  0  0  0  0  0  0  0
   11.3223   10.8232   22.8842 H   0  0  0  0  0  0  0  0  0  0  0  0
    9.0158   11.8187   21.1705 H   0  0  0  0  0  0  0  0  0  0  0  0
    8.2974   13.2570   21.8939 H   0  0  0  0  0  0  0  0  0  0  0  0
   10.1839    9.8465   24.8262 H   0  0  0  0  0  0  0  0  0  0  0  0
    7.0412   11.2016   22.4902 H   0  0  0  0  0  0  0  0  0  0  0  0
   10.7942   13.9864   21.1356 H   0  0  0  0  0  0  0  0  0  0  0  0
   11.4205   12.3315   21.0074 H   0  0  0  0  0  0  0  0  0  0  0  0
   12.1391   13.4645   22.1683 H   0  0  0  0  0  0  0  0  0  0  0  0
    9.2015    9.8620   22.4813 H   0  0  0  0  0  0  0  0  0  0  0  0
   10.9222   13.9881   24.0140 H   0  0  0  0  0  0  0  0  0  0  0  0
  1  2  1  0  0  0  0
  1  5  1  0  0  0  0
  2  6  1  0  0  0  0
  3  5  1  0  0  0  0
  3  7  1  0  0  0  0
  4  6  1  0  0  0  0
  4  7  1  0  0  0  0
  5  9  1  0  0  0  0
  6  9  1  0  0  0  0
  7  8  1  0  0  0  0
  7 10  1  0  0  0  0
  1 11  1  0  0  0  0
  1 12  1  0  0  0  0
  2 13  1  0  0  0  0
  2 14  1  0  0  0  0
  3 15  1  0  0  0  0
  3 16  1  0  0  0  0
  4 17  1  0  0  0  0
  4 18  1  0  0  0  0
  5 19  1  0  0  0  0
  6 20  1  0  0  0  0
  8 21  1  0  0  0  0
  8 22  1  0  0  0  0
  8 23  1  0  0  0  0
  9 24  1  0  0  0  0
 10 25  1  0  0  0  0
M  END
> <Catalog ID>
Z1346385512

> <PlateID>
1337959-R-05

> <Well>
D10

> <MW (desalted)>
141.211

> <CLogP>
-0.319

> <HBD>
2

> <TPSA>
32.260

> <RotBonds>
0

> <ROCS_ShapeQuery>
x0446_0A_x1080_0A_x0929_0A_x0812_0A_x0719_0A_x1140_0A_x0528_0A_x0310_0A

> <ROCS_TanimotoCombo>
0.319 

> <ROCS_ShapeTanimoto>
0.163 

> <ROCS_ColorTanimoto>
0.157 

> <ROCS_RefTversky>
0.152 

> <ROCS_RefColorTversky>
0.178 

> <ROCS_RefTverskyCombo>
0.330 

> <ROCS_FitTversky>
1.739 

> <ROCS_FitColorTversky>
0.570 

> <ROCS_FitTverskyCombo>
2.309 

> <ROCS_ColorScore>
-6.359

> <ROCS_Overlap>
1795.692

> <ROCS_Rank>
201                 

$$$$
untitled-dbase-543_19
  -OEChem-02082415003D

 32 33  0     0  0  0  0  0  0999 V2000
    8.7013   11.7151   22.8693 C   0  0  0  0  0  0  0  0  0  0  0  0
    8.9894   10.3519   23.0551 C   0  0  0  0  0  0  0  0  0  0  0  0
    8.1150   12.0879   24.0497 C   0  0  0  0  0  0  0  0  0  0  0  0
   13.1047   14.9543   22.1892 C   0  0  0  0  0  0  0  0  0  0  0  0
   12.3349   15.6977   21.0955 C   0  0  0  0  0  0  0  0  0  0  0  0
   12.0746   14.5992   23.2600 C   0  0  0  0  0  0  0  0  0  0  0  0
   10.8823   15.7496   21.5657 C   0  0  0  0  0  0  0  0  0  0  0  0
   10.7370   14.5703   22.5245 C   0  0  0  0  0  0  0  0  0  0  0  0
    9.6279    9.4199   22.1105 C   0  0  0  0  0  0  0  0  0  0  0  0
    7.5661   13.3500   24.5630 C   0  0  0  0  0  0  0  0  0  0  0  0
    8.6107    9.9129   24.2587 N   0  0  0  0  0  0  0  0  0  0  0  0
   10.5758   13.3185   21.7882 N   0  0  0  0  0  0  0  0  0  0  0  0
    9.0796   11.8511   20.2908 O   0  0  0  0  0  0  0  0  0  0  0  0
    8.0699   13.8177   21.4896 O   0  0  0  0  0  0  0  0  0  0  0  0
    8.0552   11.0210   24.8871 O   0  0  0  0  0  0  0  0  0  0  0  0
    9.0176   12.7205   21.4502 S   0  0  0  0  0  0  0  0  0  0  0  0
   13.6001   14.0589   21.8017 H   0  0  0  0  0  0  0  0  0  0  0  0
   13.8800   15.6056   22.6080 H   0  0  0  0  0  0  0  0  0  0  0  0
   12.7350   16.7117   20.9832 H   0  0  0  0  0  0  0  0  0  0  0  0
   12.4208   15.2001   20.1248 H   0  0  0  0  0  0  0  0  0  0  0  0
   12.3106   13.6135   23.6926 H   0  0  0  0  0  0  0  0  0  0  0  0
   12.0764   15.3200   24.0903 H   0  0  0  0  0  0  0  0  0  0  0  0
   10.6377   16.7079   22.0460 H   0  0  0  0  0  0  0  0  0  0  0  0
   10.2050   15.6432   20.7030 H   0  0  0  0  0  0  0  0  0  0  0  0
    9.9058   14.7187   23.2114 H   0  0  0  0  0  0  0  0  0  0  0  0
   10.7245    9.4132   22.2337 H   0  0  0  0  0  0  0  0  0  0  0  0
    9.2723    8.3825   22.2432 H   0  0  0  0  0  0  0  0  0  0  0  0
    9.4133    9.6801   21.0584 H   0  0  0  0  0  0  0  0  0  0  0  0
    6.4921   13.4510   24.3237 H   0  0  0  0  0  0  0  0  0  0  0  0
    7.6684   13.4380   25.6608 H   0  0  0  0  0  0  0  0  0  0  0  0
    8.0813   14.2345   24.1434 H   0  0  0  0  0  0  0  0  0  0  0  0
   11.3522   13.0604   21.1693 H   0  0  0  0  0  0  0  0  0  0  0  0
  1  2  1  0  0  0  0
  1  3  2  0  0  0  0
  1 16  1  0  0  0  0
  2  9  1  0  0  0  0
  2 11  2  0  0  0  0
  3 10  1  0  0  0  0
  3 15  1  0  0  0  0
  4  5  1  0  0  0  0
  4  6  1  0  0  0  0
  5  7  1  0  0  0  0
  6  8  1  0  0  0  0
  7  8  1  0  0  0  0
  8 12  1  0  0  0  0
 11 15  1  0  0  0  0
 12 16  1  0  0  0  0
 13 16  2  0  0  0  0
 14 16  2  0  0  0  0
  4 17  1  0  0  0  0
  4 18  1  0  0  0  0
  5 19  1  0  0  0  0
  5 20  1  0  0  0  0
  6 21  1  0  0  0  0
  6 22  1  0  0  0  0
  7 23  1  0  0  0  0
  7 24  1  0  0  0  0
  8 25  1  0  0  0  0
  9 26  1  0  0  0  0
  9 27  1  0  0  0  0
  9 28  1  0  0  0  0
 10 29  1  0  0  0  0
 10 30  1  0  0  0  0
 10 31  1  0  0  0  0
 12 32  1  0  0  0  0
M  END
> <Catalog ID>
Z45537475

> <PlateID>
1337959-R-12

> <Well>
G09

> <MW (desalted)>
244.311

> <CLogP>
2.048

> <HBD>
1

> <TPSA>
72.200

> <RotBonds>
2

> <ROCS_ShapeQuery>
x0446_0A_x1080_0A_x0929_0A_x0812_0A_x0719_0A_x1140_0A_x0528_0A_x0310_0A

> <ROCS_TanimotoCombo>
0.319 

> <ROCS_ShapeTanimoto>
0.201 

> <ROCS_ColorTanimoto>
0.118 

> <ROCS_RefTversky>
0.185 

> <ROCS_RefColorTversky>
0.128 

> <ROCS_RefTverskyCombo>
0.313 

> <ROCS_FitTversky>
1.726 

> <ROCS_FitColorTversky>
0.603 

> <ROCS_FitTverskyCombo>
2.330 

> <ROCS_ColorScore>
-4.564

> <ROCS_Overlap>
2187.381

> <ROCS_Rank>
202                 

$$$$
untitled-dbase-674_0
  -OEChem-02082415003D

 25 27  0     1  0  0  0  0  0999 V2000
   12.0847   12.3270   23.7592 C   0  0  0  0  0  0  0  0  0  0  0  0
   12.2066   10.9277   23.6931 C   0  0  0  0  0  0  0  0  0  0  0  0
   10.8272   12.9390   23.7398 C   0  0  0  0  0  0  0  0  0  0  0  0
   11.0736   10.1179   23.6066 C   0  0  0  0  0  0  0  0  0  0  0  0
    9.7050   12.1327   23.6538 C   0  0  0  0  0  0  0  0  0  0  0  0
    9.8447   10.7478   23.5891 C   0  0  0  0  0  0  0  0  0  0  0  0
    7.5709   11.1004   23.5188 C   0  0  0  0  0  0  0  0  0  0  0  0
    7.8489   13.3773   22.4449 C   0  0  0  0  0  0  0  0  0  0  0  0
    6.5956   14.0575   22.9524 C   0  0  0  0  0  0  0  0  0  0  0  0
    7.7459   13.2670   24.8262 C   0  0  0  0  0  0  0  0  0  0  0  0
    8.2466   12.4954   23.6122 C   0  0  2  0  0  0  0  0  0  0  0  0
    8.5944   10.1477   23.5094 N   0  0  0  0  0  0  0  0  0  0  0  0
    6.3696   10.8829   23.4661 O   0  0  0  0  0  0  0  0  0  0  0  0
    6.7395   14.1865   24.3697 O   0  0  0  0  0  0  0  0  0  0  0  0
   12.9800   12.9396   23.8260 H   0  0  0  0  0  0  0  0  0  0  0  0
   13.1939   10.4742   23.7091 H   0  0  0  0  0  0  0  0  0  0  0  0
   10.7423   14.0191   23.7912 H   0  0  0  0  0  0  0  0  0  0  0  0
   11.1642    9.0388   23.5560 H   0  0  0  0  0  0  0  0  0  0  0  0
    7.6707   12.8380   21.5088 H   0  0  0  0  0  0  0  0  0  0  0  0
    8.6137   14.1390   22.2492 H   0  0  0  0  0  0  0  0  0  0  0  0
    6.4461   15.0451   22.5067 H   0  0  0  0  0  0  0  0  0  0  0  0
    5.7038   13.4534   22.7558 H   0  0  0  0  0  0  0  0  0  0  0  0
    7.3032   12.6239   25.5941 H   0  0  0  0  0  0  0  0  0  0  0  0
    8.5300   13.8657   25.3020 H   0  0  0  0  0  0  0  0  0  0  0  0
    8.4434    9.1476   23.4519 H   0  0  0  0  0  0  0  0  0  0  0  0
  1  2  2  0  0  0  0
  1  3  1  0  0  0  0
  2  4  1  0  0  0  0
  3  5  2  0  0  0  0
  4  6  2  0  0  0  0
  5  6  1  0  0  0  0
  5 11  1  0  0  0  0
  6 12  1  0  0  0  0
  7 11  1  0  0  0  0
  7 12  1  0  0  0  0
  7 13  2  0  0  0  0
  8  9  1  0  0  0  0
  8 11  1  0  0  0  0
  9 14  1  0  0  0  0
 10 11  1  0  0  0  0
 10 14  1  0  0  0  0
  1 15  1  0  0  0  0
  2 16  1  0  0  0  0
  3 17  1  0  0  0  0
  4 18  1  0  0  0  0
  8 19  1  0  0  0  0
  8 20  1  0  0  0  0
  9 21  1  0  0  0  0
  9 22  1  0  0  0  0
 10 23  1  0  0  0  0
 10 24  1  0  0  0  0
 12 25  1  0  0  0  0
M  END
> <Catalog ID>
Z1868460493

> <PlateID>
1337959-R-15

> <Well>
G06

> <MW (desalted)>
189.211

> <CLogP>
0.364

> <HBD>
1

> <TPSA>
38.330

> <RotBonds>
0

> <ROCS_ShapeQuery>
x0446_0A_x1080_0A_x0929_0A_x0812_0A_x0719_0A_x1140_0A_x0528_0A_x0310_0A

> <ROCS_TanimotoCombo>
0.319 

> <ROCS_ShapeTanimoto>
0.203 

> <ROCS_ColorTanimoto>
0.116 

> <ROCS_RefTversky>
0.187 

> <ROCS_RefColorTversky>
0.126 

> <ROCS_RefTverskyCombo>
0.313 

> <ROCS_FitTversky>
1.780 

> <ROCS_FitColorTversky>
0.591 

> <ROCS_FitTverskyCombo>
2.371 

> <ROCS_ColorScore>
-4.478

> <ROCS_Overlap>
2203.891

> <ROCS_Rank>
203                 

$$$$
untitled-dbase-382_16
  -OEChem-02082415003D

 31 32  0     0  0  0  0  0  0999 V2000
    6.5294   11.8428   24.8498 C   0  0  0  0  0  0  0  0  0  0  0  0
    9.2675   10.2054   22.9317 C   0  0  0  0  0  0  0  0  0  0  0  0
    8.1779   10.3847   23.7838 C   0  0  0  0  0  0  0  0  0  0  0  0
    9.8249   11.3010   22.2723 C   0  0  0  0  0  0  0  0  0  0  0  0
    8.2029   12.7551   23.3172 C   0  0  0  0  0  0  0  0  0  0  0  0
    7.6455   11.6595   23.9766 C   0  0  0  0  0  0  0  0  0  0  0  0
    9.2926   12.5758   22.4651 C   0  0  0  0  0  0  0  0  0  0  0  0
   13.1436   16.4568   22.0914 C   0  0  0  0  0  0  0  0  0  0  0  0
   11.6945   16.8272   22.4018 C   0  0  0  0  0  0  0  0  0  0  0  0
   13.2470   15.0239   21.5725 C   0  0  0  0  0  0  0  0  0  0  0  0
   11.0532   15.8128   23.3418 C   0  0  0  0  0  0  0  0  0  0  0  0
   12.5791   14.0403   22.5266 C   0  0  0  0  0  0  0  0  0  0  0  0
    5.6230   11.9916   25.5590 N   0  0  0  0  0  0  0  0  0  0  0  0
   11.1665   14.4371   22.7823 N   0  0  0  0  0  0  0  0  0  0  0  0
   10.6752   13.4708   20.4499 O   0  0  0  0  0  0  0  0  0  0  0  0
    8.9863   14.9908   21.5385 O   0  0  0  0  0  0  0  0  0  0  0  0
    9.9990   13.9617   21.6309 S   0  0  0  0  0  0  0  0  0  0  0  0
    9.6818    9.2126   22.7814 H   0  0  0  0  0  0  0  0  0  0  0  0
    7.7545    9.5207   24.2909 H   0  0  0  0  0  0  0  0  0  0  0  0
   10.6736   11.1498   21.6112 H   0  0  0  0  0  0  0  0  0  0  0  0
    7.7908   13.7512   23.4650 H   0  0  0  0  0  0  0  0  0  0  0  0
   13.5465   17.1493   21.3401 H   0  0  0  0  0  0  0  0  0  0  0  0
   13.7580   16.5711   22.9931 H   0  0  0  0  0  0  0  0  0  0  0  0
   11.6685   17.8222   22.8629 H   0  0  0  0  0  0  0  0  0  0  0  0
   11.1203   16.8866   21.4710 H   0  0  0  0  0  0  0  0  0  0  0  0
   12.7832   14.9546   20.5825 H   0  0  0  0  0  0  0  0  0  0  0  0
   14.3050   14.7595   21.4540 H   0  0  0  0  0  0  0  0  0  0  0  0
   11.5658   15.8555   24.3139 H   0  0  0  0  0  0  0  0  0  0  0  0
    9.9933   16.0574   23.5095 H   0  0  0  0  0  0  0  0  0  0  0  0
   12.6078   13.0205   22.1135 H   0  0  0  0  0  0  0  0  0  0  0  0
   13.1344   14.0337   23.4759 H   0  0  0  0  0  0  0  0  0  0  0  0
  1  6  1  0  0  0  0
  1 13  3  0  0  0  0
  2  3  2  0  0  0  0
  2  4  1  0  0  0  0
  3  6  1  0  0  0  0
  4  7  2  0  0  0  0
  5  6  2  0  0  0  0
  5  7  1  0  0  0  0
  7 17  1  0  0  0  0
  8  9  1  0  0  0  0
  8 10  1  0  0  0  0
  9 11  1  0  0  0  0
 10 12  1  0  0  0  0
 11 14  1  0  0  0  0
 12 14  1  0  0  0  0
 14 17  1  0  0  0  0
 15 17  2  0  0  0  0
 16 17  2  0  0  0  0
  2 18  1  0  0  0  0
  3 19  1  0  0  0  0
  4 20  1  0  0  0  0
  5 21  1  0  0  0  0
  8 22  1  0  0  0  0
  8 23  1  0  0  0  0
  9 24  1  0  0  0  0
  9 25  1  0  0  0  0
 10 26  1  0  0  0  0
 10 27  1  0  0  0  0
 11 28  1  0  0  0  0
 11 29  1  0  0  0  0
 12 30  1  0  0  0  0
 12 31  1  0  0  0  0
M  END
> <Catalog ID>
Z45498118

> <PlateID>
1337959-R-09

> <Well>
B09

> <MW (desalted)>
250.317

> <CLogP>
1.963

> <HBD>
0

> <TPSA>
61.170

> <RotBonds>
1

> <ROCS_ShapeQuery>
x0446_0A_x1080_0A_x0929_0A_x0812_0A_x0719_0A_x1140_0A_x0528_0A_x0310_0A

> <ROCS_TanimotoCombo>
0.319 

> <ROCS_ShapeTanimoto>
0.199 

> <ROCS_ColorTanimoto>
0.120 

> <ROCS_RefTversky>
0.184 

> <ROCS_RefColorTversky>
0.127 

> <ROCS_RefTverskyCombo>
0.311 

> <ROCS_FitTversky>
1.666 

> <ROCS_FitColorTversky>
0.685 

> <ROCS_FitTverskyCombo>
2.351 

> <ROCS_ColorScore>
-4.530

> <ROCS_Overlap>
2173.354

> <ROCS_Rank>
204                 

$$$$
untitled-dbase-563_19
  -OEChem-02082415003D

 29 30  0     0  0  0  0  0  0999 V2000
    9.8548   15.2327   21.8044 C   0  0  0  0  0  0  0  0  0  0  0  0
    7.9321   12.2181   24.3091 C   0  0  0  0  0  0  0  0  0  0  0  0
    8.8844   11.5365   23.5807 C   0  0  0  0  0  0  0  0  0  0  0  0
    7.7776    9.8149   24.3688 C   0  0  0  0  0  0  0  0  0  0  0  0
    9.9454   12.1949   22.8020 C   0  0  0  0  0  0  0  0  0  0  0  0
   12.8022   14.9026   21.3375 C   0  0  0  0  0  0  0  0  0  0  0  0
   11.8084   13.7366   21.1688 C   0  0  0  0  0  0  0  0  0  0  0  0
   12.2137   15.1242   22.7448 C   0  0  0  0  0  0  0  0  0  0  0  0
   10.9316   14.3867   22.2730 C   0  0  0  0  0  0  0  0  0  0  0  0
    7.3696    8.4192   24.6398 C   0  0  0  0  0  0  0  0  0  0  0  0
   10.4427   13.8759   24.6356 C   0  0  0  0  0  0  0  0  0  0  0  0
    8.9917   15.9110   21.4288 N   0  0  0  0  0  0  0  0  0  0  0  0
    8.7977   10.1584   23.6141 N   0  0  0  0  0  0  0  0  0  0  0  0
   10.4157   13.4303   23.2476 N   0  0  0  0  0  0  0  0  0  0  0  0
   10.3490   11.5885   21.8103 O   0  0  0  0  0  0  0  0  0  0  0  0
    6.8789   11.0981   25.0692 S   0  0  0  0  0  0  0  0  0  0  0  0
    7.8036   13.2846   24.4297 H   0  0  0  0  0  0  0  0  0  0  0  0
   13.8532   14.5901   21.3423 H   0  0  0  0  0  0  0  0  0  0  0  0
   12.6831   15.7333   20.6367 H   0  0  0  0  0  0  0  0  0  0  0  0
   11.3438   13.7043   20.1745 H   0  0  0  0  0  0  0  0  0  0  0  0
   12.2163   12.7442   21.3879 H   0  0  0  0  0  0  0  0  0  0  0  0
   12.7752   14.6575   23.5610 H   0  0  0  0  0  0  0  0  0  0  0  0
   12.0684   16.1844   22.9911 H   0  0  0  0  0  0  0  0  0  0  0  0
    7.8767    8.0271   25.5352 H   0  0  0  0  0  0  0  0  0  0  0  0
    6.2828    8.3332   24.8023 H   0  0  0  0  0  0  0  0  0  0  0  0
    7.6080    7.7506   23.7965 H   0  0  0  0  0  0  0  0  0  0  0  0
   11.3992   13.5868   25.0955 H   0  0  0  0  0  0  0  0  0  0  0  0
   10.3346   14.9700   24.6714 H   0  0  0  0  0  0  0  0  0  0  0  0
    9.6143   13.4074   25.1871 H   0  0  0  0  0  0  0  0  0  0  0  0
  1  9  1  0  0  0  0
  1 12  3  0  0  0  0
  2  3  2  0  0  0  0
  2 16  1  0  0  0  0
  3  5  1  0  0  0  0
  3 13  1  0  0  0  0
  4 10  1  0  0  0  0
  4 13  2  0  0  0  0
  4 16  1  0  0  0  0
  5 14  1  0  0  0  0
  5 15  2  0  0  0  0
  6  7  1  0  0  0  0
  6  8  1  0  0  0  0
  7  9  1  0  0  0  0
  8  9  1  0  0  0  0
  9 14  1  0  0  0  0
 11 14  1  0  0  0  0
  2 17  1  0  0  0  0
  6 18  1  0  0  0  0
  6 19  1  0  0  0  0
  7 20  1  0  0  0  0
  7 21  1  0  0  0  0
  8 22  1  0  0  0  0
  8 23  1  0  0  0  0
 10 24  1  0  0  0  0
 10 25  1  0  0  0  0
 10 26  1  0  0  0  0
 11 27  1  0  0  0  0
 11 28  1  0  0  0  0
 11 29  1  0  0  0  0
M  END
> <Catalog ID>
Z878665180

> <PlateID>
1337959-R-13

> <Well>
B07

> <MW (desalted)>
235.305

> <CLogP>
0.339

> <HBD>
0

> <TPSA>
56.990

> <RotBonds>
2

> <ROCS_ShapeQuery>
x0446_0A_x1080_0A_x0929_0A_x0812_0A_x0719_0A_x1140_0A_x0528_0A_x0310_0A

> <ROCS_TanimotoCombo>
0.319 

> <ROCS_ShapeTanimoto>
0.200 

> <ROCS_ColorTanimoto>
0.119 

> <ROCS_RefTversky>
0.185 

> <ROCS_RefColorTversky>
0.126 

> <ROCS_RefTverskyCombo>
0.311 

> <ROCS_FitTversky>
1.703 

> <ROCS_FitColorTversky>
0.679 

> <ROCS_FitTverskyCombo>
2.381 

> <ROCS_ColorScore>
-4.485

> <ROCS_Overlap>
2180.728

> <ROCS_Rank>
205                 

$$$$
untitled-dbase-568_15
  -OEChem-02082415003D

 28 29  0     0  0  0  0  0  0999 V2000
    7.5233   11.7740   24.4165 C   0  0  0  0  0  0  0  0  0  0  0  0
    8.0800   12.8045   23.6589 C   0  0  0  0  0  0  0  0  0  0  0  0
    9.2531   10.2734   23.6465 C   0  0  0  0  0  0  0  0  0  0  0  0
    8.1099   10.5085   24.4103 C   0  0  0  0  0  0  0  0  0  0  0  0
    9.8098   11.3038   22.8888 C   0  0  0  0  0  0  0  0  0  0  0  0
    9.2232   12.5694   22.8951 C   0  0  0  0  0  0  0  0  0  0  0  0
   10.8087   15.9627   23.4683 C   0  0  0  0  0  0  0  0  0  0  0  0
   12.4518   14.2148   22.9217 C   0  0  0  0  0  0  0  0  0  0  0  0
   11.5099   16.8658   22.4645 C   0  0  0  0  0  0  0  0  0  0  0  0
   13.0868   15.1888   21.9402 C   0  0  0  0  0  0  0  0  0  0  0  0
   11.0062   14.5365   23.0850 N   0  0  0  0  0  0  0  0  0  0  0  0
   10.6835   13.2809   20.8617 O   0  0  0  0  0  0  0  0  0  0  0  0
    8.8797   14.8427   21.6710 O   0  0  0  0  0  0  0  0  0  0  0  0
   12.8987   16.5347   22.3849 O   0  0  0  0  0  0  0  0  0  0  0  0
    7.5756    9.5186   25.1375 F   0  0  0  0  0  0  0  0  0  0  0  0
   10.9087   11.0657   22.1593 F   0  0  0  0  0  0  0  0  0  0  0  0
    9.9247   13.8780   21.9400 S   0  0  0  0  0  0  0  0  0  0  0  0
    6.6331   11.9567   25.0111 H   0  0  0  0  0  0  0  0  0  0  0  0
    7.6158   13.7869   23.6728 H   0  0  0  0  0  0  0  0  0  0  0  0
    9.7099    9.2883   23.6431 H   0  0  0  0  0  0  0  0  0  0  0  0
   11.2200   16.1206   24.4768 H   0  0  0  0  0  0  0  0  0  0  0  0
    9.7353   16.1978   23.4874 H   0  0  0  0  0  0  0  0  0  0  0  0
   12.5647   13.1883   22.5461 H   0  0  0  0  0  0  0  0  0  0  0  0
   12.9453   14.2852   23.9029 H   0  0  0  0  0  0  0  0  0  0  0  0
   11.0607   16.7855   21.4674 H   0  0  0  0  0  0  0  0  0  0  0  0
   11.4333   17.9102   22.7825 H   0  0  0  0  0  0  0  0  0  0  0  0
   14.1638   15.0062   21.8750 H   0  0  0  0  0  0  0  0  0  0  0  0
   12.6667   15.0781   20.9334 H   0  0  0  0  0  0  0  0  0  0  0  0
  1  2  1  0  0  0  0
  1  4  2  0  0  0  0
  2  6  2  0  0  0  0
  3  4  1  0  0  0  0
  3  5  2  0  0  0  0
  4 15  1  0  0  0  0
  5  6  1  0  0  0  0
  5 16  1  0  0  0  0
  6 17  1  0  0  0  0
  7  9  1  0  0  0  0
  7 11  1  0  0  0  0
  8 10  1  0  0  0  0
  8 11  1  0  0  0  0
  9 14  1  0  0  0  0
 10 14  1  0  0  0  0
 11 17  1  0  0  0  0
 12 17  2  0  0  0  0
 13 17  2  0  0  0  0
  1 18  1  0  0  0  0
  2 19  1  0  0  0  0
  3 20  1  0  0  0  0
  7 21  1  0  0  0  0
  7 22  1  0  0  0  0
  8 23  1  0  0  0  0
  8 24  1  0  0  0  0
  9 25  1  0  0  0  0
  9 26  1  0  0  0  0
 10 27  1  0  0  0  0
 10 28  1  0  0  0  0
M  END
> <Catalog ID>
Z45515797

> <PlateID>
1337959-R-13

> <Well>
C05

> <MW (desalted)>
263.261

> <CLogP>
1.569

> <HBD>
0

> <TPSA>
46.610

> <RotBonds>
1

> <ROCS_ShapeQuery>
x0446_0A_x1080_0A_x0929_0A_x0812_0A_x0719_0A_x1140_0A_x0528_0A_x0310_0A

> <ROCS_TanimotoCombo>
0.319 

> <ROCS_ShapeTanimoto>
0.210 

> <ROCS_ColorTanimoto>
0.109 

> <ROCS_RefTversky>
0.193 

> <ROCS_RefColorTversky>
0.117 

> <ROCS_RefTverskyCombo>
0.309 

> <ROCS_FitTversky>
1.723 

> <ROCS_FitColorTversky>
0.628 

> <ROCS_FitTverskyCombo>
2.351 

> <ROCS_ColorScore>
-4.150

> <ROCS_Overlap>
2275.282

> <ROCS_Rank>
206                 

$$$$
untitled-dbase-490_3
  -OEChem-02082415003D

 31 32  0     0  0  0  0  0  0999 V2000
    9.2146   11.1159   25.2768 C   0  0  0  0  0  0  0  0  0  0  0  0
    8.5470   12.2646   24.8520 C   0  0  0  0  0  0  0  0  0  0  0  0
    8.7896   11.5561   22.5550 C   0  0  0  0  0  0  0  0  0  0  0  0
   10.1169   16.7467   23.1481 C   0  0  0  0  0  0  0  0  0  0  0  0
    9.4573   10.4075   22.9798 C   0  0  0  0  0  0  0  0  0  0  0  0
    9.6698   10.1874   24.3407 C   0  0  0  0  0  0  0  0  0  0  0  0
    8.3345   12.4847   23.4911 C   0  0  0  0  0  0  0  0  0  0  0  0
   10.2132   16.2923   21.8191 C   0  0  0  0  0  0  0  0  0  0  0  0
    9.1419   15.9595   23.7103 C   0  0  0  0  0  0  0  0  0  0  0  0
    9.9426    9.4171   21.9758 C   0  0  0  0  0  0  0  0  0  0  0  0
   11.1084   16.7928   20.7623 C   0  0  0  0  0  0  0  0  0  0  0  0
    8.5891   15.9561   25.0790 C   0  0  0  0  0  0  0  0  0  0  0  0
    9.3671   15.2937   21.5530 N   0  0  0  0  0  0  0  0  0  0  0  0
    8.7298   15.1142   22.7225 N   0  0  0  0  0  0  0  0  0  0  0  0
    6.9685   13.7352   21.6222 O   0  0  0  0  0  0  0  0  0  0  0  0
    6.6859   14.4073   24.0596 O   0  0  0  0  0  0  0  0  0  0  0  0
   10.3097    9.0864   24.7586 F   0  0  0  0  0  0  0  0  0  0  0  0
    7.4999   13.9233   22.9604 S   0  0  0  0  0  0  0  0  0  0  0  0
    9.3802   10.9435   26.3361 H   0  0  0  0  0  0  0  0  0  0  0  0
    8.1971   12.9814   25.5899 H   0  0  0  0  0  0  0  0  0  0  0  0
    8.6251   11.7267   21.4935 H   0  0  0  0  0  0  0  0  0  0  0  0
   10.6757   17.5356   23.6309 H   0  0  0  0  0  0  0  0  0  0  0  0
   10.9637    9.6629   21.6595 H   0  0  0  0  0  0  0  0  0  0  0  0
    9.9412    8.3994   22.3872 H   0  0  0  0  0  0  0  0  0  0  0  0
    9.2974    9.4014   21.0876 H   0  0  0  0  0  0  0  0  0  0  0  0
   12.0684   16.2486   20.7593 H   0  0  0  0  0  0  0  0  0  0  0  0
   10.6646   16.6892   19.7560 H   0  0  0  0  0  0  0  0  0  0  0  0
   11.3358   17.8673   20.8825 H   0  0  0  0  0  0  0  0  0  0  0  0
    7.7252   16.6359   25.1601 H   0  0  0  0  0  0  0  0  0  0  0  0
    8.2548   14.9510   25.3877 H   0  0  0  0  0  0  0  0  0  0  0  0
    9.3358   16.2721   25.8275 H   0  0  0  0  0  0  0  0  0  0  0  0
  1  2  1  0  0  0  0
  1  6  2  0  0  0  0
  2  7  2  0  0  0  0
  3  5  2  0  0  0  0
  3  7  1  0  0  0  0
  4  8  1  0  0  0  0
  4  9  2  0  0  0  0
  5  6  1  0  0  0  0
  5 10  1  0  0  0  0
  6 17  1  0  0  0  0
  7 18  1  0  0  0  0
  8 11  1  0  0  0  0
  8 13  2  0  0  0  0
  9 12  1  0  0  0  0
  9 14  1  0  0  0  0
 13 14  1  0  0  0  0
 14 18  1  0  0  0  0
 15 18  2  0  0  0  0
 16 18  2  0  0  0  0
  1 19  1  0  0  0  0
  2 20  1  0  0  0  0
  3 21  1  0  0  0  0
  4 22  1  0  0  0  0
 10 23  1  0  0  0  0
 10 24  1  0  0  0  0
 10 25  1  0  0  0  0
 11 26  1  0  0  0  0
 11 27  1  0  0  0  0
 11 28  1  0  0  0  0
 12 29  1  0  0  0  0
 12 30  1  0  0  0  0
 12 31  1  0  0  0  0
M  END
> <Catalog ID>
Z2216562684

> <PlateID>
1337959-R-11

> <Well>
F10

> <MW (desalted)>
268.307

> <CLogP>
1.685

> <HBD>
0

> <TPSA>
51.960

> <RotBonds>
1

> <ROCS_ShapeQuery>
x0446_0A_x1080_0A_x0929_0A_x0812_0A_x0719_0A_x1140_0A_x0528_0A_x0310_0A

> <ROCS_TanimotoCombo>
0.319 

> <ROCS_ShapeTanimoto>
0.182 

> <ROCS_ColorTanimoto>
0.137 

> <ROCS_RefTversky>
0.172 

> <ROCS_RefColorTversky>
0.142 

> <ROCS_RefTverskyCombo>
0.314 

> <ROCS_FitTversky>
1.479 

> <ROCS_FitColorTversky>
0.767 

> <ROCS_FitTverskyCombo>
2.246 

> <ROCS_ColorScore>
-5.069

> <ROCS_Overlap>
2029.896

> <ROCS_Rank>
207                 

$$$$
untitled-dbase-570_0
  -OEChem-02082415003D

 33 34  0     0  0  0  0  0  0999 V2000
   11.2671   12.5235   23.2738 C   0  0  0  0  0  0  0  0  0  0  0  0
    8.9171    9.9080   24.4640 C   0  0  0  0  0  0  0  0  0  0  0  0
   12.4659   11.8114   23.2266 C   0  0  0  0  0  0  0  0  0  0  0  0
    7.7183   10.6202   24.5111 C   0  0  0  0  0  0  0  0  0  0  0  0
   11.3215    9.8313   23.9995 C   0  0  0  0  0  0  0  0  0  0  0  0
    8.8628   12.6002   23.7384 C   0  0  0  0  0  0  0  0  0  0  0  0
   10.1059   10.5326   24.0530 C   0  0  0  0  0  0  0  0  0  0  0  0
   10.0783   11.8989   23.6848 C   0  0  0  0  0  0  0  0  0  0  0  0
   12.4931   10.4679   23.5888 C   0  0  0  0  0  0  0  0  0  0  0  0
    7.6912   11.9637   24.1490 C   0  0  0  0  0  0  0  0  0  0  0  0
    6.3199   13.0995   21.4704 C   0  0  0  0  0  0  0  0  0  0  0  0
    4.8587   11.3232   22.3480 C   0  0  0  0  0  0  0  0  0  0  0  0
   14.8234   10.4857   23.1144 C   0  0  0  0  0  0  0  0  0  0  0  0
    5.5232   12.6213   22.6288 N   0  0  0  0  0  0  0  0  0  0  0  0
    5.3173   12.2094   25.1849 O   0  0  0  0  0  0  0  0  0  0  0  0
    6.5042   14.2667   24.3833 O   0  0  0  0  0  0  0  0  0  0  0  0
   13.6634    9.7742   23.5428 O   0  0  0  0  0  0  0  0  0  0  0  0
    6.1896   12.8529   24.2085 S   0  0  0  0  0  0  0  0  0  0  0  0
   11.2698   13.5725   22.9849 H   0  0  0  0  0  0  0  0  0  0  0  0
    8.9151    8.8592   24.7533 H   0  0  0  0  0  0  0  0  0  0  0  0
   13.3753   12.3115   22.9047 H   0  0  0  0  0  0  0  0  0  0  0  0
    6.8115   10.1148   24.8325 H   0  0  0  0  0  0  0  0  0  0  0  0
   11.3607    8.7798   24.2785 H   0  0  0  0  0  0  0  0  0  0  0  0
    8.8300   13.6513   23.4564 H   0  0  0  0  0  0  0  0  0  0  0  0
    6.7928   14.0604   21.7216 H   0  0  0  0  0  0  0  0  0  0  0  0
    7.0978   12.3598   21.2301 H   0  0  0  0  0  0  0  0  0  0  0  0
    5.6593   13.2323   20.6009 H   0  0  0  0  0  0  0  0  0  0  0  0
    4.2817   11.0078   23.2298 H   0  0  0  0  0  0  0  0  0  0  0  0
    4.1818   11.4363   21.4883 H   0  0  0  0  0  0  0  0  0  0  0  0
    5.6204   10.5638   22.1175 H   0  0  0  0  0  0  0  0  0  0  0  0
   15.6868    9.8160   23.1238 H   0  0  0  0  0  0  0  0  0  0  0  0
   14.9991   11.3333   23.7816 H   0  0  0  0  0  0  0  0  0  0  0  0
   14.6604   10.8523   22.0981 H   0  0  0  0  0  0  0  0  0  0  0  0
  1  3  1  0  0  0  0
  1  8  2  0  0  0  0
  2  4  2  0  0  0  0
  2  7  1  0  0  0  0
  3  9  2  0  0  0  0
  4 10  1  0  0  0  0
  5  7  2  0  0  0  0
  5  9  1  0  0  0  0
  6  8  1  0  0  0  0
  6 10  2  0  0  0  0
  7  8  1  0  0  0  0
  9 17  1  0  0  0  0
 10 18  1  0  0  0  0
 11 14  1  0  0  0  0
 12 14  1  0  0  0  0
 13 17  1  0  0  0  0
 14 18  1  0  0  0  0
 15 18  2  0  0  0  0
 16 18  2  0  0  0  0
  1 19  1  0  0  0  0
  2 20  1  0  0  0  0
  3 21  1  0  0  0  0
  4 22  1  0  0  0  0
  5 23  1  0  0  0  0
  6 24  1  0  0  0  0
 11 25  1  0  0  0  0
 11 26  1  0  0  0  0
 11 27  1  0  0  0  0
 12 28  1  0  0  0  0
 12 29  1  0  0  0  0
 12 30  1  0  0  0  0
 13 31  1  0  0  0  0
 13 32  1  0  0  0  0
 13 33  1  0  0  0  0
M  END
> <Catalog ID>
Z283863518

> <PlateID>
1337959-R-13

> <Well>
D02

> <MW (desalted)>
265.328

> <CLogP>
2.617

> <HBD>
0

> <TPSA>
46.610

> <RotBonds>
2

> <ROCS_ShapeQuery>
x0446_0A_x1080_0A_x0929_0A_x0812_0A_x0719_0A_x1140_0A_x0528_0A_x0310_0A

> <ROCS_TanimotoCombo>
0.318 

> <ROCS_ShapeTanimoto>
0.187 

> <ROCS_ColorTanimoto>
0.131 

> <ROCS_RefTversky>
0.176 

> <ROCS_RefColorTversky>
0.138 

> <ROCS_RefTverskyCombo>
0.313 

> <ROCS_FitTversky>
1.526 

> <ROCS_FitColorTversky>
0.740 

> <ROCS_FitTverskyCombo>
2.265 

> <ROCS_ColorScore>
-4.894

> <ROCS_Overlap>
2076.513

> <ROCS_Rank>
208                 

$$$$
untitled-dbase-7_11
  -OEChem-02082415003D

 19 19  0     0  0  0  0  0  0999 V2000
    7.5509   12.0848   24.6876 C   0  0  0  0  0  0  0  0  0  0  0  0
    8.2582   12.6382   23.6261 C   0  0  0  0  0  0  0  0  0  0  0  0
    7.6364   10.7153   24.8802 C   0  0  0  0  0  0  0  0  0  0  0  0
    9.0387   10.4594   23.0784 C   0  0  0  0  0  0  0  0  0  0  0  0
    9.0187   11.8168   22.8013 C   0  0  0  0  0  0  0  0  0  0  0  0
    9.7868   12.3787   21.6583 C   0  0  0  0  0  0  0  0  0  0  0  0
    8.3647    9.8854   24.1001 N   0  0  0  0  0  0  0  0  0  0  0  0
   11.5182   14.2707   20.9700 N   0  0  0  0  0  0  0  0  0  0  0  0
    9.1274   14.9070   21.6742 O   0  0  0  0  0  0  0  0  0  0  0  0
   10.7492   14.0564   23.4153 O   0  0  0  0  0  0  0  0  0  0  0  0
   10.2274   14.0400   22.0597 S   0  0  0  0  0  0  0  0  0  0  0  0
    6.9517   12.7058   25.3436 H   0  0  0  0  0  0  0  0  0  0  0  0
    8.2111   13.7093   23.4494 H   0  0  0  0  0  0  0  0  0  0  0  0
    7.1031   10.2352   25.6940 H   0  0  0  0  0  0  0  0  0  0  0  0
    9.6144    9.7692   22.4695 H   0  0  0  0  0  0  0  0  0  0  0  0
    9.2017   12.4026   20.7301 H   0  0  0  0  0  0  0  0  0  0  0  0
   10.7139   11.8248   21.4624 H   0  0  0  0  0  0  0  0  0  0  0  0
   12.3967   13.7717   21.1567 H   0  0  0  0  0  0  0  0  0  0  0  0
   11.2920   14.3512   19.9710 H   0  0  0  0  0  0  0  0  0  0  0  0
  1  2  1  0  0  0  0
  1  3  2  0  0  0  0
  2  5  2  0  0  0  0
  3  7  1  0  0  0  0
  4  5  1  0  0  0  0
  4  7  2  0  0  0  0
  5  6  1  0  0  0  0
  6 11  1  0  0  0  0
  8 11  1  0  0  0  0
  9 11  2  0  0  0  0
 10 11  2  0  0  0  0
  1 12  1  0  0  0  0
  2 13  1  0  0  0  0
  3 14  1  0  0  0  0
  4 15  1  0  0  0  0
  6 16  1  0  0  0  0
  6 17  1  0  0  0  0
  8 18  1  0  0  0  0
  8 19  1  0  0  0  0
M  END
> <Catalog ID>
Z385450900

> <PlateID>
1337959-R-01

> <Well>
B03

> <MW (desalted)>
172.205

> <CLogP>
-1.223

> <HBD>
1

> <TPSA>
73.050

> <RotBonds>
2

> <ROCS_ShapeQuery>
x0446_0A_x1080_0A_x0929_0A_x0812_0A_x0719_0A_x1140_0A_x0528_0A_x0310_0A

> <ROCS_TanimotoCombo>
0.318 

> <ROCS_ShapeTanimoto>
0.166 

> <ROCS_ColorTanimoto>
0.152 

> <ROCS_RefTversky>
0.155 

> <ROCS_RefColorTversky>
0.157 

> <ROCS_RefTverskyCombo>
0.312 

> <ROCS_FitTversky>
1.740 

> <ROCS_FitColorTversky>
0.842 

> <ROCS_FitTverskyCombo>
2.582 

> <ROCS_ColorScore>
-5.570

> <ROCS_Overlap>
1830.004

> <ROCS_Rank>
209                 

$$$$
untitled-dbase-204_0
  -OEChem-02082415003D

 30 30  0     0  0  0  0  0  0999 V2000
    9.5706   14.6165   22.3337 C   0  0  0  0  0  0  0  0  0  0  0  0
    8.0218   12.8467   24.2569 C   0  0  0  0  0  0  0  0  0  0  0  0
    9.6303   11.2416   23.4364 C   0  0  0  0  0  0  0  0  0  0  0  0
    7.5229   10.4843   24.3433 C   0  0  0  0  0  0  0  0  0  0  0  0
    9.2604   12.5641   23.6811 C   0  0  0  0  0  0  0  0  0  0  0  0
    7.1531   11.8068   24.5881 C   0  0  0  0  0  0  0  0  0  0  0  0
    8.7615   10.2017   23.7675 C   0  0  0  0  0  0  0  0  0  0  0  0
   11.5522   13.2413   22.6945 C   0  0  0  0  0  0  0  0  0  0  0  0
   10.5633   14.5129   24.5902 C   0  0  0  0  0  0  0  0  0  0  0  0
    5.6293   13.4553   25.3732 C   0  0  0  0  0  0  0  0  0  0  0  0
   10.4041    8.6941   22.9398 C   0  0  0  0  0  0  0  0  0  0  0  0
   10.1897   13.6758   23.3282 C   0  0  0  0  0  0  0  0  0  0  0  0
    9.0675   15.3260   21.5651 N   0  0  0  0  0  0  0  0  0  0  0  0
    5.9441   12.0817   25.1502 O   0  0  0  0  0  0  0  0  0  0  0  0
    9.1232    8.9112   23.5296 O   0  0  0  0  0  0  0  0  0  0  0  0
    7.7312   13.8766   24.4489 H   0  0  0  0  0  0  0  0  0  0  0  0
   10.5956   11.0177   22.9885 H   0  0  0  0  0  0  0  0  0  0  0  0
    6.8458    9.6742   24.6017 H   0  0  0  0  0  0  0  0  0  0  0  0
   12.0866   12.5452   23.3530 H   0  0  0  0  0  0  0  0  0  0  0  0
   12.1980   14.1098   22.5199 H   0  0  0  0  0  0  0  0  0  0  0  0
   11.4280   12.7314   21.7306 H   0  0  0  0  0  0  0  0  0  0  0  0
   11.0239   13.8899   25.3661 H   0  0  0  0  0  0  0  0  0  0  0  0
   11.2826   15.2978   24.3275 H   0  0  0  0  0  0  0  0  0  0  0  0
    9.6941   14.9971   25.0523 H   0  0  0  0  0  0  0  0  0  0  0  0
    4.6377   13.5337   25.8257 H   0  0  0  0  0  0  0  0  0  0  0  0
    5.6514   13.9941   24.4226 H   0  0  0  0  0  0  0  0  0  0  0  0
    6.3713   13.8846   26.0505 H   0  0  0  0  0  0  0  0  0  0  0  0
   10.5667    7.6221   22.8043 H   0  0  0  0  0  0  0  0  0  0  0  0
   11.1796    9.1123   23.5865 H   0  0  0  0  0  0  0  0  0  0  0  0
   10.4365    9.1910   21.9673 H   0  0  0  0  0  0  0  0  0  0  0  0
  1 12  1  0  0  0  0
  1 13  3  0  0  0  0
  2  5  1  0  0  0  0
  2  6  2  0  0  0  0
  3  5  2  0  0  0  0
  3  7  1  0  0  0  0
  4  6  1  0  0  0  0
  4  7  2  0  0  0  0
  5 12  1  0  0  0  0
  6 14  1  0  0  0  0
  7 15  1  0  0  0  0
  8 12  1  0  0  0  0
  9 12  1  0  0  0  0
 10 14  1  0  0  0  0
 11 15  1  0  0  0  0
  2 16  1  0  0  0  0
  3 17  1  0  0  0  0
  4 18  1  0  0  0  0
  8 19  1  0  0  0  0
  8 20  1  0  0  0  0
  8 21  1  0  0  0  0
  9 22  1  0  0  0  0
  9 23  1  0  0  0  0
  9 24  1  0  0  0  0
 10 25  1  0  0  0  0
 10 26  1  0  0  0  0
 10 27  1  0  0  0  0
 11 28  1  0  0  0  0
 11 29  1  0  0  0  0
 11 30  1  0  0  0  0
M  END
> <Catalog ID>
Z1509621382

> <PlateID>
1337959-R-05

> <Well>
A07

> <MW (desalted)>
205.253

> <CLogP>
2.280

> <HBD>
0

> <TPSA>
42.250

> <RotBonds>
3

> <ROCS_ShapeQuery>
x0446_0A_x1080_0A_x0929_0A_x0812_0A_x0719_0A_x1140_0A_x0528_0A_x0310_0A

> <ROCS_TanimotoCombo>
0.318 

> <ROCS_ShapeTanimoto>
0.210 

> <ROCS_ColorTanimoto>
0.108 

> <ROCS_RefTversky>
0.191 

> <ROCS_RefColorTversky>
0.116 

> <ROCS_RefTverskyCombo>
0.307 

> <ROCS_FitTversky>
1.832 

> <ROCS_FitColorTversky>
0.623 

> <ROCS_FitTverskyCombo>
2.456 

> <ROCS_ColorScore>
-4.120

> <ROCS_Overlap>
2257.493

> <ROCS_Rank>
210                 

$$$$
untitled-dbase-35_1
  -OEChem-02082415003D

 29 30  0     0  0  0  0  0  0999 V2000
   10.7363   10.3499   22.8106 C   0  0  0  0  0  0  0  0  0  0  0  0
   11.8025   11.2129   23.0633 C   0  0  0  0  0  0  0  0  0  0  0  0
    9.4376   10.7266   23.1532 C   0  0  0  0  0  0  0  0  0  0  0  0
   11.5701   12.4527   23.6588 C   0  0  0  0  0  0  0  0  0  0  0  0
    9.2053   11.9664   23.7487 C   0  0  0  0  0  0  0  0  0  0  0  0
   10.2715   12.8294   24.0015 C   0  0  0  0  0  0  0  0  0  0  0  0
    7.4533   13.6029   23.3286 C   0  0  0  0  0  0  0  0  0  0  0  0
    7.5416   12.6569   25.6140 C   0  0  0  0  0  0  0  0  0  0  0  0
    6.7714   11.2190   23.7050 C   0  0  0  0  0  0  0  0  0  0  0  0
    6.0689   12.8439   25.9699 C   0  0  0  0  0  0  0  0  0  0  0  0
    5.3465   11.4741   24.1917 C   0  0  0  0  0  0  0  0  0  0  0  0
    7.7533   12.3435   24.1142 C   0  0  0  0  0  0  0  0  0  0  0  0
    7.1444   14.6789   23.8188 O   0  0  0  0  0  0  0  0  0  0  0  0
    5.3155   11.6939   25.5979 O   0  0  0  0  0  0  0  0  0  0  0  0
    7.5711   13.3763   21.9975 O   0  0  0  0  0  0  0  0  0  0  0  0
   10.0229   14.3712   24.7366 Cl  0  0  0  0  0  0  0  0  0  0  0  0
   10.9173    9.3848   22.3460 H   0  0  0  0  0  0  0  0  0  0  0  0
   12.8133   10.9197   22.7953 H   0  0  0  0  0  0  0  0  0  0  0  0
    8.6140   10.0467   22.9515 H   0  0  0  0  0  0  0  0  0  0  0  0
   12.4118   13.1142   23.8480 H   0  0  0  0  0  0  0  0  0  0  0  0
    8.1050   13.5504   25.9114 H   0  0  0  0  0  0  0  0  0  0  0  0
    7.9334   11.8214   26.2109 H   0  0  0  0  0  0  0  0  0  0  0  0
    7.1141   10.2725   24.1463 H   0  0  0  0  0  0  0  0  0  0  0  0
    6.7666   11.0764   22.6170 H   0  0  0  0  0  0  0  0  0  0  0  0
    5.9651   12.9737   27.0520 H   0  0  0  0  0  0  0  0  0  0  0  0
    5.6455   13.7345   25.4912 H   0  0  0  0  0  0  0  0  0  0  0  0
    4.8951   12.3302   23.6766 H   0  0  0  0  0  0  0  0  0  0  0  0
    4.7225   10.6003   23.9778 H   0  0  0  0  0  0  0  0  0  0  0  0
    7.3785   14.1809   21.4704 H   0  0  0  0  0  0  0  0  0  0  0  0
  1  2  2  0  0  0  0
  1  3  1  0  0  0  0
  2  4  1  0  0  0  0
  3  5  2  0  0  0  0
  4  6  2  0  0  0  0
  5  6  1  0  0  0  0
  5 12  1  0  0  0  0
  6 16  1  0  0  0  0
  7 12  1  0  0  0  0
  7 13  2  0  0  0  0
  7 15  1  0  0  0  0
  8 10  1  0  0  0  0
  8 12  1  0  0  0  0
  9 11  1  0  0  0  0
  9 12  1  0  0  0  0
 10 14  1  0  0  0  0
 11 14  1  0  0  0  0
  1 17  1  0  0  0  0
  2 18  1  0  0  0  0
  3 19  1  0  0  0  0
  4 20  1  0  0  0  0
  8 21  1  0  0  0  0
  8 22  1  0  0  0  0
  9 23  1  0  0  0  0
  9 24  1  0  0  0  0
 10 25  1  0  0  0  0
 10 26  1  0  0  0  0
 11 27  1  0  0  0  0
 11 28  1  0  0  0  0
 15 29  1  0  0  0  0
M  END
> <Catalog ID>
Z858031338

> <PlateID>
1337959-R-01

> <Well>
E10

> <MW (desalted)>
240.683

> <CLogP>
1.749

> <HBD>
1

> <TPSA>
46.530

> <RotBonds>
2

> <ROCS_ShapeQuery>
x0446_0A_x1080_0A_x0929_0A_x0812_0A_x0719_0A_x1140_0A_x0528_0A_x0310_0A

> <ROCS_TanimotoCombo>
0.318 

> <ROCS_ShapeTanimoto>
0.203 

> <ROCS_ColorTanimoto>
0.114 

> <ROCS_RefTversky>
0.187 

> <ROCS_RefColorTversky>
0.124 

> <ROCS_RefTverskyCombo>
0.312 

> <ROCS_FitTversky>
1.716 

> <ROCS_FitColorTversky>
0.585 

> <ROCS_FitTverskyCombo>
2.301 

> <ROCS_ColorScore>
-4.429

> <ROCS_Overlap>
2211.265

> <ROCS_Rank>
211                 

$$$$
untitled-dbase-325_26
  -OEChem-02082415003D

 27 28  0     0  0  0  0  0  0999 V2000
   10.0119   15.6877   21.7778 C   0  0  0  0  0  0  0  0  0  0  0  0
    7.2973   11.1787   24.4972 C   0  0  0  0  0  0  0  0  0  0  0  0
    7.6990    9.8614   24.7180 C   0  0  0  0  0  0  0  0  0  0  0  0
    8.0749   12.0211   23.7026 C   0  0  0  0  0  0  0  0  0  0  0  0
    8.8784    9.3864   24.1444 C   0  0  0  0  0  0  0  0  0  0  0  0
   11.3075   15.3958   22.2754 C   0  0  0  0  0  0  0  0  0  0  0  0
    9.2543   11.5462   23.1290 C   0  0  0  0  0  0  0  0  0  0  0  0
    9.6561   10.2288   23.3499 C   0  0  0  0  0  0  0  0  0  0  0  0
   11.7893   14.2118   22.7760 C   0  0  0  0  0  0  0  0  0  0  0  0
   13.3152   15.7105   22.8170 C   0  0  0  0  0  0  0  0  0  0  0  0
   14.6681   16.2169   23.0947 C   0  0  0  0  0  0  0  0  0  0  0  0
   10.0601   12.4811   22.2859 C   0  0  0  0  0  0  0  0  0  0  0  0
    8.9518   15.9266   21.3706 N   0  0  0  0  0  0  0  0  0  0  0  0
   12.2898   16.3525   22.3045 N   0  0  0  0  0  0  0  0  0  0  0  0
   11.2365   12.9533   22.9684 N   0  0  0  0  0  0  0  0  0  0  0  0
   13.0904   14.4050   23.1301 O   0  0  0  0  0  0  0  0  0  0  0  0
   11.1089    9.6058   22.6567 Cl  0  0  0  0  0  0  0  0  0  0  0  0
    6.3784   11.5482   24.9433 H   0  0  0  0  0  0  0  0  0  0  0  0
    7.0926    9.2054   25.3358 H   0  0  0  0  0  0  0  0  0  0  0  0
    7.7525   13.0458   23.5365 H   0  0  0  0  0  0  0  0  0  0  0  0
    9.1768    8.3569   24.3253 H   0  0  0  0  0  0  0  0  0  0  0  0
   14.7402   16.6333   24.1148 H   0  0  0  0  0  0  0  0  0  0  0  0
   15.4373   15.4284   23.0041 H   0  0  0  0  0  0  0  0  0  0  0  0
   14.9700   17.0132   22.3900 H   0  0  0  0  0  0  0  0  0  0  0  0
   10.3874   11.9915   21.3594 H   0  0  0  0  0  0  0  0  0  0  0  0
    9.4735   13.3611   21.9925 H   0  0  0  0  0  0  0  0  0  0  0  0
   11.6905   12.3318   23.6314 H   0  0  0  0  0  0  0  0  0  0  0  0
  1  6  1  0  0  0  0
  1 13  3  0  0  0  0
  2  3  2  0  0  0  0
  2  4  1  0  0  0  0
  3  5  1  0  0  0  0
  4  7  2  0  0  0  0
  5  8  2  0  0  0  0
  6  9  2  0  0  0  0
  6 14  1  0  0  0  0
  7  8  1  0  0  0  0
  7 12  1  0  0  0  0
  8 17  1  0  0  0  0
  9 15  1  0  0  0  0
  9 16  1  0  0  0  0
 10 11  1  0  0  0  0
 10 14  2  0  0  0  0
 10 16  1  0  0  0  0
 12 15  1  0  0  0  0
  2 18  1  0  0  0  0
  3 19  1  0  0  0  0
  4 20  1  0  0  0  0
  5 21  1  0  0  0  0
 11 22  1  0  0  0  0
 11 23  1  0  0  0  0
 11 24  1  0  0  0  0
 12 25  1  0  0  0  0
 12 26  1  0  0  0  0
 15 27  1  0  0  0  0
M  END
> <Catalog ID>
Z1213736605

> <PlateID>
1337959-R-07

> <Well>
H07

> <MW (desalted)>
247.680

> <CLogP>
2.659

> <HBD>
1

> <TPSA>
61.850

> <RotBonds>
3

> <ROCS_ShapeQuery>
x0446_0A_x1080_0A_x0929_0A_x0812_0A_x0719_0A_x1140_0A_x0528_0A_x0310_0A

> <ROCS_TanimotoCombo>
0.317 

> <ROCS_ShapeTanimoto>
0.201 

> <ROCS_ColorTanimoto>
0.116 

> <ROCS_RefTversky>
0.187 

> <ROCS_RefColorTversky>
0.123 

> <ROCS_RefTverskyCombo>
0.310 

> <ROCS_FitTversky>
1.647 

> <ROCS_FitColorTversky>
0.664 

> <ROCS_FitTverskyCombo>
2.311 

> <ROCS_ColorScore>
-4.391

> <ROCS_Overlap>
2201.580

> <ROCS_Rank>
212                 

$$$$
untitled-dbase-321_4
  -OEChem-02082415003D

 29 29  0     1  0  0  0  0  0999 V2000
    8.6411   10.3428   23.8135 C   0  0  0  0  0  0  0  0  0  0  0  0
    9.4891   13.0958   23.5971 C   0  0  0  0  0  0  0  0  0  0  0  0
   10.0946   10.6697   23.5253 C   0  0  2  0  0  0  0  0  0  0  0  0
    8.4745   12.6806   24.6514 C   0  0  1  0  0  0  0  0  0  0  0  0
   10.9859   10.4248   24.7330 C   0  0  0  0  0  0  0  0  0  0  0  0
    6.3630   13.3921   22.5352 C   0  0  0  0  0  0  0  0  0  0  0  0
    7.9173   14.8339   25.7986 C   0  0  0  0  0  0  0  0  0  0  0  0
    6.9561   14.3884   23.5213 C   0  0  0  0  0  0  0  0  0  0  0  0
    7.4051   13.7453   24.8484 C   0  0  1  0  0  0  0  0  0  0  0  0
   10.1768   12.0358   23.0345 N   0  0  0  0  0  0  0  0  0  0  0  0
    7.8828   11.4201   24.2311 N   0  0  0  0  0  0  0  0  0  0  0  0
    8.2117    9.1911   23.7686 O   0  0  0  0  0  0  0  0  0  0  0  0
    9.7546   14.2701   23.3478 O   0  0  0  0  0  0  0  0  0  0  0  0
   10.4190   10.0315   22.6954 H   0  0  0  0  0  0  0  0  0  0  0  0
    9.0012   12.5097   25.5958 H   0  0  0  0  0  0  0  0  0  0  0  0
   10.6716   11.0556   25.5659 H   0  0  0  0  0  0  0  0  0  0  0  0
   12.0231   10.6577   24.4877 H   0  0  0  0  0  0  0  0  0  0  0  0
   10.9233    9.3798   25.0403 H   0  0  0  0  0  0  0  0  0  0  0  0
    5.5155   12.8714   22.9929 H   0  0  0  0  0  0  0  0  0  0  0  0
    7.1031   12.6411   22.2413 H   0  0  0  0  0  0  0  0  0  0  0  0
    5.9954   13.8896   21.6332 H   0  0  0  0  0  0  0  0  0  0  0  0
    8.7952   15.3404   25.3832 H   0  0  0  0  0  0  0  0  0  0  0  0
    8.2003   14.4025   26.7647 H   0  0  0  0  0  0  0  0  0  0  0  0
    7.1464   15.5891   25.9849 H   0  0  0  0  0  0  0  0  0  0  0  0
    7.8025   14.9005   23.0476 H   0  0  0  0  0  0  0  0  0  0  0  0
    6.1992   15.1554   23.7275 H   0  0  0  0  0  0  0  0  0  0  0  0
    6.5288   13.2784   25.3213 H   0  0  0  0  0  0  0  0  0  0  0  0
   10.7726   12.2222   22.2337 H   0  0  0  0  0  0  0  0  0  0  0  0
    6.8714   11.3279   24.2451 H   0  0  0  0  0  0  0  0  0  0  0  0
  1  3  1  0  0  0  0
  1 11  1  0  0  0  0
  1 12  2  0  0  0  0
  2  4  1  0  0  0  0
  2 10  1  0  0  0  0
  2 13  2  0  0  0  0
  3  5  1  6  0  0  0
  3 10  1  0  0  0  0
  4  9  1  1  0  0  0
  4 11  1  0  0  0  0
  6  8  1  0  0  0  0
  7  9  1  6  0  0  0
  8  9  1  0  0  0  0
  3 14  1  0  0  0  0
  4 15  1  0  0  0  0
  5 16  1  0  0  0  0
  5 17  1  0  0  0  0
  5 18  1  0  0  0  0
  6 19  1  0  0  0  0
  6 20  1  0  0  0  0
  6 21  1  0  0  0  0
  7 22  1  0  0  0  0
  7 23  1  0  0  0  0
  7 24  1  0  0  0  0
  8 25  1  0  0  0  0
  8 26  1  0  0  0  0
  9 27  1  0  0  0  0
 10 28  1  0  0  0  0
 11 29  1  0  0  0  0
M  END
> <Catalog ID>
Z3773487079

> <PlateID>
1337959-R-07

> <Well>
G07

> <MW (desalted)>
184.236

> <CLogP>
0.771

> <HBD>
2

> <TPSA>
58.200

> <RotBonds>
2

> <ROCS_ShapeQuery>
x0446_0A_x1080_0A_x0929_0A_x0812_0A_x0719_0A_x1140_0A_x0528_0A_x0310_0A

> <ROCS_TanimotoCombo>
0.317 

> <ROCS_ShapeTanimoto>
0.190 

> <ROCS_ColorTanimoto>
0.127 

> <ROCS_RefTversky>
0.175 

> <ROCS_RefColorTversky>
0.140 

> <ROCS_RefTverskyCombo>
0.315 

> <ROCS_FitTversky>
1.806 

> <ROCS_FitColorTversky>
0.587 

> <ROCS_FitTverskyCombo>
2.393 

> <ROCS_ColorScore>
-4.997

> <ROCS_Overlap>
2064.888

> <ROCS_Rank>
213                 

$$$$
untitled-dbase-335_28
  -OEChem-02082415003D

 37 38  0     0  0  0  0  0  0999 V2000
    7.8760   13.2441   23.8736 C   0  0  0  0  0  0  0  0  0  0  0  0
    6.7368   13.0272   24.5263 C   0  0  0  0  0  0  0  0  0  0  0  0
    8.6386   12.0459   23.5192 C   0  0  0  0  0  0  0  0  0  0  0  0
    6.3039   11.6484   24.8543 C   0  0  0  0  0  0  0  0  0  0  0  0
    9.9075   12.2633   22.7933 C   0  0  0  0  0  0  0  0  0  0  0  0
   12.3486   15.0587   20.7123 C   0  0  0  0  0  0  0  0  0  0  0  0
   12.4057   16.0356   21.8900 C   0  0  0  0  0  0  0  0  0  0  0  0
   11.5942   13.8321   21.2183 C   0  0  0  0  0  0  0  0  0  0  0  0
   11.6840   15.3463   23.0450 C   0  0  0  0  0  0  0  0  0  0  0  0
   11.8260   13.8633   22.7241 C   0  0  0  0  0  0  0  0  0  0  0  0
   11.9226   11.9877   25.3981 C   0  0  0  0  0  0  0  0  0  0  0  0
    6.7545    9.2531   24.7496 C   0  0  0  0  0  0  0  0  0  0  0  0
   10.9932   13.0508   24.9199 C   0  0  0  0  0  0  0  0  0  0  0  0
    8.3180   10.8243   23.7744 N   0  0  0  0  0  0  0  0  0  0  0  0
    7.1438   10.6196   24.4464 N   0  0  0  0  0  0  0  0  0  0  0  0
   10.8815   13.0377   23.4551 N   0  0  0  0  0  0  0  0  0  0  0  0
    5.2429   11.4952   25.4591 O   0  0  0  0  0  0  0  0  0  0  0  0
   10.0208   11.7684   21.6711 O   0  0  0  0  0  0  0  0  0  0  0  0
    8.2269   14.2337   23.6158 H   0  0  0  0  0  0  0  0  0  0  0  0
    6.0995   13.8485   24.8334 H   0  0  0  0  0  0  0  0  0  0  0  0
   11.8535   15.4990   19.8409 H   0  0  0  0  0  0  0  0  0  0  0  0
   13.3653   14.7831   20.4091 H   0  0  0  0  0  0  0  0  0  0  0  0
   13.4500   16.2347   22.1570 H   0  0  0  0  0  0  0  0  0  0  0  0
   11.9406   16.9959   21.6456 H   0  0  0  0  0  0  0  0  0  0  0  0
   10.5272   13.9358   20.9834 H   0  0  0  0  0  0  0  0  0  0  0  0
   11.9555   12.9083   20.7559 H   0  0  0  0  0  0  0  0  0  0  0  0
   12.1149   15.6112   24.0155 H   0  0  0  0  0  0  0  0  0  0  0  0
   10.6291   15.6484   23.0473 H   0  0  0  0  0  0  0  0  0  0  0  0
   12.8288   13.5092   22.9718 H   0  0  0  0  0  0  0  0  0  0  0  0
   12.9205   12.1503   24.9648 H   0  0  0  0  0  0  0  0  0  0  0  0
   11.9890   12.0252   26.4954 H   0  0  0  0  0  0  0  0  0  0  0  0
   11.5440   11.0028   25.0871 H   0  0  0  0  0  0  0  0  0  0  0  0
    6.1491    8.8518   23.9234 H   0  0  0  0  0  0  0  0  0  0  0  0
    7.6554    8.6351   24.8777 H   0  0  0  0  0  0  0  0  0  0  0  0
    6.1642    9.2375   25.6777 H   0  0  0  0  0  0  0  0  0  0  0  0
    9.9983   12.8812   25.3574 H   0  0  0  0  0  0  0  0  0  0  0  0
   11.3732   14.0315   25.2423 H   0  0  0  0  0  0  0  0  0  0  0  0
  1  2  2  0  0  0  0
  1  3  1  0  0  0  0
  2  4  1  0  0  0  0
  3  5  1  0  0  0  0
  3 14  2  0  0  0  0
  4 15  1  0  0  0  0
  4 17  2  0  0  0  0
  5 16  1  0  0  0  0
  5 18  2  0  0  0  0
  6  7  1  0  0  0  0
  6  8  1  0  0  0  0
  7  9  1  0  0  0  0
  8 10  1  0  0  0  0
  9 10  1  0  0  0  0
 10 16  1  0  0  0  0
 11 13  1  0  0  0  0
 12 15  1  0  0  0  0
 13 16  1  0  0  0  0
 14 15  1  0  0  0  0
  1 19  1  0  0  0  0
  2 20  1  0  0  0  0
  6 21  1  0  0  0  0
  6 22  1  0  0  0  0
  7 23  1  0  0  0  0
  7 24  1  0  0  0  0
  8 25  1  0  0  0  0
  8 26  1  0  0  0  0
  9 27  1  0  0  0  0
  9 28  1  0  0  0  0
 10 29  1  0  0  0  0
 11 30  1  0  0  0  0
 11 31  1  0  0  0  0
 11 32  1  0  0  0  0
 12 33  1  0  0  0  0
 12 34  1  0  0  0  0
 12 35  1  0  0  0  0
 13 36  1  0  0  0  0
 13 37  1  0  0  0  0
M  END
> <Catalog ID>
Z345436292

> <PlateID>
1337959-R-08

> <Well>
B04

> <MW (desalted)>
249.309

> <CLogP>
-0.050

> <HBD>
0

> <TPSA>
52.980

> <RotBonds>
3

> <ROCS_ShapeQuery>
x0446_0A_x1080_0A_x0929_0A_x0812_0A_x0719_0A_x1140_0A_x0528_0A_x0310_0A

> <ROCS_TanimotoCombo>
0.317 

> <ROCS_ShapeTanimoto>
0.211 

> <ROCS_ColorTanimoto>
0.107 

> <ROCS_RefTversky>
0.194 

> <ROCS_RefColorTversky>
0.114 

> <ROCS_RefTverskyCombo>
0.309 

> <ROCS_FitTversky>
1.667 

> <ROCS_FitColorTversky>
0.615 

> <ROCS_FitTverskyCombo>
2.281 

> <ROCS_ColorScore>
-4.063

> <ROCS_Overlap>
2293.971

> <ROCS_Rank>
214                 

$$$$
untitled-dbase-278_1
  -OEChem-02082415003D

 32 34  0     1  0  0  0  0  0999 V2000
    6.2707   11.8351   25.2786 C   0  0  0  0  0  0  0  0  0  0  0  0
    7.2733   12.9107   24.8909 C   0  0  0  0  0  0  0  0  0  0  0  0
    6.9478   10.5639   24.7912 C   0  0  0  0  0  0  0  0  0  0  0  0
    9.7330   14.1264   23.5895 C   0  0  0  0  0  0  0  0  0  0  0  0
    9.2526   12.8552   21.4930 C   0  0  0  0  0  0  0  0  0  0  0  0
    9.8746   11.5878   23.6044 C   0  0  0  0  0  0  0  0  0  0  0  0
    9.1149   15.3439   22.9138 C   0  0  0  0  0  0  0  0  0  0  0  0
    8.7034   14.1556   20.9092 C   0  0  0  0  0  0  0  0  0  0  0  0
    7.6930   12.5092   23.4710 C   0  0  2  0  0  0  0  0  0  0  0  0
    7.6102   10.9684   23.4710 C   0  0  1  0  0  0  0  0  0  0  0  0
    9.1422   12.8157   23.0430 C   0  0  0  0  0  0  0  0  0  0  0  0
    8.9802   10.4471   23.3517 N   0  0  0  0  0  0  0  0  0  0  0  0
    9.3268   15.2906   21.5046 O   0  0  0  0  0  0  0  0  0  0  0  0
    6.0747   11.8158   26.3542 H   0  0  0  0  0  0  0  0  0  0  0  0
    5.3198   11.9891   24.7552 H   0  0  0  0  0  0  0  0  0  0  0  0
    6.8348   13.9128   24.9197 H   0  0  0  0  0  0  0  0  0  0  0  0
    8.1150   12.8885   25.5921 H   0  0  0  0  0  0  0  0  0  0  0  0
    7.6916   10.2386   25.5300 H   0  0  0  0  0  0  0  0  0  0  0  0
    6.2386    9.7408   24.6591 H   0  0  0  0  0  0  0  0  0  0  0  0
   10.8187   14.1649   23.4621 H   0  0  0  0  0  0  0  0  0  0  0  0
    9.5258   14.1809   24.6650 H   0  0  0  0  0  0  0  0  0  0  0  0
    8.6564   12.0291   21.0849 H   0  0  0  0  0  0  0  0  0  0  0  0
   10.2800   12.7055   21.1481 H   0  0  0  0  0  0  0  0  0  0  0  0
   10.8534   11.4133   23.1480 H   0  0  0  0  0  0  0  0  0  0  0  0
   10.0347   11.6769   24.6857 H   0  0  0  0  0  0  0  0  0  0  0  0
    8.0351   15.3523   23.0843 H   0  0  0  0  0  0  0  0  0  0  0  0
    9.5199   16.2791   23.3116 H   0  0  0  0  0  0  0  0  0  0  0  0
    8.8248   14.1990   19.8202 H   0  0  0  0  0  0  0  0  0  0  0  0
    7.6288   14.2241   21.1143 H   0  0  0  0  0  0  0  0  0  0  0  0
    6.9701   12.9230   22.7595 H   0  0  0  0  0  0  0  0  0  0  0  0
    7.0071   10.6186   22.6242 H   0  0  0  0  0  0  0  0  0  0  0  0
    9.1227   10.1359   22.3908 H   0  0  0  0  0  0  0  0  0  0  0  0
  1  2  1  0  0  0  0
  1  3  1  0  0  0  0
  2  9  1  6  0  0  0
  3 10  1  0  0  0  0
  4  7  1  0  0  0  0
  4 11  1  0  0  0  0
  5  8  1  0  0  0  0
  5 11  1  0  0  0  0
  6 11  1  0  0  0  0
  6 12  1  0  0  0  0
  7 13  1  0  0  0  0
  8 13  1  0  0  0  0
  9 10  1  0  0  0  0
  9 11  1  0  0  0  0
 10 12  1  6  0  0  0
  1 14  1  0  0  0  0
  1 15  1  0  0  0  0
  2 16  1  0  0  0  0
  2 17  1  0  0  0  0
  3 18  1  0  0  0  0
  3 19  1  0  0  0  0
  4 20  1  0  0  0  0
  4 21  1  0  0  0  0
  5 22  1  0  0  0  0
  5 23  1  0  0  0  0
  6 24  1  0  0  0  0
  6 25  1  0  0  0  0
  7 26  1  0  0  0  0
  7 27  1  0  0  0  0
  8 28  1  0  0  0  0
  8 29  1  0  0  0  0
  9 30  1  0  0  0  0
 10 31  1  0  0  0  0
 12 32  1  0  0  0  0
M  END
> <Catalog ID>
Z2235790958

> <PlateID>
1337959-R-06

> <Well>
G10

> <MW (desalted)>
181.275

> <CLogP>
0.841

> <HBD>
1

> <TPSA>
21.260

> <RotBonds>
0

> <ROCS_ShapeQuery>
x0446_0A_x1080_0A_x0929_0A_x0812_0A_x0719_0A_x1140_0A_x0528_0A_x0310_0A

> <ROCS_TanimotoCombo>
0.317 

> <ROCS_ShapeTanimoto>
0.183 

> <ROCS_ColorTanimoto>
0.133 

> <ROCS_RefTversky>
0.170 

> <ROCS_RefColorTversky>
0.143 

> <ROCS_RefTverskyCombo>
0.313 

> <ROCS_FitTversky>
1.725 

> <ROCS_FitColorTversky>
0.667 

> <ROCS_FitTverskyCombo>
2.392 

> <ROCS_ColorScore>
-5.096

> <ROCS_Overlap>
2007.652

> <ROCS_Rank>
215                 

$$$$
untitled-dbase-218_10
  -OEChem-02082415003D

 30 30  0     0  0  0  0  0  0999 V2000
    6.8705   12.0836   25.4579 C   0  0  0  0  0  0  0  0  0  0  0  0
    8.0745   12.5157   24.9017 C   0  0  0  0  0  0  0  0  0  0  0  0
    5.6927   12.8219   23.4819 C   0  0  0  0  0  0  0  0  0  0  0  0
    5.6796   12.2366   24.7479 C   0  0  0  0  0  0  0  0  0  0  0  0
    6.8966   13.2541   22.9257 C   0  0  0  0  0  0  0  0  0  0  0  0
    8.0875   13.1010   23.6357 C   0  0  0  0  0  0  0  0  0  0  0  0
    4.3923   11.7744   25.3432 C   0  0  0  0  0  0  0  0  0  0  0  0
    6.8763   13.8760   21.5677 C   0  0  0  0  0  0  0  0  0  0  0  0
   10.9815   11.2436   22.8323 C   0  0  0  0  0  0  0  0  0  0  0  0
   10.2914    9.8922   22.7970 C   0  0  0  0  0  0  0  0  0  0  0  0
   10.1529   12.2387   22.1367 N   0  0  0  0  0  0  0  0  0  0  0  0
    9.3579   14.6851   21.9964 O   0  0  0  0  0  0  0  0  0  0  0  0
   10.5177   13.8882   24.0807 O   0  0  0  0  0  0  0  0  0  0  0  0
    9.0436    9.9814   23.4731 O   0  0  0  0  0  0  0  0  0  0  0  0
    9.6156   13.6312   22.9675 S   0  0  0  0  0  0  0  0  0  0  0  0
    6.8696   11.6289   26.4449 H   0  0  0  0  0  0  0  0  0  0  0  0
    8.9956   12.3911   25.4647 H   0  0  0  0  0  0  0  0  0  0  0  0
    4.7629   12.9401   22.9301 H   0  0  0  0  0  0  0  0  0  0  0  0
    3.9277   12.5819   25.9220 H   0  0  0  0  0  0  0  0  0  0  0  0
    3.6870   11.4527   24.5661 H   0  0  0  0  0  0  0  0  0  0  0  0
    4.5471   10.9143   26.0076 H   0  0  0  0  0  0  0  0  0  0  0  0
    6.7355   14.9599   21.6487 H   0  0  0  0  0  0  0  0  0  0  0  0
    7.8128   13.6840   21.0300 H   0  0  0  0  0  0  0  0  0  0  0  0
    6.0656   13.4627   20.9550 H   0  0  0  0  0  0  0  0  0  0  0  0
   11.1350   11.5840   23.8612 H   0  0  0  0  0  0  0  0  0  0  0  0
   11.9492   11.1904   22.3243 H   0  0  0  0  0  0  0  0  0  0  0  0
   10.9028    9.1456   23.3133 H   0  0  0  0  0  0  0  0  0  0  0  0
   10.1122    9.5584   21.7697 H   0  0  0  0  0  0  0  0  0  0  0  0
   10.2643   12.2840   21.1165 H   0  0  0  0  0  0  0  0  0  0  0  0
    8.6375    9.1009   23.4275 H   0  0  0  0  0  0  0  0  0  0  0  0
  1  2  1  0  0  0  0
  1  4  2  0  0  0  0
  2  6  2  0  0  0  0
  3  4  1  0  0  0  0
  3  5  2  0  0  0  0
  4  7  1  0  0  0  0
  5  6  1  0  0  0  0
  5  8  1  0  0  0  0
  6 15  1  0  0  0  0
  9 10  1  0  0  0  0
  9 11  1  0  0  0  0
 10 14  1  0  0  0  0
 11 15  1  0  0  0  0
 12 15  2  0  0  0  0
 13 15  2  0  0  0  0
  1 16  1  0  0  0  0
  2 17  1  0  0  0  0
  3 18  1  0  0  0  0
  7 19  1  0  0  0  0
  7 20  1  0  0  0  0
  7 21  1  0  0  0  0
  8 22  1  0  0  0  0
  8 23  1  0  0  0  0
  8 24  1  0  0  0  0
  9 25  1  0  0  0  0
  9 26  1  0  0  0  0
 10 27  1  0  0  0  0
 10 28  1  0  0  0  0
 11 29  1  0  0  0  0
 14 30  1  0  0  0  0
M  END
> <Catalog ID>
Z425750180

> <PlateID>
1337959-R-05

> <Well>
C11

> <MW (desalted)>
229.296

> <CLogP>
1.342

> <HBD>
2

> <TPSA>
66.400

> <RotBonds>
3

> <ROCS_ShapeQuery>
x0446_0A_x1080_0A_x0929_0A_x0812_0A_x0719_0A_x1140_0A_x0528_0A_x0310_0A

> <ROCS_TanimotoCombo>
0.317 

> <ROCS_ShapeTanimoto>
0.181 

> <ROCS_ColorTanimoto>
0.136 

> <ROCS_RefTversky>
0.169 

> <ROCS_RefColorTversky>
0.145 

> <ROCS_RefTverskyCombo>
0.314 

> <ROCS_FitTversky>
1.655 

> <ROCS_FitColorTversky>
0.682 

> <ROCS_FitTverskyCombo>
2.337 

> <ROCS_ColorScore>
-5.159

> <ROCS_Overlap>
1993.997

> <ROCS_Rank>
216                 

$$$$
untitled-dbase-390_1
  -OEChem-02082415003D

 34 36  0     0  0  0  0  0  0999 V2000
   11.7697   13.3216   20.6806 C   0  0  0  0  0  0  0  0  0  0  0  0
    7.2650    9.6720   24.5561 C   0  0  0  0  0  0  0  0  0  0  0  0
    8.5693    9.1516   24.5923 C   0  0  0  0  0  0  0  0  0  0  0  0
    7.0117   10.9231   23.9893 C   0  0  0  0  0  0  0  0  0  0  0  0
    9.6405    9.8744   24.0627 C   0  0  0  0  0  0  0  0  0  0  0  0
    8.0792   11.6315   23.4671 C   0  0  0  0  0  0  0  0  0  0  0  0
    9.3796   11.1128   23.5035 C   0  0  0  0  0  0  0  0  0  0  0  0
    9.9032   14.3556   21.8391 C   0  0  0  0  0  0  0  0  0  0  0  0
    8.0738   12.9731   22.8142 C   0  0  0  0  0  0  0  0  0  0  0  0
   10.3388   12.0707   22.8780 C   0  0  0  0  0  0  0  0  0  0  0  0
   13.0686   15.6358   22.8563 C   0  0  0  0  0  0  0  0  0  0  0  0
   12.2937   16.6420   22.0268 C   0  0  0  0  0  0  0  0  0  0  0  0
   12.1560   14.4134   22.8865 C   0  0  0  0  0  0  0  0  0  0  0  0
   11.7232   15.7911   20.8991 C   0  0  0  0  0  0  0  0  0  0  0  0
   11.3812   14.4395   21.5541 C   0  0  0  0  0  0  0  0  0  0  0  0
   12.0760   12.4398   19.9915 N   0  0  0  0  0  0  0  0  0  0  0  0
    9.4834   13.1977   22.4713 N   0  0  0  0  0  0  0  0  0  0  0  0
    9.1506   15.2762   21.5167 O   0  0  0  0  0  0  0  0  0  0  0  0
    6.4453    9.0935   24.9738 H   0  0  0  0  0  0  0  0  0  0  0  0
    8.7450    8.1760   25.0378 H   0  0  0  0  0  0  0  0  0  0  0  0
    6.0040   11.3230   23.9621 H   0  0  0  0  0  0  0  0  0  0  0  0
   10.6468    9.4711   24.0917 H   0  0  0  0  0  0  0  0  0  0  0  0
    7.4794   12.9856   21.8956 H   0  0  0  0  0  0  0  0  0  0  0  0
    7.7442   13.7645   23.4940 H   0  0  0  0  0  0  0  0  0  0  0  0
   11.0853   12.4275   23.5932 H   0  0  0  0  0  0  0  0  0  0  0  0
   10.8194   11.6477   21.9913 H   0  0  0  0  0  0  0  0  0  0  0  0
   14.0505   15.4084   22.4271 H   0  0  0  0  0  0  0  0  0  0  0  0
   13.2229   16.0179   23.8742 H   0  0  0  0  0  0  0  0  0  0  0  0
   11.5135   17.1449   22.6030 H   0  0  0  0  0  0  0  0  0  0  0  0
   12.9698   17.4031   21.6226 H   0  0  0  0  0  0  0  0  0  0  0  0
   12.7769   13.5093   22.9667 H   0  0  0  0  0  0  0  0  0  0  0  0
   11.5110   14.4357   23.7739 H   0  0  0  0  0  0  0  0  0  0  0  0
   10.8263   16.2831   20.5050 H   0  0  0  0  0  0  0  0  0  0  0  0
   12.4375   15.7093   20.0741 H   0  0  0  0  0  0  0  0  0  0  0  0
  1 15  1  0  0  0  0
  1 16  3  0  0  0  0
  2  3  2  0  0  0  0
  2  4  1  0  0  0  0
  3  5  1  0  0  0  0
  4  6  2  0  0  0  0
  5  7  2  0  0  0  0
  6  7  1  0  0  0  0
  6  9  1  0  0  0  0
  7 10  1  0  0  0  0
  8 15  1  0  0  0  0
  8 17  1  0  0  0  0
  8 18  2  0  0  0  0
  9 17  1  0  0  0  0
 10 17  1  0  0  0  0
 11 12  1  0  0  0  0
 11 13  1  0  0  0  0
 12 14  1  0  0  0  0
 13 15  1  0  0  0  0
 14 15  1  0  0  0  0
  2 19  1  0  0  0  0
  3 20  1  0  0  0  0
  4 21  1  0  0  0  0
  5 22  1  0  0  0  0
  9 23  1  0  0  0  0
  9 24  1  0  0  0  0
 10 25  1  0  0  0  0
 10 26  1  0  0  0  0
 11 27  1  0  0  0  0
 11 28  1  0  0  0  0
 12 29  1  0  0  0  0
 12 30  1  0  0  0  0
 13 31  1  0  0  0  0
 13 32  1  0  0  0  0
 14 33  1  0  0  0  0
 14 34  1  0  0  0  0
M  END
> <Catalog ID>
Z963454974

> <PlateID>
1337959-R-09

> <Well>
D04

> <MW (desalted)>
240.300

> <CLogP>
1.395

> <HBD>
0

> <TPSA>
44.100

> <RotBonds>
1

> <ROCS_ShapeQuery>
x0446_0A_x1080_0A_x0929_0A_x0812_0A_x0719_0A_x1140_0A_x0528_0A_x0310_0A

> <ROCS_TanimotoCombo>
0.317 

> <ROCS_ShapeTanimoto>
0.205 

> <ROCS_ColorTanimoto>
0.111 

> <ROCS_RefTversky>
0.190 

> <ROCS_RefColorTversky>
0.119 

> <ROCS_RefTverskyCombo>
0.309 

> <ROCS_FitTversky>
1.610 

> <ROCS_FitColorTversky>
0.639 

> <ROCS_FitTverskyCombo>
2.249 

> <ROCS_ColorScore>
-4.234

> <ROCS_Overlap>
2247.089

> <ROCS_Rank>
217                 

$$$$
untitled-dbase-219_15
  -OEChem-02082415003D

 36 38  0     0  0  0  0  0  0999 V2000
    8.6872    9.9650   23.9505 C   0  0  0  0  0  0  0  0  0  0  0  0
    7.5608   10.7864   24.0329 C   0  0  0  0  0  0  0  0  0  0  0  0
    8.9391   12.7782   23.7986 C   0  0  0  0  0  0  0  0  0  0  0  0
    9.9242   10.5634   23.7801 C   0  0  0  0  0  0  0  0  0  0  0  0
   10.0489   11.9557   23.7053 C   0  0  0  0  0  0  0  0  0  0  0  0
    7.6858   12.1828   23.9574 C   0  0  0  0  0  0  0  0  0  0  0  0
   11.2647    9.9035   23.7036 C   0  0  0  0  0  0  0  0  0  0  0  0
   11.4844   12.3558   23.5732 C   0  0  0  0  0  0  0  0  0  0  0  0
   12.1198   11.0350   23.1134 C   0  0  0  0  0  0  0  0  0  0  0  0
    4.4184   15.3228   22.1201 C   0  0  0  0  0  0  0  0  0  0  0  0
    3.3414   13.1670   22.2681 C   0  0  0  0  0  0  0  0  0  0  0  0
    5.7612   14.6601   21.8298 C   0  0  0  0  0  0  0  0  0  0  0  0
    4.6618   12.4595   21.9810 C   0  0  0  0  0  0  0  0  0  0  0  0
    3.3065   14.4940   21.6501 N   0  0  0  0  0  0  0  0  0  0  0  0
    5.8077   13.2980   22.4305 N   0  0  0  0  0  0  0  0  0  0  0  0
    5.2349   12.4427   24.7933 O   0  0  0  0  0  0  0  0  0  0  0  0
    6.6599   14.5050   24.5402 O   0  0  0  0  0  0  0  0  0  0  0  0
    6.2595   13.1853   24.0735 S   0  0  0  0  0  0  0  0  0  0  0  0
    8.5897    8.8870   24.0205 H   0  0  0  0  0  0  0  0  0  0  0  0
    6.5819   10.3316   24.1631 H   0  0  0  0  0  0  0  0  0  0  0  0
    9.0465   13.8572   23.7512 H   0  0  0  0  0  0  0  0  0  0  0  0
   11.6079    9.6298   24.7065 H   0  0  0  0  0  0  0  0  0  0  0  0
   11.2632    9.0241   23.0537 H   0  0  0  0  0  0  0  0  0  0  0  0
   11.6334   13.1483   22.8342 H   0  0  0  0  0  0  0  0  0  0  0  0
   11.8796   12.6682   24.5452 H   0  0  0  0  0  0  0  0  0  0  0  0
   13.1733   10.9560   23.4000 H   0  0  0  0  0  0  0  0  0  0  0  0
   12.0787   10.9806   22.0164 H   0  0  0  0  0  0  0  0  0  0  0  0
    4.3128   15.4838   23.1983 H   0  0  0  0  0  0  0  0  0  0  0  0
    4.3670   16.3100   21.6449 H   0  0  0  0  0  0  0  0  0  0  0  0
    2.4981   12.5691   21.9016 H   0  0  0  0  0  0  0  0  0  0  0  0
    3.2085   13.2735   23.3500 H   0  0  0  0  0  0  0  0  0  0  0  0
    5.8922   14.5810   20.7411 H   0  0  0  0  0  0  0  0  0  0  0  0
    6.5894   15.2671   22.2264 H   0  0  0  0  0  0  0  0  0  0  0  0
    4.6985   11.4824   22.4865 H   0  0  0  0  0  0  0  0  0  0  0  0
    4.7442   12.2828   20.8990 H   0  0  0  0  0  0  0  0  0  0  0  0
    2.4270   14.9505   21.8982 H   0  0  0  0  0  0  0  0  0  0  0  0
  1  2  1  0  0  0  0
  1  4  2  0  0  0  0
  2  6  2  0  0  0  0
  3  5  2  0  0  0  0
  3  6  1  0  0  0  0
  4  5  1  0  0  0  0
  4  7  1  0  0  0  0
  5  8  1  0  0  0  0
  6 18  1  0  0  0  0
  7  9  1  0  0  0  0
  8  9  1  0  0  0  0
 10 12  1  0  0  0  0
 10 14  1  0  0  0  0
 11 13  1  0  0  0  0
 11 14  1  0  0  0  0
 12 15  1  0  0  0  0
 13 15  1  0  0  0  0
 15 18  1  0  0  0  0
 16 18  2  0  0  0  0
 17 18  2  0  0  0  0
  1 19  1  0  0  0  0
  2 20  1  0  0  0  0
  3 21  1  0  0  0  0
  7 22  1  0  0  0  0
  7 23  1  0  0  0  0
  8 24  1  0  0  0  0
  8 25  1  0  0  0  0
  9 26  1  0  0  0  0
  9 27  1  0  0  0  0
 10 28  1  0  0  0  0
 10 29  1  0  0  0  0
 11 30  1  0  0  0  0
 11 31  1  0  0  0  0
 12 32  1  0  0  0  0
 12 33  1  0  0  0  0
 13 34  1  0  0  0  0
 13 35  1  0  0  0  0
 14 36  1  0  0  0  0
M  END
> <Catalog ID>
Z1491220456

> <PlateID>
1337959-R-05

> <Well>
D03

> <MW (desalted)>
266.359

> <CLogP>
2.282

> <HBD>
1

> <TPSA>
49.410

> <RotBonds>
1

> <ROCS_ShapeQuery>
x0446_0A_x1080_0A_x0929_0A_x0812_0A_x0719_0A_x1140_0A_x0528_0A_x0310_0A

> <ROCS_TanimotoCombo>
0.317 

> <ROCS_ShapeTanimoto>
0.191 

> <ROCS_ColorTanimoto>
0.126 

> <ROCS_RefTversky>
0.179 

> <ROCS_RefColorTversky>
0.139 

> <ROCS_RefTverskyCombo>
0.317 

> <ROCS_FitTversky>
1.546 

> <ROCS_FitColorTversky>
0.580 

> <ROCS_FitTverskyCombo>
2.126 

> <ROCS_ColorScore>
-4.944

> <ROCS_Overlap>
2107.754

> <ROCS_Rank>
218                 

$$$$
untitled-dbase-566_29
  -OEChem-02082415003D

 32 33  0     0  0  0  0  0  0999 V2000
    5.1326   12.3650   25.4784 C   0  0  0  0  0  0  0  0  0  0  0  0
    5.9345   11.2912   25.8488 C   0  0  0  0  0  0  0  0  0  0  0  0
   10.3035   10.4263   22.7058 C   0  0  0  0  0  0  0  0  0  0  0  0
    9.4387   11.4326   22.2758 C   0  0  0  0  0  0  0  0  0  0  0  0
    5.6769   13.4097   24.7397 C   0  0  0  0  0  0  0  0  0  0  0  0
   11.4577   12.0181   24.1098 C   0  0  0  0  0  0  0  0  0  0  0  0
    7.2639   11.3096   25.4586 C   0  0  0  0  0  0  0  0  0  0  0  0
   11.3130   10.7190   23.6229 C   0  0  0  0  0  0  0  0  0  0  0  0
   10.5929   13.0245   23.6797 C   0  0  0  0  0  0  0  0  0  0  0  0
    9.5834   12.7317   22.7627 C   0  0  0  0  0  0  0  0  0  0  0  0
    7.0179   13.3333   24.3994 C   0  0  0  0  0  0  0  0  0  0  0  0
   12.2376    9.6425   24.0824 C   0  0  0  0  0  0  0  0  0  0  0  0
   10.7743   14.4049   24.2209 C   0  0  0  0  0  0  0  0  0  0  0  0
    7.8283   12.3065   24.7409 N   0  0  0  0  0  0  0  0  0  0  0  0
    7.6249   14.3906   23.6365 N   0  0  0  0  0  0  0  0  0  0  0  0
    7.5434   13.3408   21.2816 O   0  0  0  0  0  0  0  0  0  0  0  0
    9.2608   15.1114   21.7448 O   0  0  0  0  0  0  0  0  0  0  0  0
    8.4807   13.9699   22.2026 S   0  0  0  0  0  0  0  0  0  0  0  0
    4.0856   12.3878   25.7653 H   0  0  0  0  0  0  0  0  0  0  0  0
    5.5316   10.4660   26.4246 H   0  0  0  0  0  0  0  0  0  0  0  0
   10.1836    9.4170   22.3212 H   0  0  0  0  0  0  0  0  0  0  0  0
    8.6563   11.1921   21.5610 H   0  0  0  0  0  0  0  0  0  0  0  0
    5.0620   14.2532   24.4449 H   0  0  0  0  0  0  0  0  0  0  0  0
   12.2455   12.2440   24.8248 H   0  0  0  0  0  0  0  0  0  0  0  0
    7.9312   10.4957   25.7224 H   0  0  0  0  0  0  0  0  0  0  0  0
   13.1142    9.5861   23.4256 H   0  0  0  0  0  0  0  0  0  0  0  0
   12.5825    9.8249   25.1084 H   0  0  0  0  0  0  0  0  0  0  0  0
   11.7400    8.6640   24.0837 H   0  0  0  0  0  0  0  0  0  0  0  0
   11.4606   14.9750   23.5844 H   0  0  0  0  0  0  0  0  0  0  0  0
    9.8179   14.9396   24.2710 H   0  0  0  0  0  0  0  0  0  0  0  0
   11.1804   14.3806   25.2397 H   0  0  0  0  0  0  0  0  0  0  0  0
    8.0327   15.1485   24.1997 H   0  0  0  0  0  0  0  0  0  0  0  0
  1  2  2  0  0  0  0
  1  5  1  0  0  0  0
  2  7  1  0  0  0  0
  3  4  1  0  0  0  0
  3  8  2  0  0  0  0
  4 10  2  0  0  0  0
  5 11  2  0  0  0  0
  6  8  1  0  0  0  0
  6  9  2  0  0  0  0
  7 14  2  0  0  0  0
  8 12  1  0  0  0  0
  9 10  1  0  0  0  0
  9 13  1  0  0  0  0
 10 18  1  0  0  0  0
 11 14  1  0  0  0  0
 11 15  1  0  0  0  0
 15 18  1  0  0  0  0
 16 18  2  0  0  0  0
 17 18  2  0  0  0  0
  1 19  1  0  0  0  0
  2 20  1  0  0  0  0
  3 21  1  0  0  0  0
  4 22  1  0  0  0  0
  5 23  1  0  0  0  0
  6 24  1  0  0  0  0
  7 25  1  0  0  0  0
 12 26  1  0  0  0  0
 12 27  1  0  0  0  0
 12 28  1  0  0  0  0
 13 29  1  0  0  0  0
 13 30  1  0  0  0  0
 13 31  1  0  0  0  0
 15 32  1  0  0  0  0
M  END
> <Catalog ID>
Z45654237

> <PlateID>
1337959-R-13

> <Well>
C02

> <MW (desalted)>
262.327

> <CLogP>
2.711

> <HBD>
1

> <TPSA>
59.060

> <RotBonds>
2

> <ROCS_ShapeQuery>
x0446_0A_x1080_0A_x0929_0A_x0812_0A_x0719_0A_x1140_0A_x0528_0A_x0310_0A

> <ROCS_TanimotoCombo>
0.316 

> <ROCS_ShapeTanimoto>
0.206 

> <ROCS_ColorTanimoto>
0.111 

> <ROCS_RefTversky>
0.190 

> <ROCS_RefColorTversky>
0.121 

> <ROCS_RefTverskyCombo>
0.311 

> <ROCS_FitTversky>
1.646 

> <ROCS_FitColorTversky>
0.569 

> <ROCS_FitTverskyCombo>
2.215 

> <ROCS_ColorScore>
-4.305

> <ROCS_Overlap>
2246.388

> <ROCS_Rank>
219                 

$$$$
untitled-dbase-507_5
  -OEChem-02082415003D

 25 26  0     0  0  0  0  0  0999 V2000
    8.6854   10.1511   24.5493 C   0  0  0  0  0  0  0  0  0  0  0  0
    9.3277   10.1990   23.3121 C   0  0  0  0  0  0  0  0  0  0  0  0
    8.1577   11.3157   25.1068 C   0  0  0  0  0  0  0  0  0  0  0  0
    9.4424   11.4117   22.6324 C   0  0  0  0  0  0  0  0  0  0  0  0
    8.0080   14.5478   22.0700 C   0  0  0  0  0  0  0  0  0  0  0  0
    8.2724   12.5284   24.4272 C   0  0  0  0  0  0  0  0  0  0  0  0
    8.9148   12.5764   23.1899 C   0  0  0  0  0  0  0  0  0  0  0  0
   10.1737   14.4143   22.1052 C   0  0  0  0  0  0  0  0  0  0  0  0
    7.6965   13.7584   25.0519 C   0  0  0  0  0  0  0  0  0  0  0  0
   12.1294   14.6032   24.0163 C   0  0  0  0  0  0  0  0  0  0  0  0
    8.4789   15.6065   21.4505 N   0  0  0  0  0  0  0  0  0  0  0  0
    9.8567   15.5216   21.4729 N   0  0  0  0  0  0  0  0  0  0  0  0
    9.0403   13.7697   22.4987 N   0  0  0  0  0  0  0  0  0  0  0  0
   11.7707   13.8343   22.4104 S   0  0  0  0  0  0  0  0  0  0  0  0
    8.5957    9.2068   25.0783 H   0  0  0  0  0  0  0  0  0  0  0  0
    9.7388    9.2923   22.8780 H   0  0  0  0  0  0  0  0  0  0  0  0
    7.6596   11.2673   26.0715 H   0  0  0  0  0  0  0  0  0  0  0  0
    9.9464   11.4320   21.6691 H   0  0  0  0  0  0  0  0  0  0  0  0
    6.9646   14.3103   22.2269 H   0  0  0  0  0  0  0  0  0  0  0  0
    8.4465   14.2494   25.6819 H   0  0  0  0  0  0  0  0  0  0  0  0
    7.3605   14.4692   24.2877 H   0  0  0  0  0  0  0  0  0  0  0  0
    6.8237   13.5158   25.6698 H   0  0  0  0  0  0  0  0  0  0  0  0
   13.1317   14.3211   24.3480 H   0  0  0  0  0  0  0  0  0  0  0  0
   11.4010   14.2685   24.7590 H   0  0  0  0  0  0  0  0  0  0  0  0
   12.0753   15.6909   23.9274 H   0  0  0  0  0  0  0  0  0  0  0  0
  1  2  2  0  0  0  0
  1  3  1  0  0  0  0
  2  4  1  0  0  0  0
  3  6  2  0  0  0  0
  4  7  2  0  0  0  0
  5 11  2  0  0  0  0
  5 13  1  0  0  0  0
  6  7  1  0  0  0  0
  6  9  1  0  0  0  0
  7 13  1  0  0  0  0
  8 12  2  0  0  0  0
  8 13  1  0  0  0  0
  8 14  1  0  0  0  0
 10 14  1  0  0  0  0
 11 12  1  0  0  0  0
  1 15  1  0  0  0  0
  2 16  1  0  0  0  0
  3 17  1  0  0  0  0
  4 18  1  0  0  0  0
  5 19  1  0  0  0  0
  9 20  1  0  0  0  0
  9 21  1  0  0  0  0
  9 22  1  0  0  0  0
 10 23  1  0  0  0  0
 10 24  1  0  0  0  0
 10 25  1  0  0  0  0
M  END
> <Catalog ID>
Z17845026

> <PlateID>
1337959-R-12

> <Well>
A05

> <MW (desalted)>
205.279

> <CLogP>
2.334

> <HBD>
0

> <TPSA>
30.710

> <RotBonds>
2

> <ROCS_ShapeQuery>
x0446_0A_x1080_0A_x0929_0A_x0812_0A_x0719_0A_x1140_0A_x0528_0A_x0310_0A

> <ROCS_TanimotoCombo>
0.316 

> <ROCS_ShapeTanimoto>
0.199 

> <ROCS_ColorTanimoto>
0.117 

> <ROCS_RefTversky>
0.183 

> <ROCS_RefColorTversky>
0.125 

> <ROCS_RefTverskyCombo>
0.308 

> <ROCS_FitTversky>
1.785 

> <ROCS_FitColorTversky>
0.646 

> <ROCS_FitTverskyCombo>
2.431 

> <ROCS_ColorScore>
-4.450

> <ROCS_Overlap>
2159.973

> <ROCS_Rank>
220                 

$$$$
untitled-dbase-39_10
  -OEChem-02082415003D

 22 22  0     0  0  0  0  0  0999 V2000
    8.7485   14.1789   22.0637 C   0  0  0  0  0  0  0  0  0  0  0  0
    9.7391   11.4438   22.6906 C   0  0  0  0  0  0  0  0  0  0  0  0
    8.2573   12.4591   24.4420 C   0  0  0  0  0  0  0  0  0  0  0  0
    9.4242   10.0879   23.3110 C   0  0  0  0  0  0  0  0  0  0  0  0
    8.0251   11.0464   24.9640 C   0  0  0  0  0  0  0  0  0  0  0  0
    9.6137   12.5591   23.7347 C   0  0  0  0  0  0  0  0  0  0  0  0
    9.8027   13.9331   23.0981 C   0  0  0  0  0  0  0  0  0  0  0  0
    7.8624   13.3886   21.7721 O   0  0  0  0  0  0  0  0  0  0  0  0
    8.1275   10.0931   23.9070 O   0  0  0  0  0  0  0  0  0  0  0  0
    8.9122   15.3873   21.4726 O   0  0  0  0  0  0  0  0  0  0  0  0
    9.7501   14.8647   24.0832 F   0  0  0  0  0  0  0  0  0  0  0  0
   11.0533   13.9922   22.5762 F   0  0  0  0  0  0  0  0  0  0  0  0
   10.7456   11.4333   22.2576 H   0  0  0  0  0  0  0  0  0  0  0  0
    9.0303   11.6333   21.8744 H   0  0  0  0  0  0  0  0  0  0  0  0
    7.4603   12.7099   23.7303 H   0  0  0  0  0  0  0  0  0  0  0  0
    8.2004   13.1774   25.2675 H   0  0  0  0  0  0  0  0  0  0  0  0
    9.4322    9.3142   22.5367 H   0  0  0  0  0  0  0  0  0  0  0  0
   10.1712    9.8104   24.0639 H   0  0  0  0  0  0  0  0  0  0  0  0
    8.7390   10.7915   25.7560 H   0  0  0  0  0  0  0  0  0  0  0  0
    7.0191   10.9674   25.3881 H   0  0  0  0  0  0  0  0  0  0  0  0
   10.4046   12.4209   24.4840 H   0  0  0  0  0  0  0  0  0  0  0  0
    8.2349   15.5527   20.7825 H   0  0  0  0  0  0  0  0  0  0  0  0
  1  7  1  0  0  0  0
  1  8  2  0  0  0  0
  1 10  1  0  0  0  0
  2  4  1  0  0  0  0
  2  6  1  0  0  0  0
  3  5  1  0  0  0  0
  3  6  1  0  0  0  0
  4  9  1  0  0  0  0
  5  9  1  0  0  0  0
  6  7  1  0  0  0  0
  7 11  1  0  0  0  0
  7 12  1  0  0  0  0
  2 13  1  0  0  0  0
  2 14  1  0  0  0  0
  3 15  1  0  0  0  0
  3 16  1  0  0  0  0
  4 17  1  0  0  0  0
  4 18  1  0  0  0  0
  5 19  1  0  0  0  0
  5 20  1  0  0  0  0
  6 21  1  0  0  0  0
 10 22  1  0  0  0  0
M  END
> <Catalog ID>
Z1262557271

> <PlateID>
1337959-R-01

> <Well>
F07

> <MW (desalted)>
180.149

> <CLogP>
0.353

> <HBD>
1

> <TPSA>
46.530

> <RotBonds>
2

> <ROCS_ShapeQuery>
x0446_0A_x1080_0A_x0929_0A_x0812_0A_x0719_0A_x1140_0A_x0528_0A_x0310_0A

> <ROCS_TanimotoCombo>
0.316 

> <ROCS_ShapeTanimoto>
0.181 

> <ROCS_ColorTanimoto>
0.135 

> <ROCS_RefTversky>
0.168 

> <ROCS_RefColorTversky>
0.141 

> <ROCS_RefTverskyCombo>
0.309 

> <ROCS_FitTversky>
1.773 

> <ROCS_FitColorTversky>
0.759 

> <ROCS_FitTverskyCombo>
2.533 

> <ROCS_ColorScore>
-5.026

> <ROCS_Overlap>
1976.474

> <ROCS_Rank>
221                 

$$$$
untitled-dbase-184_3
  -OEChem-02082415003D

 25 26  0     0  0  0  0  0  0999 V2000
    9.1008   10.0038   23.2419 C   0  0  0  0  0  0  0  0  0  0  0  0
    8.3334    9.9713   24.4063 C   0  0  0  0  0  0  0  0  0  0  0  0
    9.5701   11.2216   22.7496 C   0  0  0  0  0  0  0  0  0  0  0  0
    8.0351   11.1567   25.0782 C   0  0  0  0  0  0  0  0  0  0  0  0
    9.2718   12.4070   23.4215 C   0  0  0  0  0  0  0  0  0  0  0  0
    8.5043   12.3746   24.5859 C   0  0  0  0  0  0  0  0  0  0  0  0
    8.7087   14.3287   21.8829 C   0  0  0  0  0  0  0  0  0  0  0  0
   11.4337   15.2265   22.8979 C   0  0  0  0  0  0  0  0  0  0  0  0
   10.3356   14.8445   23.9047 C   0  0  0  0  0  0  0  0  0  0  0  0
   11.2746   13.8243   22.2863 C   0  0  0  0  0  0  0  0  0  0  0  0
    9.8101   13.8002   22.8549 C   0  0  0  0  0  0  0  0  0  0  0  0
    7.6580   13.7561   21.6349 O   0  0  0  0  0  0  0  0  0  0  0  0
    9.0763   15.5165   21.3433 O   0  0  0  0  0  0  0  0  0  0  0  0
    8.2136   13.5091   25.2375 F   0  0  0  0  0  0  0  0  0  0  0  0
    9.3328    9.0808   22.7187 H   0  0  0  0  0  0  0  0  0  0  0  0
    7.9681    9.0230   24.7894 H   0  0  0  0  0  0  0  0  0  0  0  0
   10.1673   11.2385   21.8420 H   0  0  0  0  0  0  0  0  0  0  0  0
    7.4375   11.1315   25.9845 H   0  0  0  0  0  0  0  0  0  0  0  0
   11.1492   16.0397   22.2202 H   0  0  0  0  0  0  0  0  0  0  0  0
   12.4140   15.4492   23.3262 H   0  0  0  0  0  0  0  0  0  0  0  0
   10.7209   14.4002   24.8307 H   0  0  0  0  0  0  0  0  0  0  0  0
    9.6468   15.6530   24.1667 H   0  0  0  0  0  0  0  0  0  0  0  0
   11.3698   13.7811   21.1974 H   0  0  0  0  0  0  0  0  0  0  0  0
   11.9424   13.0729   22.7253 H   0  0  0  0  0  0  0  0  0  0  0  0
    8.3971   15.8650   20.7271 H   0  0  0  0  0  0  0  0  0  0  0  0
  1  2  2  0  0  0  0
  1  3  1  0  0  0  0
  2  4  1  0  0  0  0
  3  5  2  0  0  0  0
  4  6  2  0  0  0  0
  5  6  1  0  0  0  0
  5 11  1  0  0  0  0
  6 14  1  0  0  0  0
  7 11  1  0  0  0  0
  7 12  2  0  0  0  0
  7 13  1  0  0  0  0
  8  9  1  0  0  0  0
  8 10  1  0  0  0  0
  9 11  1  0  0  0  0
 10 11  1  0  0  0  0
  1 15  1  0  0  0  0
  2 16  1  0  0  0  0
  3 17  1  0  0  0  0
  4 18  1  0  0  0  0
  8 19  1  0  0  0  0
  8 20  1  0  0  0  0
  9 21  1  0  0  0  0
  9 22  1  0  0  0  0
 10 23  1  0  0  0  0
 10 24  1  0  0  0  0
 13 25  1  0  0  0  0
M  END
> <Catalog ID>
Z825741288

> <PlateID>
1337959-R-04

> <Well>
G02

> <MW (desalted)>
194.202

> <CLogP>
2.460

> <HBD>
1

> <TPSA>
37.300

> <RotBonds>
2

> <ROCS_ShapeQuery>
x0446_0A_x1080_0A_x0929_0A_x0812_0A_x0719_0A_x1140_0A_x0528_0A_x0310_0A

> <ROCS_TanimotoCombo>
0.316 

> <ROCS_ShapeTanimoto>
0.200 

> <ROCS_ColorTanimoto>
0.116 

> <ROCS_RefTversky>
0.184 

> <ROCS_RefColorTversky>
0.123 

> <ROCS_RefTverskyCombo>
0.307 

> <ROCS_FitTversky>
1.799 

> <ROCS_FitColorTversky>
0.662 

> <ROCS_FitTverskyCombo>
2.461 

> <ROCS_ColorScore>
-4.380

> <ROCS_Overlap>
2168.463

> <ROCS_Rank>
222                 

$$$$
untitled-dbase-304_0
  -OEChem-02082415003D

 27 28  0     1  0  0  0  0  0999 V2000
    7.3873   10.6085   24.8429 C   0  0  0  0  0  0  0  0  0  0  0  0
    7.8072   12.0119   25.2683 C   0  0  0  0  0  0  0  0  0  0  0  0
   10.1677   11.9636   24.2281 C   0  0  0  0  0  0  0  0  0  0  0  0
    8.4613    9.7320   24.2049 C   0  0  0  0  0  0  0  0  0  0  0  0
    8.8126   12.7133   24.3585 C   0  0  1  0  0  0  0  0  0  0  0  0
    9.6955   11.4515   22.8509 C   0  0  2  0  0  0  0  0  0  0  0  0
    8.7207   12.6845   22.7808 C   0  0  0  0  0  0  0  0  0  0  0  0
    7.3536   12.5482   22.1113 C   0  0  0  0  0  0  0  0  0  0  0  0
    9.4165   13.9188   22.1553 C   0  0  0  0  0  0  0  0  0  0  0  0
    8.9426   10.1885   22.9007 N   0  0  0  0  0  0  0  0  0  0  0  0
    7.0032   10.0908   25.7320 H   0  0  0  0  0  0  0  0  0  0  0  0
    6.5224   10.6675   24.1740 H   0  0  0  0  0  0  0  0  0  0  0  0
    6.9061   12.6307   25.3591 H   0  0  0  0  0  0  0  0  0  0  0  0
    8.2347   11.9572   26.2779 H   0  0  0  0  0  0  0  0  0  0  0  0
   11.0263   12.6458   24.1573 H   0  0  0  0  0  0  0  0  0  0  0  0
   10.4373   11.2488   25.0087 H   0  0  0  0  0  0  0  0  0  0  0  0
    9.2837    9.5341   24.9000 H   0  0  0  0  0  0  0  0  0  0  0  0
    8.0012    8.7496   24.0357 H   0  0  0  0  0  0  0  0  0  0  0  0
    8.9472   13.7310   24.7535 H   0  0  0  0  0  0  0  0  0  0  0  0
   10.4709   11.4419   22.0773 H   0  0  0  0  0  0  0  0  0  0  0  0
    7.4723   12.5454   21.0294 H   0  0  0  0  0  0  0  0  0  0  0  0
    6.7181   13.3836   22.3990 H   0  0  0  0  0  0  0  0  0  0  0  0
    6.8829   11.6172   22.4218 H   0  0  0  0  0  0  0  0  0  0  0  0
    9.3298   13.8583   21.0788 H   0  0  0  0  0  0  0  0  0  0  0  0
   10.4581   13.9153   22.4467 H   0  0  0  0  0  0  0  0  0  0  0  0
    8.9299   14.8136   22.5194 H   0  0  0  0  0  0  0  0  0  0  0  0
    9.4575    9.4202   22.4694 H   0  0  0  0  0  0  0  0  0  0  0  0
  1  2  1  0  0  0  0
  1  4  1  0  0  0  0
  2  5  1  0  0  0  0
  3  5  1  0  0  0  0
  3  6  1  0  0  0  0
  4 10  1  0  0  0  0
  5  7  1  0  0  0  0
  6  7  1  0  0  0  0
  6 10  1  0  0  0  0
  7  8  1  0  0  0  0
  7  9  1  0  0  0  0
  1 11  1  0  0  0  0
  1 12  1  0  0  0  0
  2 13  1  0  0  0  0
  2 14  1  0  0  0  0
  3 15  1  0  0  0  0
  3 16  1  0  0  0  0
  4 17  1  0  0  0  0
  4 18  1  0  0  0  0
  5 19  1  0  0  0  0
  6 20  1  0  0  0  0
  8 21  1  0  0  0  0
  8 22  1  0  0  0  0
  8 23  1  0  0  0  0
  9 24  1  0  0  0  0
  9 25  1  0  0  0  0
  9 26  1  0  0  0  0
 10 27  1  0  0  0  0
M  END
> <Catalog ID>
Z1509031252

> <PlateID>
1337959-R-07

> <Well>
D04

> <MW (desalted)>
139.238

> <CLogP>
2.287

> <HBD>
1

> <TPSA>
12.030

> <RotBonds>
0

> <ROCS_ShapeQuery>
x0446_0A_x1080_0A_x0929_0A_x0812_0A_x0719_0A_x1140_0A_x0528_0A_x0310_0A

> <ROCS_TanimotoCombo>
0.316 

> <ROCS_ShapeTanimoto>
0.164 

> <ROCS_ColorTanimoto>
0.152 

> <ROCS_RefTversky>
0.153 

> <ROCS_RefColorTversky>
0.169 

> <ROCS_RefTverskyCombo>
0.322 

> <ROCS_FitTversky>
1.772 

> <ROCS_FitColorTversky>
0.598 

> <ROCS_FitTverskyCombo>
2.370 

> <ROCS_ColorScore>
-6.040

> <ROCS_Overlap>
1805.926

> <ROCS_Rank>
223                 

$$$$
untitled-dbase-252_2
  -OEChem-02082415003D

 27 29  0     0  0  0  0  0  0999 V2000
    5.5625   11.8507   24.5813 C   0  0  0  0  0  0  0  0  0  0  0  0
    6.3767   10.7219   24.4612 C   0  0  0  0  0  0  0  0  0  0  0  0
    7.4640   13.3177   24.1809 C   0  0  0  0  0  0  0  0  0  0  0  0
    6.1029   13.1411   24.4419 C   0  0  0  0  0  0  0  0  0  0  0  0
    7.7170   10.9237   24.2034 C   0  0  0  0  0  0  0  0  0  0  0  0
    8.2461   12.1868   24.0669 C   0  0  0  0  0  0  0  0  0  0  0  0
    5.5291   15.3348   25.6669 C   0  0  0  0  0  0  0  0  0  0  0  0
    4.3436   14.4328   25.8121 C   0  0  0  0  0  0  0  0  0  0  0  0
    9.8370   10.7429   23.8097 C   0  0  0  0  0  0  0  0  0  0  0  0
    5.2143   14.3308   24.5731 C   0  0  0  0  0  0  0  0  0  0  0  0
    4.6578   14.8542   23.2784 C   0  0  0  0  0  0  0  0  0  0  0  0
    5.6269   15.6632   22.6015 N   0  0  0  0  0  0  0  0  0  0  0  0
    8.6568    9.9508   24.0545 O   0  0  0  0  0  0  0  0  0  0  0  0
    9.5833   12.1628   23.8157 O   0  0  0  0  0  0  0  0  0  0  0  0
    4.5022   11.7217   24.7846 H   0  0  0  0  0  0  0  0  0  0  0  0
    5.9636    9.7253   24.5677 H   0  0  0  0  0  0  0  0  0  0  0  0
    7.8946   14.3075   24.0714 H   0  0  0  0  0  0  0  0  0  0  0  0
    5.3422   16.3851   25.4750 H   0  0  0  0  0  0  0  0  0  0  0  0
    6.3810   15.1536   26.3123 H   0  0  0  0  0  0  0  0  0  0  0  0
    4.3994   13.6465   26.5562 H   0  0  0  0  0  0  0  0  0  0  0  0
    3.3587   14.8754   25.7172 H   0  0  0  0  0  0  0  0  0  0  0  0
   10.5785   10.5163   24.5841 H   0  0  0  0  0  0  0  0  0  0  0  0
   10.2511   10.4647   22.8337 H   0  0  0  0  0  0  0  0  0  0  0  0
    4.3864   14.0003   22.6473 H   0  0  0  0  0  0  0  0  0  0  0  0
    3.7685   15.4549   23.5011 H   0  0  0  0  0  0  0  0  0  0  0  0
    5.2656   16.5886   22.4737 H   0  0  0  0  0  0  0  0  0  0  0  0
    6.4671   15.7097   23.1446 H   0  0  0  0  0  0  0  0  0  0  0  0
  1  2  1  0  0  0  0
  1  4  2  0  0  0  0
  2  5  2  0  0  0  0
  3  4  1  0  0  0  0
  3  6  2  0  0  0  0
  4 10  1  0  0  0  0
  5  6  1  0  0  0  0
  5 13  1  0  0  0  0
  6 14  1  0  0  0  0
  7  8  1  0  0  0  0
  7 10  1  0  0  0  0
  8 10  1  0  0  0  0
  9 13  1  0  0  0  0
  9 14  1  0  0  0  0
 10 11  1  0  0  0  0
 11 12  1  0  0  0  0
  1 15  1  0  0  0  0
  2 16  1  0  0  0  0
  3 17  1  0  0  0  0
  7 18  1  0  0  0  0
  7 19  1  0  0  0  0
  8 20  1  0  0  0  0
  8 21  1  0  0  0  0
  9 22  1  0  0  0  0
  9 23  1  0  0  0  0
 11 24  1  0  0  0  0
 11 25  1  0  0  0  0
 12 26  1  0  0  0  0
 12 27  1  0  0  0  0
M  END
> <Catalog ID>
Z361883962

> <PlateID>
1337959-R-06

> <Well>
A03

> <MW (desalted)>
191.226

> <CLogP>
1.832

> <HBD>
1

> <TPSA>
44.480

> <RotBonds>
2

> <ROCS_ShapeQuery>
x0446_0A_x1080_0A_x0929_0A_x0812_0A_x0719_0A_x1140_0A_x0528_0A_x0310_0A

> <ROCS_TanimotoCombo>
0.316 

> <ROCS_ShapeTanimoto>
0.165 

> <ROCS_ColorTanimoto>
0.151 

> <ROCS_RefTversky>
0.156 

> <ROCS_RefColorTversky>
0.159 

> <ROCS_RefTverskyCombo>
0.315 

> <ROCS_FitTversky>
1.501 

> <ROCS_FitColorTversky>
0.748 

> <ROCS_FitTverskyCombo>
2.249 

> <ROCS_ColorScore>
-5.678

> <ROCS_Overlap>
1839.775

> <ROCS_Rank>
224                 

$$$$
untitled-dbase-640_26
  -OEChem-02082415003D

 34 36  0     0  0  0  0  0  0999 V2000
    7.8700   15.8416   21.7232 C   0  0  0  0  0  0  0  0  0  0  0  0
    7.1271   14.6602   23.9918 C   0  0  0  0  0  0  0  0  0  0  0  0
    6.6931   13.5019   22.2058 C   0  0  0  0  0  0  0  0  0  0  0  0
    8.8606   12.7862   23.4493 C   0  0  0  0  0  0  0  0  0  0  0  0
    7.0098   12.0695   24.3636 C   0  0  0  0  0  0  0  0  0  0  0  0
    8.3163   10.2918   22.9761 C   0  0  0  0  0  0  0  0  0  0  0  0
    9.1422   10.6651   24.9387 C   0  0  0  0  0  0  0  0  0  0  0  0
    6.8391   15.0223   22.5054 C   0  0  0  0  0  0  0  0  0  0  0  0
    7.4149   13.2580   23.5151 C   0  0  0  0  0  0  0  0  0  0  0  0
    8.3277   11.4506   23.9462 C   0  0  0  0  0  0  0  0  0  0  0  0
    9.5356    9.7295   23.7603 C   0  0  0  0  0  0  0  0  0  0  0  0
    8.1574   17.8716   20.5485 C   0  0  0  0  0  0  0  0  0  0  0  0
    5.5083   15.6257   22.4379 N   0  0  0  0  0  0  0  0  0  0  0  0
    9.0231   15.4832   21.5261 O   0  0  0  0  0  0  0  0  0  0  0  0
    7.2998   17.0045   21.2972 O   0  0  0  0  0  0  0  0  0  0  0  0
    9.4972    8.4056   24.0284 F   0  0  0  0  0  0  0  0  0  0  0  0
   10.7427    9.9831   23.2038 F   0  0  0  0  0  0  0  0  0  0  0  0
    8.0020   15.1742   24.3999 H   0  0  0  0  0  0  0  0  0  0  0  0
    6.3031   14.7760   24.6973 H   0  0  0  0  0  0  0  0  0  0  0  0
    5.6783   13.1093   22.1245 H   0  0  0  0  0  0  0  0  0  0  0  0
    7.2542   13.1810   21.3237 H   0  0  0  0  0  0  0  0  0  0  0  0
    9.3254   12.7832   22.4633 H   0  0  0  0  0  0  0  0  0  0  0  0
    9.5259   13.2883   24.1561 H   0  0  0  0  0  0  0  0  0  0  0  0
    6.9336   12.2879   25.4381 H   0  0  0  0  0  0  0  0  0  0  0  0
    6.1012   11.5333   24.0622 H   0  0  0  0  0  0  0  0  0  0  0  0
    7.4280    9.6544   22.9812 H   0  0  0  0  0  0  0  0  0  0  0  0
    8.5558   10.5555   21.9398 H   0  0  0  0  0  0  0  0  0  0  0  0
    9.9949   11.2069   25.3630 H   0  0  0  0  0  0  0  0  0  0  0  0
    8.5916   10.1812   25.7500 H   0  0  0  0  0  0  0  0  0  0  0  0
    7.6055   18.7687   20.2574 H   0  0  0  0  0  0  0  0  0  0  0  0
    8.5192   17.3490   19.6594 H   0  0  0  0  0  0  0  0  0  0  0  0
    9.0078   18.1562   21.1727 H   0  0  0  0  0  0  0  0  0  0  0  0
    4.8973   14.9673   22.0208 H   0  0  0  0  0  0  0  0  0  0  0  0
    5.2248   15.8384   23.3626 H   0  0  0  0  0  0  0  0  0  0  0  0
  1  8  1  0  0  0  0
  1 14  2  0  0  0  0
  1 15  1  0  0  0  0
  2  8  1  0  0  0  0
  2  9  1  0  0  0  0
  3  8  1  0  0  0  0
  3  9  1  0  0  0  0
  4  9  1  0  0  0  0
  4 10  1  0  0  0  0
  5  9  1  0  0  0  0
  5 10  1  0  0  0  0
  6 10  1  0  0  0  0
  6 11  1  0  0  0  0
  7 10  1  0  0  0  0
  7 11  1  0  0  0  0
  8 13  1  0  0  0  0
 11 16  1  0  0  0  0
 11 17  1  0  0  0  0
 12 15  1  0  0  0  0
  2 18  1  0  0  0  0
  2 19  1  0  0  0  0
  3 20  1  0  0  0  0
  3 21  1  0  0  0  0
  4 22  1  0  0  0  0
  4 23  1  0  0  0  0
  5 24  1  0  0  0  0
  5 25  1  0  0  0  0
  6 26  1  0  0  0  0
  6 27  1  0  0  0  0
  7 28  1  0  0  0  0
  7 29  1  0  0  0  0
 12 30  1  0  0  0  0
 12 31  1  0  0  0  0
 12 32  1  0  0  0  0
 13 33  1  0  0  0  0
 13 34  1  0  0  0  0
M  END
> <Catalog ID>
Z4565483656

> <PlateID>
1337959-R-15

> <Well>
A09

> <MW (desalted)>
245.266

> <CLogP>
1.197

> <HBD>
1

> <TPSA>
52.320

> <RotBonds>
2

> <ROCS_ShapeQuery>
x0446_0A_x1080_0A_x0929_0A_x0812_0A_x0719_0A_x1140_0A_x0528_0A_x0310_0A

> <ROCS_TanimotoCombo>
0.316 

> <ROCS_ShapeTanimoto>
0.191 

> <ROCS_ColorTanimoto>
0.125 

> <ROCS_RefTversky>
0.179 

> <ROCS_RefColorTversky>
0.134 

> <ROCS_RefTverskyCombo>
0.313 

> <ROCS_FitTversky>
1.568 

> <ROCS_FitColorTversky>
0.630 

> <ROCS_FitTverskyCombo>
2.198 

> <ROCS_ColorScore>
-4.792

> <ROCS_Overlap>
2109.460

> <ROCS_Rank>
225                 

$$$$
untitled-dbase-629_38
  -OEChem-02082415003D

 30 31  0     1  0  0  0  0  0999 V2000
    8.1418   10.5138   24.5023 C   0  0  0  0  0  0  0  0  0  0  0  0
    8.0527   11.9209   24.7081 C   0  0  0  0  0  0  0  0  0  0  0  0
    9.0680   10.1899   23.5356 C   0  0  0  0  0  0  0  0  0  0  0  0
    8.9146   12.6188   23.8909 C   0  0  0  0  0  0  0  0  0  0  0  0
    8.1885   15.4665   21.9257 C   0  0  0  0  0  0  0  0  0  0  0  0
    6.7240   14.7654   23.5204 C   0  0  0  0  0  0  0  0  0  0  0  0
    6.8258   15.9986   21.5054 C   0  0  2  0  0  0  0  0  0  0  0  0
    6.8115   17.5112   21.4280 C   0  0  0  0  0  0  0  0  0  0  0  0
    9.3517    7.7675   24.1169 C   0  0  0  0  0  0  0  0  0  0  0  0
    9.4498    8.8501   23.0386 C   0  0  0  0  0  0  0  0  0  0  0  0
    9.1228   14.1031   23.8029 C   0  0  0  0  0  0  0  0  0  0  0  0
    6.0023   15.4985   22.5768 N   0  0  0  0  0  0  0  0  0  0  0  0
    8.0400   14.7619   23.1001 N   0  0  0  0  0  0  0  0  0  0  0  0
    9.2222   15.6576   21.2985 O   0  0  0  0  0  0  0  0  0  0  0  0
    6.2544   14.2336   24.5180 O   0  0  0  0  0  0  0  0  0  0  0  0
    9.8257   11.5789   22.8806 S   0  0  0  0  0  0  0  0  0  0  0  0
    7.5548    9.7796   25.0396 H   0  0  0  0  0  0  0  0  0  0  0  0
    7.3896   12.3930   25.4219 H   0  0  0  0  0  0  0  0  0  0  0  0
    6.5088   15.5277   20.5706 H   0  0  0  0  0  0  0  0  0  0  0  0
    7.1335   17.9451   22.3783 H   0  0  0  0  0  0  0  0  0  0  0  0
    5.8041   17.8725   21.2058 H   0  0  0  0  0  0  0  0  0  0  0  0
    7.4862   17.8596   20.6416 H   0  0  0  0  0  0  0  0  0  0  0  0
    9.9657    8.0272   24.9860 H   0  0  0  0  0  0  0  0  0  0  0  0
    9.6937    6.7996   23.7373 H   0  0  0  0  0  0  0  0  0  0  0  0
    8.3176    7.6516   24.4588 H   0  0  0  0  0  0  0  0  0  0  0  0
    8.8175    8.5502   22.1818 H   0  0  0  0  0  0  0  0  0  0  0  0
   10.4813    8.8548   22.6388 H   0  0  0  0  0  0  0  0  0  0  0  0
    9.1925   14.5432   24.8036 H   0  0  0  0  0  0  0  0  0  0  0  0
   10.0547   14.3388   23.2783 H   0  0  0  0  0  0  0  0  0  0  0  0
    4.9972   15.6327   22.6265 H   0  0  0  0  0  0  0  0  0  0  0  0
  1  2  1  0  0  0  0
  1  3  2  0  0  0  0
  2  4  2  0  0  0  0
  3 10  1  0  0  0  0
  3 16  1  0  0  0  0
  4 11  1  0  0  0  0
  4 16  1  0  0  0  0
  5  7  1  0  0  0  0
  5 13  1  0  0  0  0
  5 14  2  0  0  0  0
  6 12  1  0  0  0  0
  6 13  1  0  0  0  0
  6 15  2  0  0  0  0
  7  8  1  1  0  0  0
  7 12  1  0  0  0  0
  9 10  1  0  0  0  0
 11 13  1  0  0  0  0
  1 17  1  0  0  0  0
  2 18  1  0  0  0  0
  7 19  1  0  0  0  0
  8 20  1  0  0  0  0
  8 21  1  0  0  0  0
  8 22  1  0  0  0  0
  9 23  1  0  0  0  0
  9 24  1  0  0  0  0
  9 25  1  0  0  0  0
 10 26  1  0  0  0  0
 10 27  1  0  0  0  0
 11 28  1  0  0  0  0
 11 29  1  0  0  0  0
 12 30  1  0  0  0  0
M  END
> <Catalog ID>
Z1612157035

> <PlateID>
1337959-R-14

> <Well>
G11

> <MW (desalted)>
238.306

> <CLogP>
1.896

> <HBD>
1

> <TPSA>
49.410

> <RotBonds>
3

> <ROCS_ShapeQuery>
x0446_0A_x1080_0A_x0929_0A_x0812_0A_x0719_0A_x1140_0A_x0528_0A_x0310_0A

> <ROCS_TanimotoCombo>
0.316 

> <ROCS_ShapeTanimoto>
0.184 

> <ROCS_ColorTanimoto>
0.132 

> <ROCS_RefTversky>
0.172 

> <ROCS_RefColorTversky>
0.141 

> <ROCS_RefTverskyCombo>
0.313 

> <ROCS_FitTversky>
1.588 

> <ROCS_FitColorTversky>
0.666 

> <ROCS_FitTverskyCombo>
2.254 

> <ROCS_ColorScore>
-5.032

> <ROCS_Overlap>
2030.815

> <ROCS_Rank>
226                 

$$$$
untitled-dbase-242_5
  -OEChem-02082415003D

 37 38  0     0  0  0  0  0  0999 V2000
    9.7462   10.2133   24.2534 C   0  0  0  0  0  0  0  0  0  0  0  0
    7.9802   12.3415   23.8864 C   0  0  0  0  0  0  0  0  0  0  0  0
    8.7288   10.4429   25.1795 C   0  0  0  0  0  0  0  0  0  0  0  0
    9.8807   11.0478   23.1438 C   0  0  0  0  0  0  0  0  0  0  0  0
    7.8457   11.5069   24.9960 C   0  0  0  0  0  0  0  0  0  0  0  0
    8.9977   12.1119   22.9603 C   0  0  0  0  0  0  0  0  0  0  0  0
   11.5242   13.8768   22.6616 C   0  0  0  0  0  0  0  0  0  0  0  0
   10.3303   15.6195   21.4011 C   0  0  0  0  0  0  0  0  0  0  0  0
   12.2279   14.9871   23.4293 C   0  0  0  0  0  0  0  0  0  0  0  0
   11.0846   16.6565   22.2215 C   0  0  0  0  0  0  0  0  0  0  0  0
    8.6049    9.5373   26.3606 C   0  0  0  0  0  0  0  0  0  0  0  0
   10.9806   10.7747   22.1703 C   0  0  0  0  0  0  0  0  0  0  0  0
    6.7490   11.7730   25.9745 C   0  0  0  0  0  0  0  0  0  0  0  0
   10.1911   14.3750   22.2126 N   0  0  0  0  0  0  0  0  0  0  0  0
    9.8277   12.4656   20.5191 O   0  0  0  0  0  0  0  0  0  0  0  0
    7.8424   13.7859   21.3333 O   0  0  0  0  0  0  0  0  0  0  0  0
   12.3636   16.1491   22.6081 O   0  0  0  0  0  0  0  0  0  0  0  0
    9.1394   13.1878   21.5678 S   0  0  0  0  0  0  0  0  0  0  0  0
   10.4347    9.3836   24.3967 H   0  0  0  0  0  0  0  0  0  0  0  0
    7.2902   13.1704   23.7458 H   0  0  0  0  0  0  0  0  0  0  0  0
   12.1111   13.5887   21.7818 H   0  0  0  0  0  0  0  0  0  0  0  0
   11.3960   13.0046   23.3104 H   0  0  0  0  0  0  0  0  0  0  0  0
    9.3401   16.0058   21.1399 H   0  0  0  0  0  0  0  0  0  0  0  0
   10.8800   15.3853   20.4821 H   0  0  0  0  0  0  0  0  0  0  0  0
   11.6842   15.2512   24.3443 H   0  0  0  0  0  0  0  0  0  0  0  0
   13.2324   14.6633   23.7191 H   0  0  0  0  0  0  0  0  0  0  0  0
   11.2495   17.5584   21.6239 H   0  0  0  0  0  0  0  0  0  0  0  0
   10.5236   16.9467   23.1179 H   0  0  0  0  0  0  0  0  0  0  0  0
    9.2001    9.9208   27.1974 H   0  0  0  0  0  0  0  0  0  0  0  0
    7.5607    9.4500   26.6854 H   0  0  0  0  0  0  0  0  0  0  0  0
    8.9505    8.5240   26.1211 H   0  0  0  0  0  0  0  0  0  0  0  0
   10.6325   10.0926   21.3863 H   0  0  0  0  0  0  0  0  0  0  0  0
   11.3307   11.7008   21.6985 H   0  0  0  0  0  0  0  0  0  0  0  0
   11.8469   10.3224   22.6686 H   0  0  0  0  0  0  0  0  0  0  0  0
    5.8427   11.2280   25.6864 H   0  0  0  0  0  0  0  0  0  0  0  0
    7.0370   11.4627   26.9864 H   0  0  0  0  0  0  0  0  0  0  0  0
    6.5130   12.8432   26.0236 H   0  0  0  0  0  0  0  0  0  0  0  0
  1  3  2  0  0  0  0
  1  4  1  0  0  0  0
  2  5  2  0  0  0  0
  2  6  1  0  0  0  0
  3  5  1  0  0  0  0
  3 11  1  0  0  0  0
  4  6  2  0  0  0  0
  4 12  1  0  0  0  0
  5 13  1  0  0  0  0
  6 18  1  0  0  0  0
  7  9  1  0  0  0  0
  7 14  1  0  0  0  0
  8 10  1  0  0  0  0
  8 14  1  0  0  0  0
  9 17  1  0  0  0  0
 10 17  1  0  0  0  0
 14 18  1  0  0  0  0
 15 18  2  0  0  0  0
 16 18  2  0  0  0  0
  1 19  1  0  0  0  0
  2 20  1  0  0  0  0
  7 21  1  0  0  0  0
  7 22  1  0  0  0  0
  8 23  1  0  0  0  0
  8 24  1  0  0  0  0
  9 25  1  0  0  0  0
  9 26  1  0  0  0  0
 10 27  1  0  0  0  0
 10 28  1  0  0  0  0
 11 29  1  0  0  0  0
 11 30  1  0  0  0  0
 11 31  1  0  0  0  0
 12 32  1  0  0  0  0
 12 33  1  0  0  0  0
 12 34  1  0  0  0  0
 13 35  1  0  0  0  0
 13 36  1  0  0  0  0
 13 37  1  0  0  0  0
M  END
> <Catalog ID>
Z57188126

> <PlateID>
1337959-R-05

> <Well>
G11

> <MW (desalted)>
269.360

> <CLogP>
2.730

> <HBD>
0

> <TPSA>
46.610

> <RotBonds>
1

> <ROCS_ShapeQuery>
x0446_0A_x1080_0A_x0929_0A_x0812_0A_x0719_0A_x1140_0A_x0528_0A_x0310_0A

> <ROCS_TanimotoCombo>
0.316 

> <ROCS_ShapeTanimoto>
0.208 

> <ROCS_ColorTanimoto>
0.108 

> <ROCS_RefTversky>
0.192 

> <ROCS_RefColorTversky>
0.116 

> <ROCS_RefTverskyCombo>
0.307 

> <ROCS_FitTversky>
1.675 

> <ROCS_FitColorTversky>
0.623 

> <ROCS_FitTverskyCombo>
2.298 

> <ROCS_ColorScore>
-4.117

> <ROCS_Overlap>
2260.254

> <ROCS_Rank>
227                 

$$$$
untitled-dbase-207_0
  -OEChem-02082415003D

 39 39  0     0  0  0  0  0  0999 V2000
   10.1427   11.6064   24.6040 C   0  0  0  0  0  0  0  0  0  0  0  0
    7.7528   11.5906   23.1650 C   0  0  0  0  0  0  0  0  0  0  0  0
    9.3259   10.4758   24.6208 C   0  0  0  0  0  0  0  0  0  0  0  0
    8.1310   10.4679   23.9013 C   0  0  0  0  0  0  0  0  0  0  0  0
    9.7644   12.7291   23.8678 C   0  0  0  0  0  0  0  0  0  0  0  0
    8.5695   12.7212   23.1483 C   0  0  0  0  0  0  0  0  0  0  0  0
    9.7526    9.2856   25.4157 C   0  0  0  0  0  0  0  0  0  0  0  0
    7.0741    8.6581   22.5009 C   0  0  0  0  0  0  0  0  0  0  0  0
    5.8575    9.5673   24.5129 C   0  0  0  0  0  0  0  0  0  0  0  0
    5.9498   14.3968   23.9461 C   0  0  0  0  0  0  0  0  0  0  0  0
    7.8921   15.8552   24.3477 C   0  0  0  0  0  0  0  0  0  0  0  0
   11.7778   13.7394   24.6303 C   0  0  0  0  0  0  0  0  0  0  0  0
    7.2400    9.2693   23.9042 C   0  0  0  0  0  0  0  0  0  0  0  0
    7.1487   15.0414   23.3524 N   0  0  0  0  0  0  0  0  0  0  0  0
    9.2682   14.8714   21.8608 O   0  0  0  0  0  0  0  0  0  0  0  0
    7.1906   13.6607   21.1524 O   0  0  0  0  0  0  0  0  0  0  0  0
   10.5768   13.8230   23.8658 O   0  0  0  0  0  0  0  0  0  0  0  0
    8.0666   14.1351   22.2078 S   0  0  0  0  0  0  0  0  0  0  0  0
   11.0750   11.6155   25.1638 H   0  0  0  0  0  0  0  0  0  0  0  0
    6.8207   11.5823   22.6046 H   0  0  0  0  0  0  0  0  0  0  0  0
    9.3651    9.3533   26.4389 H   0  0  0  0  0  0  0  0  0  0  0  0
    9.3864    8.3553   24.9641 H   0  0  0  0  0  0  0  0  0  0  0  0
   10.8462    9.2100   25.4602 H   0  0  0  0  0  0  0  0  0  0  0  0
    6.6359    9.3746   21.7976 H   0  0  0  0  0  0  0  0  0  0  0  0
    6.4252    7.7758   22.5237 H   0  0  0  0  0  0  0  0  0  0  0  0
    8.0461    8.3491   22.1003 H   0  0  0  0  0  0  0  0  0  0  0  0
    5.3482   10.3513   23.9415 H   0  0  0  0  0  0  0  0  0  0  0  0
    5.9432    9.9102   25.5497 H   0  0  0  0  0  0  0  0  0  0  0  0
    5.2148    8.6801   24.5087 H   0  0  0  0  0  0  0  0  0  0  0  0
    5.4314   13.8063   23.1763 H   0  0  0  0  0  0  0  0  0  0  0  0
    6.2589   13.7355   24.7690 H   0  0  0  0  0  0  0  0  0  0  0  0
    5.2711   15.1711   24.3331 H   0  0  0  0  0  0  0  0  0  0  0  0
    8.7692   16.3126   23.8665 H   0  0  0  0  0  0  0  0  0  0  0  0
    7.2349   16.6457   24.7392 H   0  0  0  0  0  0  0  0  0  0  0  0
    8.2227   15.2101   25.1751 H   0  0  0  0  0  0  0  0  0  0  0  0
   12.3323   14.6770   24.5429 H   0  0  0  0  0  0  0  0  0  0  0  0
   12.3863   12.9084   24.2649 H   0  0  0  0  0  0  0  0  0  0  0  0
   11.5209   13.5671   25.6782 H   0  0  0  0  0  0  0  0  0  0  0  0
    7.6849    8.4751   24.5323 H   0  0  0  0  0  0  0  0  0  0  0  0
  1  3  1  0  0  0  0
  1  5  2  0  0  0  0
  2  4  1  0  0  0  0
  2  6  2  0  0  0  0
  3  4  2  0  0  0  0
  3  7  1  0  0  0  0
  4 13  1  0  0  0  0
  5  6  1  0  0  0  0
  5 17  1  0  0  0  0
  6 18  1  0  0  0  0
  8 13  1  0  0  0  0
  9 13  1  0  0  0  0
 10 14  1  0  0  0  0
 11 14  1  0  0  0  0
 12 17  1  0  0  0  0
 14 18  1  0  0  0  0
 15 18  2  0  0  0  0
 16 18  2  0  0  0  0
  1 19  1  0  0  0  0
  2 20  1  0  0  0  0
  7 21  1  0  0  0  0
  7 22  1  0  0  0  0
  7 23  1  0  0  0  0
  8 24  1  0  0  0  0
  8 25  1  0  0  0  0
  8 26  1  0  0  0  0
  9 27  1  0  0  0  0
  9 28  1  0  0  0  0
  9 29  1  0  0  0  0
 10 30  1  0  0  0  0
 10 31  1  0  0  0  0
 10 32  1  0  0  0  0
 11 33  1  0  0  0  0
 11 34  1  0  0  0  0
 11 35  1  0  0  0  0
 12 36  1  0  0  0  0
 12 37  1  0  0  0  0
 12 38  1  0  0  0  0
 13 39  1  0  0  0  0
M  END
> <Catalog ID>
Z285128260

> <PlateID>
1337959-R-05

> <Well>
A10

> <MW (desalted)>
271.376

> <CLogP>
2.902

> <HBD>
0

> <TPSA>
46.610

> <RotBonds>
3

> <ROCS_ShapeQuery>
x0446_0A_x1080_0A_x0929_0A_x0812_0A_x0719_0A_x1140_0A_x0528_0A_x0310_0A

> <ROCS_TanimotoCombo>
0.315 

> <ROCS_ShapeTanimoto>
0.182 

> <ROCS_ColorTanimoto>
0.134 

> <ROCS_RefTversky>
0.171 

> <ROCS_RefColorTversky>
0.140 

> <ROCS_RefTverskyCombo>
0.311 

> <ROCS_FitTversky>
1.517 

> <ROCS_FitColorTversky>
0.752 

> <ROCS_FitTverskyCombo>
2.269 

> <ROCS_ColorScore>
-4.978

> <ROCS_Overlap>
2019.312

> <ROCS_Rank>
228                 

$$$$
untitled-dbase-415_2
  -OEChem-02082415003D

 27 28  0     0  0  0  0  0  0999 V2000
    6.2207   13.8716   25.8939 C   0  0  0  0  0  0  0  0  0  0  0  0
    7.2857   13.7935   25.0035 C   0  0  0  0  0  0  0  0  0  0  0  0
    5.3731   12.7796   25.9886 C   0  0  0  0  0  0  0  0  0  0  0  0
    6.5649   11.6050   24.4143 C   0  0  0  0  0  0  0  0  0  0  0  0
    7.4681   12.6421   24.2457 C   0  0  0  0  0  0  0  0  0  0  0  0
    8.4692   13.6408   22.2397 C   0  0  0  0  0  0  0  0  0  0  0  0
   10.2743   11.1242   24.3323 C   0  0  0  0  0  0  0  0  0  0  0  0
    9.5381   10.2682   23.3041 C   0  0  0  0  0  0  0  0  0  0  0  0
    9.9944   12.5738   23.9451 C   0  0  0  0  0  0  0  0  0  0  0  0
    8.7460   11.2417   22.4306 C   0  0  0  0  0  0  0  0  0  0  0  0
    8.6219   12.5255   23.2651 C   0  0  0  0  0  0  0  0  0  0  0  0
    5.5183   11.6443   25.2692 N   0  0  0  0  0  0  0  0  0  0  0  0
    9.2903   14.5222   22.0338 O   0  0  0  0  0  0  0  0  0  0  0  0
    7.2900   13.5274   21.5810 O   0  0  0  0  0  0  0  0  0  0  0  0
    6.0592   14.7591   26.4950 H   0  0  0  0  0  0  0  0  0  0  0  0
    7.9680   14.6337   24.9070 H   0  0  0  0  0  0  0  0  0  0  0  0
    4.5274   12.7911   26.6683 H   0  0  0  0  0  0  0  0  0  0  0  0
    6.6564   10.6819   23.8505 H   0  0  0  0  0  0  0  0  0  0  0  0
    9.9514   10.8994   25.3617 H   0  0  0  0  0  0  0  0  0  0  0  0
   11.3577   10.9190   24.2844 H   0  0  0  0  0  0  0  0  0  0  0  0
   10.2305    9.6555   22.7194 H   0  0  0  0  0  0  0  0  0  0  0  0
    8.8482    9.5884   23.8172 H   0  0  0  0  0  0  0  0  0  0  0  0
    9.9695   13.1928   24.8524 H   0  0  0  0  0  0  0  0  0  0  0  0
   10.7854   12.9691   23.2971 H   0  0  0  0  0  0  0  0  0  0  0  0
    9.2675   11.4130   21.4884 H   0  0  0  0  0  0  0  0  0  0  0  0
    7.7764   10.8024   22.1908 H   0  0  0  0  0  0  0  0  0  0  0  0
    7.1717   14.2390   20.9162 H   0  0  0  0  0  0  0  0  0  0  0  0
  1  2  1  0  0  0  0
  1  3  2  0  0  0  0
  2  5  2  0  0  0  0
  3 12  1  0  0  0  0
  4  5  1  0  0  0  0
  4 12  2  0  0  0  0
  5 11  1  0  0  0  0
  6 11  1  0  0  0  0
  6 13  2  0  0  0  0
  6 14  1  0  0  0  0
  7  8  1  0  0  0  0
  7  9  1  0  0  0  0
  8 10  1  0  0  0  0
  9 11  1  0  0  0  0
 10 11  1  0  0  0  0
  1 15  1  0  0  0  0
  2 16  1  0  0  0  0
  3 17  1  0  0  0  0
  4 18  1  0  0  0  0
  7 19  1  0  0  0  0
  7 20  1  0  0  0  0
  8 21  1  0  0  0  0
  8 22  1  0  0  0  0
  9 23  1  0  0  0  0
  9 24  1  0  0  0  0
 10 25  1  0  0  0  0
 10 26  1  0  0  0  0
 14 27  1  0  0  0  0
M  END
> <Catalog ID>
Z2111525185

> <PlateID>
1337959-R-09

> <Well>
G11

> <MW (desalted)>
191.226

> <CLogP>
1.379

> <HBD>
1

> <TPSA>
50.190

> <RotBonds>
2

> <ROCS_ShapeQuery>
x0446_0A_x1080_0A_x0929_0A_x0812_0A_x0719_0A_x1140_0A_x0528_0A_x0310_0A

> <ROCS_TanimotoCombo>
0.315 

> <ROCS_ShapeTanimoto>
0.189 

> <ROCS_ColorTanimoto>
0.126 

> <ROCS_RefTversky>
0.175 

> <ROCS_RefColorTversky>
0.136 

> <ROCS_RefTverskyCombo>
0.311 

> <ROCS_FitTversky>
1.704 

> <ROCS_FitColorTversky>
0.641 

> <ROCS_FitTverskyCombo>
2.345 

> <ROCS_ColorScore>
-4.849

> <ROCS_Overlap>
2066.853

> <ROCS_Rank>
229                 

$$$$
untitled-dbase-340_38
  -OEChem-02082415003D

 26 27  0     0  0  0  0  0  0999 V2000
   12.6498   15.2708   22.3034 C   0  0  0  0  0  0  0  0  0  0  0  0
    6.7215   11.5387   25.3491 C   0  0  0  0  0  0  0  0  0  0  0  0
   11.5165   16.0532   22.1115 C   0  0  0  0  0  0  0  0  0  0  0  0
    5.9841   12.5413   24.7195 C   0  0  0  0  0  0  0  0  0  0  0  0
    7.9359   11.1201   24.8053 C   0  0  0  0  0  0  0  0  0  0  0  0
   12.5232   13.9923   22.8352 C   0  0  0  0  0  0  0  0  0  0  0  0
    7.6753   12.7067   23.0020 C   0  0  0  0  0  0  0  0  0  0  0  0
   10.2896   15.5152   22.4648 C   0  0  0  0  0  0  0  0  0  0  0  0
    6.4610   13.1253   23.5459 C   0  0  0  0  0  0  0  0  0  0  0  0
    8.4128   11.7040   23.6318 C   0  0  0  0  0  0  0  0  0  0  0  0
   11.2512   13.5466   23.1564 C   0  0  0  0  0  0  0  0  0  0  0  0
   10.1271   14.2777   22.9842 N   0  0  0  0  0  0  0  0  0  0  0  0
   11.0711   12.2315   23.7098 N   0  0  0  0  0  0  0  0  0  0  0  0
    9.9132   11.4896   21.5273 O   0  0  0  0  0  0  0  0  0  0  0  0
   10.1847    9.8080   23.3705 O   0  0  0  0  0  0  0  0  0  0  0  0
    5.7524   14.0880   22.9413 F   0  0  0  0  0  0  0  0  0  0  0  0
    9.9336   11.1819   22.9525 S   0  0  0  0  0  0  0  0  0  0  0  0
   13.6297   15.6568   22.0392 H   0  0  0  0  0  0  0  0  0  0  0  0
    6.3497   11.0842   26.2627 H   0  0  0  0  0  0  0  0  0  0  0  0
   11.5914   17.0525   21.6985 H   0  0  0  0  0  0  0  0  0  0  0  0
    5.0385   12.8672   25.1427 H   0  0  0  0  0  0  0  0  0  0  0  0
    8.5027   10.3386   25.3046 H   0  0  0  0  0  0  0  0  0  0  0  0
   13.3995   13.3722   22.9901 H   0  0  0  0  0  0  0  0  0  0  0  0
    8.0366   13.1687   22.0871 H   0  0  0  0  0  0  0  0  0  0  0  0
    9.3753   16.0850   22.3350 H   0  0  0  0  0  0  0  0  0  0  0  0
   11.1121   12.1870   24.7365 H   0  0  0  0  0  0  0  0  0  0  0  0
  1  3  2  0  0  0  0
  1  6  1  0  0  0  0
  2  4  1  0  0  0  0
  2  5  2  0  0  0  0
  3  8  1  0  0  0  0
  4  9  2  0  0  0  0
  5 10  1  0  0  0  0
  6 11  2  0  0  0  0
  7  9  1  0  0  0  0
  7 10  2  0  0  0  0
  8 12  2  0  0  0  0
  9 16  1  0  0  0  0
 10 17  1  0  0  0  0
 11 12  1  0  0  0  0
 11 13  1  0  0  0  0
 13 17  1  0  0  0  0
 14 17  2  0  0  0  0
 15 17  2  0  0  0  0
  1 18  1  0  0  0  0
  2 19  1  0  0  0  0
  3 20  1  0  0  0  0
  4 21  1  0  0  0  0
  5 22  1  0  0  0  0
  6 23  1  0  0  0  0
  7 24  1  0  0  0  0
  8 25  1  0  0  0  0
 13 26  1  0  0  0  0
M  END
> <Catalog ID>
Z45654211

> <PlateID>
1337959-R-08

> <Well>
C05

> <MW (desalted)>
252.265

> <CLogP>
1.962

> <HBD>
1

> <TPSA>
59.060

> <RotBonds>
2

> <ROCS_ShapeQuery>
x0446_0A_x1080_0A_x0929_0A_x0812_0A_x0719_0A_x1140_0A_x0528_0A_x0310_0A

> <ROCS_TanimotoCombo>
0.315 

> <ROCS_ShapeTanimoto>
0.220 

> <ROCS_ColorTanimoto>
0.095 

> <ROCS_RefTversky>
0.201 

> <ROCS_RefColorTversky>
0.105 

> <ROCS_RefTverskyCombo>
0.306 

> <ROCS_FitTversky>
1.787 

> <ROCS_FitColorTversky>
0.496 

> <ROCS_FitTverskyCombo>
2.283 

> <ROCS_ColorScore>
-3.751

> <ROCS_Overlap>
2369.162

> <ROCS_Rank>
230                 

$$$$
untitled-dbase-72_3
  -OEChem-02082415003D

 26 27  0     0  0  0  0  0  0999 V2000
    7.4379   13.6765   23.7134 C   0  0  0  0  0  0  0  0  0  0  0  0
    9.1480   14.8868   22.2766 C   0  0  0  0  0  0  0  0  0  0  0  0
    8.8128   10.4039   24.6733 C   0  0  0  0  0  0  0  0  0  0  0  0
    9.3794   10.5543   23.2671 C   0  0  0  0  0  0  0  0  0  0  0  0
    6.8909   14.2444   21.2739 C   0  0  0  0  0  0  0  0  0  0  0  0
    6.6768   15.4916   22.0713 C   0  0  0  0  0  0  0  0  0  0  0  0
    8.4431   11.8321   25.0432 C   0  0  0  0  0  0  0  0  0  0  0  0
    8.4835   11.6192   22.6502 C   0  0  0  0  0  0  0  0  0  0  0  0
    7.7427   14.5079   22.4932 C   0  0  0  0  0  0  0  0  0  0  0  0
    8.0811   12.4539   23.7779 N   0  0  0  0  0  0  0  0  0  0  0  0
    6.6658   14.0956   24.5771 O   0  0  0  0  0  0  0  0  0  0  0  0
    9.5581   15.5554   21.3395 O   0  0  0  0  0  0  0  0  0  0  0  0
    9.9352   14.3894   23.2616 O   0  0  0  0  0  0  0  0  0  0  0  0
    7.9172    9.7718   24.6547 H   0  0  0  0  0  0  0  0  0  0  0  0
    9.5342    9.9652   25.3681 H   0  0  0  0  0  0  0  0  0  0  0  0
   10.4152   10.9109   23.3124 H   0  0  0  0  0  0  0  0  0  0  0  0
    9.3592    9.6151   22.7074 H   0  0  0  0  0  0  0  0  0  0  0  0
    6.1246   13.4793   21.3212 H   0  0  0  0  0  0  0  0  0  0  0  0
    7.3508   14.3442   20.2975 H   0  0  0  0  0  0  0  0  0  0  0  0
    6.9926   16.4304   21.6312 H   0  0  0  0  0  0  0  0  0  0  0  0
    5.7664   15.5654   22.6549 H   0  0  0  0  0  0  0  0  0  0  0  0
    7.6165   11.8925   25.7572 H   0  0  0  0  0  0  0  0  0  0  0  0
    9.3017   12.3784   25.4490 H   0  0  0  0  0  0  0  0  0  0  0  0
    8.9934   12.2116   21.8853 H   0  0  0  0  0  0  0  0  0  0  0  0
    7.5777   11.1782   22.2201 H   0  0  0  0  0  0  0  0  0  0  0  0
   10.8776   14.6299   23.1340 H   0  0  0  0  0  0  0  0  0  0  0  0
  1  9  1  0  0  0  0
  1 10  1  0  0  0  0
  1 11  2  0  0  0  0
  2  9  1  0  0  0  0
  2 12  2  0  0  0  0
  2 13  1  0  0  0  0
  3  4  1  0  0  0  0
  3  7  1  0  0  0  0
  4  8  1  0  0  0  0
  5  6  1  0  0  0  0
  5  9  1  0  0  0  0
  6  9  1  0  0  0  0
  7 10  1  0  0  0  0
  8 10  1  0  0  0  0
  3 14  1  0  0  0  0
  3 15  1  0  0  0  0
  4 16  1  0  0  0  0
  4 17  1  0  0  0  0
  5 18  1  0  0  0  0
  5 19  1  0  0  0  0
  6 20  1  0  0  0  0
  6 21  1  0  0  0  0
  7 22  1  0  0  0  0
  7 23  1  0  0  0  0
  8 24  1  0  0  0  0
  8 25  1  0  0  0  0
 13 26  1  0  0  0  0
M  END
> <Catalog ID>
Z951182544

> <PlateID>
1337959-R-02

> <Well>
D02

> <MW (desalted)>
183.204

> <CLogP>
0.220

> <HBD>
1

> <TPSA>
57.610

> <RotBonds>
2

> <ROCS_ShapeQuery>
x0446_0A_x1080_0A_x0929_0A_x0812_0A_x0719_0A_x1140_0A_x0528_0A_x0310_0A

> <ROCS_TanimotoCombo>
0.315 

> <ROCS_ShapeTanimoto>
0.173 

> <ROCS_ColorTanimoto>
0.142 

> <ROCS_RefTversky>
0.162 

> <ROCS_RefColorTversky>
0.148 

> <ROCS_RefTverskyCombo>
0.310 

> <ROCS_FitTversky>
1.644 

> <ROCS_FitColorTversky>
0.794 

> <ROCS_FitTverskyCombo>
2.438 

> <ROCS_ColorScore>
-5.258

> <ROCS_Overlap>
1909.619

> <ROCS_Rank>
231                 

$$$$
untitled-dbase-435_16
  -OEChem-02082415003D

 26 27  0     0  0  0  0  0  0999 V2000
    7.7472   15.4438   22.6072 C   0  0  0  0  0  0  0  0  0  0  0  0
    8.3044   16.1433   21.5561 C   0  0  0  0  0  0  0  0  0  0  0  0
    9.6556   10.4292   23.7388 C   0  0  0  0  0  0  0  0  0  0  0  0
    8.3411   10.0338   23.7608 C   0  0  0  0  0  0  0  0  0  0  0  0
    8.6304   14.7041   23.3669 C   0  0  0  0  0  0  0  0  0  0  0  0
   10.3781   15.3706   22.0754 C   0  0  0  0  0  0  0  0  0  0  0  0
    8.5024   12.1030   24.2789 C   0  0  0  0  0  0  0  0  0  0  0  0
   10.8541    9.6396   23.4226 C   0  0  0  0  0  0  0  0  0  0  0  0
    7.6322    8.7758   23.5035 C   0  0  0  0  0  0  0  0  0  0  0  0
   11.8386   15.3266   21.7779 C   0  0  0  0  0  0  0  0  0  0  0  0
    9.6207   16.1293   21.2604 N   0  0  0  0  0  0  0  0  0  0  0  0
    9.7526   11.7562   24.0714 N   0  0  0  0  0  0  0  0  0  0  0  0
    9.9570   14.6444   23.1284 N   0  0  0  0  0  0  0  0  0  0  0  0
    7.5850   11.1118   24.1099 O   0  0  0  0  0  0  0  0  0  0  0  0
    8.0234   13.7586   24.7505 S   0  0  0  0  0  0  0  0  0  0  0  0
    6.6834   15.4859   22.8051 H   0  0  0  0  0  0  0  0  0  0  0  0
    7.6887   16.7522   20.9028 H   0  0  0  0  0  0  0  0  0  0  0  0
   11.0899    9.6782   22.3441 H   0  0  0  0  0  0  0  0  0  0  0  0
   11.7477    9.9952   23.9683 H   0  0  0  0  0  0  0  0  0  0  0  0
   10.7400    8.5745   23.6973 H   0  0  0  0  0  0  0  0  0  0  0  0
    7.5291    8.1716   24.4237 H   0  0  0  0  0  0  0  0  0  0  0  0
    6.6132    8.9386   23.1031 H   0  0  0  0  0  0  0  0  0  0  0  0
    8.1481    8.1452   22.7540 H   0  0  0  0  0  0  0  0  0  0  0  0
   12.3627   16.1256   22.3168 H   0  0  0  0  0  0  0  0  0  0  0  0
   12.2766   14.3638   22.0717 H   0  0  0  0  0  0  0  0  0  0  0  0
   12.0305   15.4478   20.7036 H   0  0  0  0  0  0  0  0  0  0  0  0
  1  2  1  0  0  0  0
  1  5  2  0  0  0  0
  2 11  2  0  0  0  0
  3  4  2  0  0  0  0
  3  8  1  0  0  0  0
  3 12  1  0  0  0  0
  4  9  1  0  0  0  0
  4 14  1  0  0  0  0
  5 13  1  0  0  0  0
  5 15  1  0  0  0  0
  6 10  1  0  0  0  0
  6 11  1  0  0  0  0
  6 13  2  0  0  0  0
  7 12  2  0  0  0  0
  7 14  1  0  0  0  0
  7 15  1  0  0  0  0
  1 16  1  0  0  0  0
  2 17  1  0  0  0  0
  8 18  1  0  0  0  0
  8 19  1  0  0  0  0
  8 20  1  0  0  0  0
  9 21  1  0  0  0  0
  9 22  1  0  0  0  0
  9 23  1  0  0  0  0
 10 24  1  0  0  0  0
 10 25  1  0  0  0  0
 10 26  1  0  0  0  0
M  END
> <Catalog ID>
Z1272163303

> <PlateID>
1337959-R-10

> <Well>
C08

> <MW (desalted)>
221.279

> <CLogP>
1.757

> <HBD>
0

> <TPSA>
51.810

> <RotBonds>
2

> <ROCS_ShapeQuery>
x0446_0A_x1080_0A_x0929_0A_x0812_0A_x0719_0A_x1140_0A_x0528_0A_x0310_0A

> <ROCS_TanimotoCombo>
0.315 

> <ROCS_ShapeTanimoto>
0.186 

> <ROCS_ColorTanimoto>
0.129 

> <ROCS_RefTversky>
0.174 

> <ROCS_RefColorTversky>
0.135 

> <ROCS_RefTverskyCombo>
0.309 

> <ROCS_FitTversky>
1.640 

> <ROCS_FitColorTversky>
0.729 

> <ROCS_FitTverskyCombo>
2.369 

> <ROCS_ColorScore>
-4.820

> <ROCS_Overlap>
2047.669

> <ROCS_Rank>
232                 

$$$$
untitled-dbase-533_37
  -OEChem-02082415003D

 31 32  0     0  0  0  0  0  0999 V2000
    5.8124   12.2736   24.6744 C   0  0  0  0  0  0  0  0  0  0  0  0
    6.0934   12.6803   23.3701 C   0  0  0  0  0  0  0  0  0  0  0  0
    6.7419   11.5123   25.3831 C   0  0  0  0  0  0  0  0  0  0  0  0
    7.3038   12.3256   22.7744 C   0  0  0  0  0  0  0  0  0  0  0  0
   12.8614   15.8917   21.4162 C   0  0  0  0  0  0  0  0  0  0  0  0
    7.9523   11.1577   24.7875 C   0  0  0  0  0  0  0  0  0  0  0  0
    8.2332   11.5643   23.4831 C   0  0  0  0  0  0  0  0  0  0  0  0
   11.5073   14.4334   22.7734 C   0  0  0  0  0  0  0  0  0  0  0  0
   11.6353   15.7294   23.2273 C   0  0  0  0  0  0  0  0  0  0  0  0
   10.7629   13.2810   23.3435 C   0  0  0  0  0  0  0  0  0  0  0  0
    8.9328   10.3431   25.5658 C   0  0  0  0  0  0  0  0  0  0  0  0
   11.0242   16.2873   24.4516 C   0  0  0  0  0  0  0  0  0  0  0  0
    9.5220   11.1961   22.8242 C   0  0  0  0  0  0  0  0  0  0  0  0
   12.4118   16.5670   22.4506 N   0  0  0  0  0  0  0  0  0  0  0  0
   10.2827   12.3532   22.4287 N   0  0  0  0  0  0  0  0  0  0  0  0
   10.5952   13.2169   24.5585 O   0  0  0  0  0  0  0  0  0  0  0  0
   12.3892   14.2450   21.3146 S   0  0  0  0  0  0  0  0  0  0  0  0
    4.8697   12.5493   25.1375 H   0  0  0  0  0  0  0  0  0  0  0  0
    5.3691   13.2728   22.8187 H   0  0  0  0  0  0  0  0  0  0  0  0
    6.5127   11.1991   26.3984 H   0  0  0  0  0  0  0  0  0  0  0  0
    7.5137   12.6477   21.7578 H   0  0  0  0  0  0  0  0  0  0  0  0
   13.4952   16.3438   20.6656 H   0  0  0  0  0  0  0  0  0  0  0  0
    8.7523    9.2742   25.4033 H   0  0  0  0  0  0  0  0  0  0  0  0
    9.9634   10.5728   25.2683 H   0  0  0  0  0  0  0  0  0  0  0  0
    8.8566   10.5514   26.6402 H   0  0  0  0  0  0  0  0  0  0  0  0
   11.6932   16.1656   25.3185 H   0  0  0  0  0  0  0  0  0  0  0  0
   10.8003   17.3621   24.3476 H   0  0  0  0  0  0  0  0  0  0  0  0
   10.0664   15.7973   24.6942 H   0  0  0  0  0  0  0  0  0  0  0  0
   10.1522   10.5993   23.4972 H   0  0  0  0  0  0  0  0  0  0  0  0
    9.3534   10.5900   21.9244 H   0  0  0  0  0  0  0  0  0  0  0  0
   10.4093   12.5101   21.4318 H   0  0  0  0  0  0  0  0  0  0  0  0
  1  2  2  0  0  0  0
  1  3  1  0  0  0  0
  2  4  1  0  0  0  0
  3  6  2  0  0  0  0
  4  7  2  0  0  0  0
  5 14  2  0  0  0  0
  5 17  1  0  0  0  0
  6  7  1  0  0  0  0
  6 11  1  0  0  0  0
  7 13  1  0  0  0  0
  8  9  2  0  0  0  0
  8 10  1  0  0  0  0
  8 17  1  0  0  0  0
  9 12  1  0  0  0  0
  9 14  1  0  0  0  0
 10 15  1  0  0  0  0
 10 16  2  0  0  0  0
 13 15  1  0  0  0  0
  1 18  1  0  0  0  0
  2 19  1  0  0  0  0
  3 20  1  0  0  0  0
  4 21  1  0  0  0  0
  5 22  1  0  0  0  0
 11 23  1  0  0  0  0
 11 24  1  0  0  0  0
 11 25  1  0  0  0  0
 12 26  1  0  0  0  0
 12 27  1  0  0  0  0
 12 28  1  0  0  0  0
 13 29  1  0  0  0  0
 13 30  1  0  0  0  0
 15 31  1  0  0  0  0
M  END
> <Catalog ID>
Z420031520

> <PlateID>
1337959-R-12

> <Well>
F02

> <MW (desalted)>
246.328

> <CLogP>
2.541

> <HBD>
1

> <TPSA>
41.990

> <RotBonds>
3

> <ROCS_ShapeQuery>
x0446_0A_x1080_0A_x0929_0A_x0812_0A_x0719_0A_x1140_0A_x0528_0A_x0310_0A

> <ROCS_TanimotoCombo>
0.315 

> <ROCS_ShapeTanimoto>
0.190 

> <ROCS_ColorTanimoto>
0.125 

> <ROCS_RefTversky>
0.178 

> <ROCS_RefColorTversky>
0.132 

> <ROCS_RefTverskyCombo>
0.309 

> <ROCS_FitTversky>
1.587 

> <ROCS_FitColorTversky>
0.709 

> <ROCS_FitTverskyCombo>
2.296 

> <ROCS_ColorScore>
-4.686

> <ROCS_Overlap>
2096.225

> <ROCS_Rank>
233                 

$$$$
untitled-dbase-403_20
  -OEChem-02082415003D

 29 30  0     0  0  0  0  0  0999 V2000
    4.5393   17.4021   22.9986 C   0  0  0  0  0  0  0  0  0  0  0  0
    5.8342   17.9173   22.9417 C   0  0  0  0  0  0  0  0  0  0  0  0
    4.3204   16.0407   22.7883 C   0  0  0  0  0  0  0  0  0  0  0  0
    7.7853   10.6619   24.7452 C   0  0  0  0  0  0  0  0  0  0  0  0
    6.9103   17.0710   22.6743 C   0  0  0  0  0  0  0  0  0  0  0  0
    5.3965   15.1944   22.5210 C   0  0  0  0  0  0  0  0  0  0  0  0
    7.6155   12.0256   24.5331 C   0  0  0  0  0  0  0  0  0  0  0  0
    9.9472   10.8321   23.7686 C   0  0  0  0  0  0  0  0  0  0  0  0
    8.9705   10.0461   24.3585 C   0  0  0  0  0  0  0  0  0  0  0  0
    6.6915   15.7096   22.4640 C   0  0  0  0  0  0  0  0  0  0  0  0
    8.6530   12.7229   23.9355 C   0  0  0  0  0  0  0  0  0  0  0  0
    9.1824    8.5895   24.5716 C   0  0  0  0  0  0  0  0  0  0  0  0
    9.8186   12.1594   23.5463 N   0  0  0  0  0  0  0  0  0  0  0  0
    8.5221   14.1351   23.6972 N   0  0  0  0  0  0  0  0  0  0  0  0
    9.1120   15.4635   21.5660 O   0  0  0  0  0  0  0  0  0  0  0  0
    7.5531   13.5068   21.3647 O   0  0  0  0  0  0  0  0  0  0  0  0
    8.0385   14.6512   22.1262 S   0  0  0  0  0  0  0  0  0  0  0  0
    3.7008   18.0606   23.2061 H   0  0  0  0  0  0  0  0  0  0  0  0
    6.0050   18.9774   23.1043 H   0  0  0  0  0  0  0  0  0  0  0  0
    3.3120   15.6401   22.8320 H   0  0  0  0  0  0  0  0  0  0  0  0
    6.9903   10.0873   25.2122 H   0  0  0  0  0  0  0  0  0  0  0  0
    7.9151   17.4829   22.6313 H   0  0  0  0  0  0  0  0  0  0  0  0
    5.2143   14.1357   22.3574 H   0  0  0  0  0  0  0  0  0  0  0  0
    6.6961   12.5184   24.8304 H   0  0  0  0  0  0  0  0  0  0  0  0
   10.8927   10.4072   23.4463 H   0  0  0  0  0  0  0  0  0  0  0  0
    8.8344    8.0174   23.7010 H   0  0  0  0  0  0  0  0  0  0  0  0
   10.2442    8.3568   24.7348 H   0  0  0  0  0  0  0  0  0  0  0  0
    8.6420    8.2297   25.4587 H   0  0  0  0  0  0  0  0  0  0  0  0
    9.2277   14.7182   24.1664 H   0  0  0  0  0  0  0  0  0  0  0  0
  1  2  2  0  0  0  0
  1  3  1  0  0  0  0
  2  5  1  0  0  0  0
  3  6  2  0  0  0  0
  4  7  1  0  0  0  0
  4  9  2  0  0  0  0
  5 10  2  0  0  0  0
  6 10  1  0  0  0  0
  7 11  2  0  0  0  0
  8  9  1  0  0  0  0
  8 13  2  0  0  0  0
  9 12  1  0  0  0  0
 10 17  1  0  0  0  0
 11 13  1  0  0  0  0
 11 14  1  0  0  0  0
 14 17  1  0  0  0  0
 15 17  2  0  0  0  0
 16 17  2  0  0  0  0
  1 18  1  0  0  0  0
  2 19  1  0  0  0  0
  3 20  1  0  0  0  0
  4 21  1  0  0  0  0
  5 22  1  0  0  0  0
  6 23  1  0  0  0  0
  7 24  1  0  0  0  0
  8 25  1  0  0  0  0
 12 26  1  0  0  0  0
 12 27  1  0  0  0  0
 12 28  1  0  0  0  0
 14 29  1  0  0  0  0
M  END
> <Catalog ID>
Z45683173

> <PlateID>
1337959-R-09

> <Well>
F02

> <MW (desalted)>
248.301

> <CLogP>
2.212

> <HBD>
1

> <TPSA>
59.060

> <RotBonds>
2

> <ROCS_ShapeQuery>
x0446_0A_x1080_0A_x0929_0A_x0812_0A_x0719_0A_x1140_0A_x0528_0A_x0310_0A

> <ROCS_TanimotoCombo>
0.315 

> <ROCS_ShapeTanimoto>
0.179 

> <ROCS_ColorTanimoto>
0.136 

> <ROCS_RefTversky>
0.169 

> <ROCS_RefColorTversky>
0.145 

> <ROCS_RefTverskyCombo>
0.314 

> <ROCS_FitTversky>
1.506 

> <ROCS_FitColorTversky>
0.685 

> <ROCS_FitTverskyCombo>
2.191 

> <ROCS_ColorScore>
-5.182

> <ROCS_Overlap>
1989.642

> <ROCS_Rank>
234                 

$$$$
untitled-dbase-559_1
  -OEChem-02082415003D

 28 29  0     0  0  0  0  0  0999 V2000
    7.2781   12.1656   24.7296 C   0  0  0  0  0  0  0  0  0  0  0  0
    7.1934   13.4572   24.2066 C   0  0  0  0  0  0  0  0  0  0  0  0
    8.6220   12.8392   22.3341 C   0  0  0  0  0  0  0  0  0  0  0  0
    8.7061   11.5669   22.8686 C   0  0  0  0  0  0  0  0  0  0  0  0
    8.0452   11.2438   24.0443 C   0  0  0  0  0  0  0  0  0  0  0  0
    7.8621   13.7925   23.0172 C   0  0  0  0  0  0  0  0  0  0  0  0
    9.3770   10.3614   22.3358 C   0  0  0  0  0  0  0  0  0  0  0  0
    9.2960    9.4727   23.5779 C   0  0  0  0  0  0  0  0  0  0  0  0
    3.9386   15.5254   21.1590 C   0  0  0  0  0  0  0  0  0  0  0  0
    5.0602   14.9144   21.9279 C   0  0  0  0  0  0  0  0  0  0  0  0
    6.3617   15.2989   21.3633 N   0  0  0  0  0  0  0  0  0  0  0  0
    7.4229   16.3238   23.4752 O   0  0  0  0  0  0  0  0  0  0  0  0
    8.9043   15.6620   21.5538 O   0  0  0  0  0  0  0  0  0  0  0  0
    8.2183    9.9373   24.4251 O   0  0  0  0  0  0  0  0  0  0  0  0
    7.7306   15.4140   22.3797 S   0  0  0  0  0  0  0  0  0  0  0  0
    6.7599   11.9022   25.6448 H   0  0  0  0  0  0  0  0  0  0  0  0
    6.5994   14.2029   24.7293 H   0  0  0  0  0  0  0  0  0  0  0  0
    9.1282   13.0840   21.4059 H   0  0  0  0  0  0  0  0  0  0  0  0
    8.7970    9.9385   21.5093 H   0  0  0  0  0  0  0  0  0  0  0  0
   10.4103   10.5303   22.0223 H   0  0  0  0  0  0  0  0  0  0  0  0
    9.1218    8.4248   23.3126 H   0  0  0  0  0  0  0  0  0  0  0  0
   10.2244    9.5238   24.1612 H   0  0  0  0  0  0  0  0  0  0  0  0
    3.9846   15.1891   20.1127 H   0  0  0  0  0  0  0  0  0  0  0  0
    2.9799   15.2167   21.6014 H   0  0  0  0  0  0  0  0  0  0  0  0
    4.0233   16.6215   21.1957 H   0  0  0  0  0  0  0  0  0  0  0  0
    5.0071   15.2554   22.9724 H   0  0  0  0  0  0  0  0  0  0  0  0
    4.9638   13.8191   21.8944 H   0  0  0  0  0  0  0  0  0  0  0  0
    6.5015   15.0865   20.3679 H   0  0  0  0  0  0  0  0  0  0  0  0
  1  2  1  0  0  0  0
  1  5  2  0  0  0  0
  2  6  2  0  0  0  0
  3  4  2  0  0  0  0
  3  6  1  0  0  0  0
  4  5  1  0  0  0  0
  4  7  1  0  0  0  0
  5 14  1  0  0  0  0
  6 15  1  0  0  0  0
  7  8  1  0  0  0  0
  8 14  1  0  0  0  0
  9 10  1  0  0  0  0
 10 11  1  0  0  0  0
 11 15  1  0  0  0  0
 12 15  2  0  0  0  0
 13 15  2  0  0  0  0
  1 16  1  0  0  0  0
  2 17  1  0  0  0  0
  3 18  1  0  0  0  0
  7 19  1  0  0  0  0
  7 20  1  0  0  0  0
  8 21  1  0  0  0  0
  8 22  1  0  0  0  0
  9 23  1  0  0  0  0
  9 24  1  0  0  0  0
  9 25  1  0  0  0  0
 10 26  1  0  0  0  0
 10 27  1  0  0  0  0
 11 28  1  0  0  0  0
M  END
> <Catalog ID>
Z53038500

> <PlateID>
1337959-R-13

> <Well>
B03

> <MW (desalted)>
227.280

> <CLogP>
1.863

> <HBD>
1

> <TPSA>
55.400

> <RotBonds>
2

> <ROCS_ShapeQuery>
x0446_0A_x1080_0A_x0929_0A_x0812_0A_x0719_0A_x1140_0A_x0528_0A_x0310_0A

> <ROCS_TanimotoCombo>
0.315 

> <ROCS_ShapeTanimoto>
0.180 

> <ROCS_ColorTanimoto>
0.135 

> <ROCS_RefTversky>
0.169 

> <ROCS_RefColorTversky>
0.144 

> <ROCS_RefTverskyCombo>
0.313 

> <ROCS_FitTversky>
1.616 

> <ROCS_FitColorTversky>
0.677 

> <ROCS_FitTverskyCombo>
2.292 

> <ROCS_ColorScore>
-5.130

> <ROCS_Overlap>
1989.385

> <ROCS_Rank>
235                 

$$$$
untitled-dbase-479_1
  -OEChem-02082415003D

 33 34  0     0  0  0  0  0  0999 V2000
   11.7105   12.0485   23.7036 C   0  0  0  0  0  0  0  0  0  0  0  0
   10.8247   13.0349   23.2700 C   0  0  0  0  0  0  0  0  0  0  0  0
    6.9405   13.1868   25.8503 C   0  0  0  0  0  0  0  0  0  0  0  0
    9.1836   11.3370   22.7595 C   0  0  0  0  0  0  0  0  0  0  0  0
    6.2900   12.0082   26.1228 C   0  0  0  0  0  0  0  0  0  0  0  0
   11.3328   10.7062   23.6650 C   0  0  0  0  0  0  0  0  0  0  0  0
   10.0694   10.3505   23.1930 C   0  0  0  0  0  0  0  0  0  0  0  0
    9.5613   12.6792   22.7980 C   0  0  0  0  0  0  0  0  0  0  0  0
    6.9941   13.2423   24.4447 C   0  0  0  0  0  0  0  0  0  0  0  0
   12.3000    9.6683   24.1317 C   0  0  0  0  0  0  0  0  0  0  0  0
    9.6440    8.9199   23.1408 C   0  0  0  0  0  0  0  0  0  0  0  0
    5.3272   10.1972   24.6830 C   0  0  0  0  0  0  0  0  0  0  0  0
    6.4234   12.1831   23.8647 N   0  0  0  0  0  0  0  0  0  0  0  0
    6.0050   11.4509   24.9111 N   0  0  0  0  0  0  0  0  0  0  0  0
    7.5930   14.3137   23.6953 N   0  0  0  0  0  0  0  0  0  0  0  0
    7.5169   13.2958   21.3262 O   0  0  0  0  0  0  0  0  0  0  0  0
    9.2235   15.0706   21.8130 O   0  0  0  0  0  0  0  0  0  0  0  0
    8.4533   13.9151   22.2566 S   0  0  0  0  0  0  0  0  0  0  0  0
   12.6939   12.3350   24.0671 H   0  0  0  0  0  0  0  0  0  0  0  0
   11.1289   14.0775   23.3045 H   0  0  0  0  0  0  0  0  0  0  0  0
    7.3154   13.8998   26.5704 H   0  0  0  0  0  0  0  0  0  0  0  0
    8.1991   11.0591   22.3904 H   0  0  0  0  0  0  0  0  0  0  0  0
    6.0126   11.5331   27.0537 H   0  0  0  0  0  0  0  0  0  0  0  0
   12.1699    9.4827   25.2041 H   0  0  0  0  0  0  0  0  0  0  0  0
   12.1574    8.7231   23.5935 H   0  0  0  0  0  0  0  0  0  0  0  0
   13.3358    9.9835   23.9544 H   0  0  0  0  0  0  0  0  0  0  0  0
    9.9151    8.4779   22.1751 H   0  0  0  0  0  0  0  0  0  0  0  0
   10.1193    8.3356   23.9384 H   0  0  0  0  0  0  0  0  0  0  0  0
    8.5597    8.8235   23.2775 H   0  0  0  0  0  0  0  0  0  0  0  0
    4.2552   10.4006   24.6163 H   0  0  0  0  0  0  0  0  0  0  0  0
    5.6903    9.7510   23.7530 H   0  0  0  0  0  0  0  0  0  0  0  0
    5.5375    9.5166   25.5127 H   0  0  0  0  0  0  0  0  0  0  0  0
    7.9960   15.0671   24.2679 H   0  0  0  0  0  0  0  0  0  0  0  0
  1  2  1  0  0  0  0
  1  6  2  0  0  0  0
  2  8  2  0  0  0  0
  3  5  2  0  0  0  0
  3  9  1  0  0  0  0
  4  7  2  0  0  0  0
  4  8  1  0  0  0  0
  5 14  1  0  0  0  0
  6  7  1  0  0  0  0
  6 10  1  0  0  0  0
  7 11  1  0  0  0  0
  8 18  1  0  0  0  0
  9 13  2  0  0  0  0
  9 15  1  0  0  0  0
 12 14  1  0  0  0  0
 13 14  1  0  0  0  0
 15 18  1  0  0  0  0
 16 18  2  0  0  0  0
 17 18  2  0  0  0  0
  1 19  1  0  0  0  0
  2 20  1  0  0  0  0
  3 21  1  0  0  0  0
  4 22  1  0  0  0  0
  5 23  1  0  0  0  0
 10 24  1  0  0  0  0
 10 25  1  0  0  0  0
 10 26  1  0  0  0  0
 11 27  1  0  0  0  0
 11 28  1  0  0  0  0
 11 29  1  0  0  0  0
 12 30  1  0  0  0  0
 12 31  1  0  0  0  0
 12 32  1  0  0  0  0
 15 33  1  0  0  0  0
M  END
> <Catalog ID>
Z123605552

> <PlateID>
1337959-R-11

> <Well>
E02

> <MW (desalted)>
265.331

> <CLogP>
1.952

> <HBD>
1

> <TPSA>
63.990

> <RotBonds>
2

> <ROCS_ShapeQuery>
x0446_0A_x1080_0A_x0929_0A_x0812_0A_x0719_0A_x1140_0A_x0528_0A_x0310_0A

> <ROCS_TanimotoCombo>
0.315 

> <ROCS_ShapeTanimoto>
0.204 

> <ROCS_ColorTanimoto>
0.111 

> <ROCS_RefTversky>
0.189 

> <ROCS_RefColorTversky>
0.121 

> <ROCS_RefTverskyCombo>
0.310 

> <ROCS_FitTversky>
1.631 

> <ROCS_FitColorTversky>
0.570 

> <ROCS_FitTverskyCombo>
2.201 

> <ROCS_ColorScore>
-4.308

> <ROCS_Overlap>
2230.401

> <ROCS_Rank>
236                 

$$$$
untitled-dbase-668_5
  -OEChem-02082415003D

 32 33  0     0  0  0  0  0  0999 V2000
    9.2768   12.6808   23.6227 C   0  0  0  0  0  0  0  0  0  0  0  0
    7.5573   11.1925   23.6158 C   0  0  0  0  0  0  0  0  0  0  0  0
   10.7619   11.0470   24.8767 C   0  0  0  0  0  0  0  0  0  0  0  0
   10.7532   11.0672   22.3327 C   0  0  0  0  0  0  0  0  0  0  0  0
   12.1443   11.6992   24.8115 C   0  0  0  0  0  0  0  0  0  0  0  0
   12.1359   11.7186   22.3987 C   0  0  0  0  0  0  0  0  0  0  0  0
    9.9387   11.2926   23.6094 C   0  0  0  0  0  0  0  0  0  0  0  0
    7.8216   14.5582   25.8367 C   0  0  0  0  0  0  0  0  0  0  0  0
    6.6124   14.0736   25.0495 C   0  0  0  0  0  0  0  0  0  0  0  0
    6.9691   13.6297   23.6359 C   0  0  0  0  0  0  0  0  0  0  0  0
    8.7461   10.4651   23.6068 N   0  0  0  0  0  0  0  0  0  0  0  0
   12.8648   11.3132   23.5994 N   0  0  0  0  0  0  0  0  0  0  0  0
    7.9073   12.5250   23.6244 N   0  0  0  0  0  0  0  0  0  0  0  0
    9.8889   13.7416   23.6304 O   0  0  0  0  0  0  0  0  0  0  0  0
    6.4311   10.7127   23.6163 O   0  0  0  0  0  0  0  0  0  0  0  0
   10.8983    9.9660   25.0184 H   0  0  0  0  0  0  0  0  0  0  0  0
   10.2354   11.4214   25.7637 H   0  0  0  0  0  0  0  0  0  0  0  0
   10.2205   11.4553   21.4554 H   0  0  0  0  0  0  0  0  0  0  0  0
   10.8888    9.9887   22.1733 H   0  0  0  0  0  0  0  0  0  0  0  0
   12.0615   12.7908   24.8724 H   0  0  0  0  0  0  0  0  0  0  0  0
   12.7267   11.3806   25.6831 H   0  0  0  0  0  0  0  0  0  0  0  0
   12.7125   11.4142   21.5178 H   0  0  0  0  0  0  0  0  0  0  0  0
   12.0526   12.8105   22.3559 H   0  0  0  0  0  0  0  0  0  0  0  0
    8.5773   13.7705   25.9190 H   0  0  0  0  0  0  0  0  0  0  0  0
    8.2800   15.4154   25.3330 H   0  0  0  0  0  0  0  0  0  0  0  0
    7.5404   14.8734   26.8462 H   0  0  0  0  0  0  0  0  0  0  0  0
    5.8827   14.8896   24.9908 H   0  0  0  0  0  0  0  0  0  0  0  0
    6.1350   13.2500   25.5935 H   0  0  0  0  0  0  0  0  0  0  0  0
    6.0699   13.2911   23.1117 H   0  0  0  0  0  0  0  0  0  0  0  0
    7.4101   14.4501   23.0611 H   0  0  0  0  0  0  0  0  0  0  0  0
    8.7708    9.4500   23.5994 H   0  0  0  0  0  0  0  0  0  0  0  0
   13.7829   11.7568   23.5997 H   0  0  0  0  0  0  0  0  0  0  0  0
  1  7  1  0  0  0  0
  1 13  1  0  0  0  0
  1 14  2  0  0  0  0
  2 11  1  0  0  0  0
  2 13  1  0  0  0  0
  2 15  2  0  0  0  0
  3  5  1  0  0  0  0
  3  7  1  0  0  0  0
  4  6  1  0  0  0  0
  4  7  1  0  0  0  0
  5 12  1  0  0  0  0
  6 12  1  0  0  0  0
  7 11  1  0  0  0  0
  8  9  1  0  0  0  0
  9 10  1  0  0  0  0
 10 13  1  0  0  0  0
  3 16  1  0  0  0  0
  3 17  1  0  0  0  0
  4 18  1  0  0  0  0
  4 19  1  0  0  0  0
  5 20  1  0  0  0  0
  5 21  1  0  0  0  0
  6 22  1  0  0  0  0
  6 23  1  0  0  0  0
  8 24  1  0  0  0  0
  8 25  1  0  0  0  0
  8 26  1  0  0  0  0
  9 27  1  0  0  0  0
  9 28  1  0  0  0  0
 10 29  1  0  0  0  0
 10 30  1  0  0  0  0
 11 31  1  0  0  0  0
 12 32  1  0  0  0  0
M  END
> <Catalog ID>
Z4515406665

> <PlateID>
1337959-R-15

> <Well>
F09

> <MW (desalted)>
211.261

> <CLogP>
-0.435

> <HBD>
2

> <TPSA>
61.440

> <RotBonds>
2

> <ROCS_ShapeQuery>
x0446_0A_x1080_0A_x0929_0A_x0812_0A_x0719_0A_x1140_0A_x0528_0A_x0310_0A

> <ROCS_TanimotoCombo>
0.315 

> <ROCS_ShapeTanimoto>
0.191 

> <ROCS_ColorTanimoto>
0.123 

> <ROCS_RefTversky>
0.178 

> <ROCS_RefColorTversky>
0.139 

> <ROCS_RefTverskyCombo>
0.316 

> <ROCS_FitTversky>
1.678 

> <ROCS_FitColorTversky>
0.525 

> <ROCS_FitTverskyCombo>
2.202 

> <ROCS_ColorScore>
-4.962

> <ROCS_Overlap>
2093.948

> <ROCS_Rank>
237                 

$$$$
untitled-dbase-77_6
  -OEChem-02082415003D

 21 22  0     0  0  0  0  0  0999 V2000
   10.7931    9.9944   23.9474 C   0  0  0  0  0  0  0  0  0  0  0  0
   11.6806   10.9636   23.4797 C   0  0  0  0  0  0  0  0  0  0  0  0
    9.4702   10.3370   24.2270 C   0  0  0  0  0  0  0  0  0  0  0  0
   11.2452   12.2754   23.2918 C   0  0  0  0  0  0  0  0  0  0  0  0
    5.6131   12.6922   24.6002 C   0  0  0  0  0  0  0  0  0  0  0  0
    9.0348   11.6488   24.0392 C   0  0  0  0  0  0  0  0  0  0  0  0
    6.7759   12.9189   23.8437 C   0  0  0  0  0  0  0  0  0  0  0  0
    9.9223   12.6180   23.5715 C   0  0  0  0  0  0  0  0  0  0  0  0
    7.6658   11.9984   24.3305 C   0  0  0  0  0  0  0  0  0  0  0  0
    7.0128   13.8732   22.8043 C   0  0  0  0  0  0  0  0  0  0  0  0
    5.7698   11.7064   25.4882 N   0  0  0  0  0  0  0  0  0  0  0  0
    7.3330   13.6173   21.6243 O   0  0  0  0  0  0  0  0  0  0  0  0
    7.0770   11.2688   25.3124 O   0  0  0  0  0  0  0  0  0  0  0  0
    6.8545   15.1721   23.2119 O   0  0  0  0  0  0  0  0  0  0  0  0
    9.5192   13.8836   23.3855 F   0  0  0  0  0  0  0  0  0  0  0  0
   11.1323    8.9730   24.0932 H   0  0  0  0  0  0  0  0  0  0  0  0
   12.7105   10.6968   23.2614 H   0  0  0  0  0  0  0  0  0  0  0  0
    8.7908    9.5698   24.5909 H   0  0  0  0  0  0  0  0  0  0  0  0
   11.9360   13.0299   22.9273 H   0  0  0  0  0  0  0  0  0  0  0  0
    4.6593   13.1970   24.5464 H   0  0  0  0  0  0  0  0  0  0  0  0
    7.0140   15.8343   22.5060 H   0  0  0  0  0  0  0  0  0  0  0  0
  1  2  2  0  0  0  0
  1  3  1  0  0  0  0
  2  4  1  0  0  0  0
  3  6  2  0  0  0  0
  4  8  2  0  0  0  0
  5  7  1  0  0  0  0
  5 11  2  0  0  0  0
  6  8  1  0  0  0  0
  6  9  1  0  0  0  0
  7  9  2  0  0  0  0
  7 10  1  0  0  0  0
  8 15  1  0  0  0  0
  9 13  1  0  0  0  0
 10 12  2  0  0  0  0
 10 14  1  0  0  0  0
 11 13  1  0  0  0  0
  1 16  1  0  0  0  0
  2 17  1  0  0  0  0
  3 18  1  0  0  0  0
  4 19  1  0  0  0  0
  5 20  1  0  0  0  0
 14 21  1  0  0  0  0
M  END
> <Catalog ID>
Z1474207688

> <PlateID>
1337959-R-02

> <Well>
D07

> <MW (desalted)>
207.158

> <CLogP>
1.792

> <HBD>
1

> <TPSA>
63.330

> <RotBonds>
2

> <ROCS_ShapeQuery>
x0446_0A_x1080_0A_x0929_0A_x0812_0A_x0719_0A_x1140_0A_x0528_0A_x0310_0A

> <ROCS_TanimotoCombo>
0.314 

> <ROCS_ShapeTanimoto>
0.206 

> <ROCS_ColorTanimoto>
0.108 

> <ROCS_RefTversky>
0.189 

> <ROCS_RefColorTversky>
0.119 

> <ROCS_RefTverskyCombo>
0.308 

> <ROCS_FitTversky>
1.749 

> <ROCS_FitColorTversky>
0.559 

> <ROCS_FitTverskyCombo>
2.308 

> <ROCS_ColorScore>
-4.229

> <ROCS_Overlap>
2231.736

> <ROCS_Rank>
238                 

$$$$
untitled-dbase-294_15
  -OEChem-02082415003D

 26 27  0     0  0  0  0  0  0999 V2000
    8.6928   14.3575   22.0539 C   0  0  0  0  0  0  0  0  0  0  0  0
    7.1098   14.6351   20.7514 C   0  0  0  0  0  0  0  0  0  0  0  0
    8.2601    9.8922   24.2546 C   0  0  0  0  0  0  0  0  0  0  0  0
    8.9518   10.0100   23.1154 C   0  0  0  0  0  0  0  0  0  0  0  0
    7.9671   11.0436   25.0646 C   0  0  0  0  0  0  0  0  0  0  0  0
    8.3913   12.2513   24.6773 C   0  0  0  0  0  0  0  0  0  0  0  0
    9.4349   11.3520   22.6681 C   0  0  0  0  0  0  0  0  0  0  0  0
    6.1494   14.5164   18.4383 C   0  0  0  0  0  0  0  0  0  0  0  0
    9.5471   13.7680   23.1388 C   0  0  0  0  0  0  0  0  0  0  0  0
    5.8810   14.6194   19.9463 C   0  0  0  0  0  0  0  0  0  0  0  0
    7.4856   13.8238   21.7075 N   0  0  0  0  0  0  0  0  0  0  0  0
    9.0681   15.4402   21.3665 N   0  0  0  0  0  0  0  0  0  0  0  0
    9.1119   12.4263   23.5076 N   0  0  0  0  0  0  0  0  0  0  0  0
   10.0705   11.4326   21.6180 O   0  0  0  0  0  0  0  0  0  0  0  0
    7.9969   15.6290   20.4841 O   0  0  0  0  0  0  0  0  0  0  0  0
    7.9035    8.9255   24.5919 H   0  0  0  0  0  0  0  0  0  0  0  0
    9.1786    9.1512   22.4948 H   0  0  0  0  0  0  0  0  0  0  0  0
    7.4028   10.9092   25.9798 H   0  0  0  0  0  0  0  0  0  0  0  0
    8.1868   13.1391   25.2652 H   0  0  0  0  0  0  0  0  0  0  0  0
    6.8038   15.3295   18.1064 H   0  0  0  0  0  0  0  0  0  0  0  0
    5.2212   14.5711   17.8609 H   0  0  0  0  0  0  0  0  0  0  0  0
    6.6430   13.5686   18.1982 H   0  0  0  0  0  0  0  0  0  0  0  0
   10.5924   13.7070   22.8168 H   0  0  0  0  0  0  0  0  0  0  0  0
    9.5203   14.3884   24.0407 H   0  0  0  0  0  0  0  0  0  0  0  0
    5.2166   13.7786   20.2351 H   0  0  0  0  0  0  0  0  0  0  0  0
    5.2667   15.5265   20.1247 H   0  0  0  0  0  0  0  0  0  0  0  0
  1  9  1  0  0  0  0
  1 11  1  0  0  0  0
  1 12  2  0  0  0  0
  2 10  1  0  0  0  0
  2 11  2  0  0  0  0
  2 15  1  0  0  0  0
  3  4  2  0  0  0  0
  3  5  1  0  0  0  0
  4  7  1  0  0  0  0
  5  6  2  0  0  0  0
  6 13  1  0  0  0  0
  7 13  1  0  0  0  0
  7 14  2  0  0  0  0
  8 10  1  0  0  0  0
  9 13  1  0  0  0  0
 12 15  1  0  0  0  0
  3 16  1  0  0  0  0
  4 17  1  0  0  0  0
  5 18  1  0  0  0  0
  6 19  1  0  0  0  0
  8 20  1  0  0  0  0
  8 21  1  0  0  0  0
  8 22  1  0  0  0  0
  9 23  1  0  0  0  0
  9 24  1  0  0  0  0
 10 25  1  0  0  0  0
 10 26  1  0  0  0  0
M  END
> <Catalog ID>
Z1162778919

> <PlateID>
1337959-R-07

> <Well>
B05

> <MW (desalted)>
205.213

> <CLogP>
-0.168

> <HBD>
0

> <TPSA>
59.230

> <RotBonds>
3

> <ROCS_ShapeQuery>
x0446_0A_x1080_0A_x0929_0A_x0812_0A_x0719_0A_x1140_0A_x0528_0A_x0310_0A

> <ROCS_TanimotoCombo>
0.314 

> <ROCS_ShapeTanimoto>
0.176 

> <ROCS_ColorTanimoto>
0.138 

> <ROCS_RefTversky>
0.166 

> <ROCS_RefColorTversky>
0.147 

> <ROCS_RefTverskyCombo>
0.313 

> <ROCS_FitTversky>
1.550 

> <ROCS_FitColorTversky>
0.691 

> <ROCS_FitTverskyCombo>
2.242 

> <ROCS_ColorScore>
-5.233

> <ROCS_Overlap>
1957.148

> <ROCS_Rank>
239                 

$$$$
untitled-dbase-531_16
  -OEChem-02082415003D

 30 31  0     0  0  0  0  0  0999 V2000
    9.3865   10.1248   23.7153 C   0  0  0  0  0  0  0  0  0  0  0  0
   10.7510   14.8545   21.4740 C   0  0  0  0  0  0  0  0  0  0  0  0
   11.5401   15.9934   21.4723 C   0  0  0  0  0  0  0  0  0  0  0  0
   12.6844   15.3119   23.3443 C   0  0  0  0  0  0  0  0  0  0  0  0
   10.9655   13.9156   22.4769 C   0  0  0  0  0  0  0  0  0  0  0  0
   11.9487   14.1411   23.4339 C   0  0  0  0  0  0  0  0  0  0  0  0
   10.1243   12.6912   22.4862 C   0  0  0  0  0  0  0  0  0  0  0  0
    7.8578   11.3627   25.1920 C   0  0  0  0  0  0  0  0  0  0  0  0
    7.4744   11.2735   22.6789 C   0  0  0  0  0  0  0  0  0  0  0  0
    6.9065   12.5372   25.4027 C   0  0  0  0  0  0  0  0  0  0  0  0
    6.4912   12.4406   22.6802 C   0  0  0  0  0  0  0  0  0  0  0  0
    8.5295   11.3259   23.8034 C   0  0  0  0  0  0  0  0  0  0  0  0
   10.0592    9.1821   23.6461 N   0  0  0  0  0  0  0  0  0  0  0  0
   12.5047   16.2472   22.3848 N   0  0  0  0  0  0  0  0  0  0  0  0
    9.3812   12.4887   23.6323 N   0  0  0  0  0  0  0  0  0  0  0  0
   10.1492   11.9387   21.5158 O   0  0  0  0  0  0  0  0  0  0  0  0
    5.5326   12.5167   24.2183 S   0  0  0  0  0  0  0  0  0  0  0  0
   12.2740   13.0274   24.7045 Cl  0  0  0  0  0  0  0  0  0  0  0  0
    9.9929   14.7118   20.7109 H   0  0  0  0  0  0  0  0  0  0  0  0
   11.4125   16.7563   20.7114 H   0  0  0  0  0  0  0  0  0  0  0  0
   13.4667   15.5480   24.0597 H   0  0  0  0  0  0  0  0  0  0  0  0
    8.6300   11.3905   25.9721 H   0  0  0  0  0  0  0  0  0  0  0  0
    7.2902   10.4374   25.3541 H   0  0  0  0  0  0  0  0  0  0  0  0
    6.8940   10.3452   22.7582 H   0  0  0  0  0  0  0  0  0  0  0  0
    7.9787   11.2392   21.7043 H   0  0  0  0  0  0  0  0  0  0  0  0
    6.4999   12.5437   26.4189 H   0  0  0  0  0  0  0  0  0  0  0  0
    7.4510   13.4774   25.2686 H   0  0  0  0  0  0  0  0  0  0  0  0
    7.0417   13.3820   22.5811 H   0  0  0  0  0  0  0  0  0  0  0  0
    5.8006   12.3819   21.8327 H   0  0  0  0  0  0  0  0  0  0  0  0
    9.4546   13.1155   24.4216 H   0  0  0  0  0  0  0  0  0  0  0  0
  1 12  1  0  0  0  0
  1 13  3  0  0  0  0
  2  3  1  0  0  0  0
  2  5  2  0  0  0  0
  3 14  2  0  0  0  0
  4  6  2  0  0  0  0
  4 14  1  0  0  0  0
  5  6  1  0  0  0  0
  5  7  1  0  0  0  0
  6 18  1  0  0  0  0
  7 15  1  0  0  0  0
  7 16  2  0  0  0  0
  8 10  1  0  0  0  0
  8 12  1  0  0  0  0
  9 11  1  0  0  0  0
  9 12  1  0  0  0  0
 10 17  1  0  0  0  0
 11 17  1  0  0  0  0
 12 15  1  0  0  0  0
  2 19  1  0  0  0  0
  3 20  1  0  0  0  0
  4 21  1  0  0  0  0
  8 22  1  0  0  0  0
  8 23  1  0  0  0  0
  9 24  1  0  0  0  0
  9 25  1  0  0  0  0
 10 26  1  0  0  0  0
 10 27  1  0  0  0  0
 11 28  1  0  0  0  0
 11 29  1  0  0  0  0
 15 30  1  0  0  0  0
M  END
> <Catalog ID>
Z1517962270

> <PlateID>
1337959-R-12

> <Well>
E09

> <MW (desalted)>
281.761

> <CLogP>
0.021

> <HBD>
1

> <TPSA>
65.780

> <RotBonds>
2

> <ROCS_ShapeQuery>
x0446_0A_x1080_0A_x0929_0A_x0812_0A_x0719_0A_x1140_0A_x0528_0A_x0310_0A

> <ROCS_TanimotoCombo>
0.314 

> <ROCS_ShapeTanimoto>
0.219 

> <ROCS_ColorTanimoto>
0.095 

> <ROCS_RefTversky>
0.200 

> <ROCS_RefColorTversky>
0.106 

> <ROCS_RefTverskyCombo>
0.306 

> <ROCS_FitTversky>
1.745 

> <ROCS_FitColorTversky>
0.498 

> <ROCS_FitTverskyCombo>
2.243 

> <ROCS_ColorScore>
-3.763

> <ROCS_Overlap>
2359.937

> <ROCS_Rank>
240                 

$$$$
untitled-dbase-125_4
  -OEChem-02082415003D

 31 33  0     0  0  0  0  0  0999 V2000
   10.7157   13.6103   22.8434 C   0  0  0  0  0  0  0  0  0  0  0  0
    9.0625   12.4904   23.5782 C   0  0  0  0  0  0  0  0  0  0  0  0
    9.9564   11.5702   23.0828 C   0  0  0  0  0  0  0  0  0  0  0  0
    9.7719   10.1064   23.0824 C   0  0  0  0  0  0  0  0  0  0  0  0
    5.3042   12.0808   25.7011 C   0  0  0  0  0  0  0  0  0  0  0  0
    5.4361   13.2007   24.6809 C   0  0  0  0  0  0  0  0  0  0  0  0
    6.5851   11.8895   26.5132 C   0  0  0  0  0  0  0  0  0  0  0  0
    6.5957   12.9938   23.6966 C   0  0  0  0  0  0  0  0  0  0  0  0
    7.8572   12.3111   25.7688 C   0  0  0  0  0  0  0  0  0  0  0  0
    8.6242    9.7727   24.0586 C   0  0  0  0  0  0  0  0  0  0  0  0
    7.7636   12.1214   24.2384 C   0  0  0  0  0  0  0  0  0  0  0  0
    9.5496   13.7645   23.4378 N   0  0  0  0  0  0  0  0  0  0  0  0
   11.0065   12.2913   22.6046 N   0  0  0  0  0  0  0  0  0  0  0  0
    7.4704   10.6866   23.9156 N   0  0  0  0  0  0  0  0  0  0  0  0
   11.3934   14.4036   22.5609 H   0  0  0  0  0  0  0  0  0  0  0  0
    9.5084    9.7736   22.0731 H   0  0  0  0  0  0  0  0  0  0  0  0
   10.6854    9.5887   23.3869 H   0  0  0  0  0  0  0  0  0  0  0  0
    4.4689   12.2933   26.3795 H   0  0  0  0  0  0  0  0  0  0  0  0
    5.0606   11.1425   25.1854 H   0  0  0  0  0  0  0  0  0  0  0  0
    4.4956   13.2868   24.1114 H   0  0  0  0  0  0  0  0  0  0  0  0
    5.5500   14.1643   25.2019 H   0  0  0  0  0  0  0  0  0  0  0  0
    6.5039   12.4451   27.4646 H   0  0  0  0  0  0  0  0  0  0  0  0
    6.6724   10.8270   26.8026 H   0  0  0  0  0  0  0  0  0  0  0  0
    6.1766   12.5180   22.7961 H   0  0  0  0  0  0  0  0  0  0  0  0
    6.9653   13.9793   23.3768 H   0  0  0  0  0  0  0  0  0  0  0  0
    8.0770   13.3548   26.0270 H   0  0  0  0  0  0  0  0  0  0  0  0
    8.6905   11.7114   26.1617 H   0  0  0  0  0  0  0  0  0  0  0  0
    8.2868    8.7445   23.8785 H   0  0  0  0  0  0  0  0  0  0  0  0
    8.9875    9.7937   25.0940 H   0  0  0  0  0  0  0  0  0  0  0  0
   11.8396   11.9308   22.1584 H   0  0  0  0  0  0  0  0  0  0  0  0
    7.1292   10.6219   22.9584 H   0  0  0  0  0  0  0  0  0  0  0  0
  1 12  2  0  0  0  0
  1 13  1  0  0  0  0
  2  3  2  0  0  0  0
  2 11  1  0  0  0  0
  2 12  1  0  0  0  0
  3  4  1  0  0  0  0
  3 13  1  0  0  0  0
  4 10  1  0  0  0  0
  5  6  1  0  0  0  0
  5  7  1  0  0  0  0
  6  8  1  0  0  0  0
  7  9  1  0  0  0  0
  8 11  1  0  0  0  0
  9 11  1  0  0  0  0
 10 14  1  0  0  0  0
 11 14  1  0  0  0  0
  1 15  1  0  0  0  0
  4 16  1  0  0  0  0
  4 17  1  0  0  0  0
  5 18  1  0  0  0  0
  5 19  1  0  0  0  0
  6 20  1  0  0  0  0
  6 21  1  0  0  0  0
  7 22  1  0  0  0  0
  7 23  1  0  0  0  0
  8 24  1  0  0  0  0
  8 25  1  0  0  0  0
  9 26  1  0  0  0  0
  9 27  1  0  0  0  0
 10 28  1  0  0  0  0
 10 29  1  0  0  0  0
 13 30  1  0  0  0  0
 14 31  1  0  0  0  0
M  END
> <Catalog ID>
Z1198182131

> <PlateID>
1337959-R-03

> <Well>
E04

> <MW (desalted)>
191.273

> <CLogP>
1.185

> <HBD>
2

> <TPSA>
40.710

> <RotBonds>
0

> <ROCS_ShapeQuery>
x0446_0A_x1080_0A_x0929_0A_x0812_0A_x0719_0A_x1140_0A_x0528_0A_x0310_0A

> <ROCS_TanimotoCombo>
0.314 

> <ROCS_ShapeTanimoto>
0.204 

> <ROCS_ColorTanimoto>
0.110 

> <ROCS_RefTversky>
0.187 

> <ROCS_RefColorTversky>
0.125 

> <ROCS_RefTverskyCombo>
0.312 

> <ROCS_FitTversky>
1.810 

> <ROCS_FitColorTversky>
0.471 

> <ROCS_FitTverskyCombo>
2.281 

> <ROCS_ColorScore>
-4.464

> <ROCS_Overlap>
2209.606

> <ROCS_Rank>
241                 

$$$$
untitled-dbase-198_26
  -OEChem-02082415003D

 21 21  0     0  0  0  0  0  0999 V2000
    9.1854   11.0249   23.2332 C   0  0  0  0  0  0  0  0  0  0  0  0
    9.0937   12.3198   23.5336 C   0  0  0  0  0  0  0  0  0  0  0  0
    7.5441   11.1380   24.5281 C   0  0  0  0  0  0  0  0  0  0  0  0
    6.3858   10.7415   25.3573 C   0  0  0  0  0  0  0  0  0  0  0  0
    7.9643   12.5792   24.4566 C   0  0  0  0  0  0  0  0  0  0  0  0
    5.5489    8.9476   26.6165 C   0  0  0  0  0  0  0  0  0  0  0  0
    8.2235   10.2665   23.8464 N   0  0  0  0  0  0  0  0  0  0  0  0
   11.2513   12.6030   21.9060 N   0  0  0  0  0  0  0  0  0  0  0  0
    5.4418   11.4738   25.5698 O   0  0  0  0  0  0  0  0  0  0  0  0
    9.4271   14.3951   22.0324 O   0  0  0  0  0  0  0  0  0  0  0  0
   10.9540   14.0496   24.0000 O   0  0  0  0  0  0  0  0  0  0  0  0
    6.5933    9.4780   25.7939 O   0  0  0  0  0  0  0  0  0  0  0  0
   10.1575   13.4798   22.9116 S   0  0  0  0  0  0  0  0  0  0  0  0
    9.9150   10.5624   22.5846 H   0  0  0  0  0  0  0  0  0  0  0  0
    8.2812   12.9463   25.4345 H   0  0  0  0  0  0  0  0  0  0  0  0
    7.1797   13.1969   24.0160 H   0  0  0  0  0  0  0  0  0  0  0  0
    5.8040    7.9289   26.9188 H   0  0  0  0  0  0  0  0  0  0  0  0
    4.6087    8.9490   26.0593 H   0  0  0  0  0  0  0  0  0  0  0  0
    5.4442    9.5737   27.5057 H   0  0  0  0  0  0  0  0  0  0  0  0
   10.8809   12.1898   21.0408 H   0  0  0  0  0  0  0  0  0  0  0  0
   11.9128   11.9806   22.3879 H   0  0  0  0  0  0  0  0  0  0  0  0
  1  2  2  0  0  0  0
  1  7  1  0  0  0  0
  2  5  1  0  0  0  0
  2 13  1  0  0  0  0
  3  4  1  0  0  0  0
  3  5  1  0  0  0  0
  3  7  2  0  0  0  0
  4  9  2  0  0  0  0
  4 12  1  0  0  0  0
  6 12  1  0  0  0  0
  8 13  1  0  0  0  0
 10 13  2  0  0  0  0
 11 13  2  0  0  0  0
  1 14  1  0  0  0  0
  5 15  1  0  0  0  0
  5 16  1  0  0  0  0
  6 17  1  0  0  0  0
  6 18  1  0  0  0  0
  6 19  1  0  0  0  0
  8 20  1  0  0  0  0
  8 21  1  0  0  0  0
M  END
> <Catalog ID>
Z1259268868

> <PlateID>
1337959-R-04

> <Well>
H11

> <MW (desalted)>
204.204

> <CLogP>
-0.451

> <HBD>
2

> <TPSA>
102.250

> <RotBonds>
3

> <ROCS_ShapeQuery>
x0446_0A_x1080_0A_x0929_0A_x0812_0A_x0719_0A_x1140_0A_x0528_0A_x0310_0A

> <ROCS_TanimotoCombo>
0.314 

> <ROCS_ShapeTanimoto>
0.170 

> <ROCS_ColorTanimoto>
0.144 

> <ROCS_RefTversky>
0.159 

> <ROCS_RefColorTversky>
0.152 

> <ROCS_RefTverskyCombo>
0.312 

> <ROCS_FitTversky>
1.644 

> <ROCS_FitColorTversky>
0.718 

> <ROCS_FitTverskyCombo>
2.363 

> <ROCS_ColorScore>
-5.434

> <ROCS_Overlap>
1880.220

> <ROCS_Rank>
242                 

$$$$
untitled-dbase-592_21
  -OEChem-02082415003D

 27 28  0     1  0  0  0  0  0999 V2000
    7.5286   10.9396   24.5853 C   0  0  0  0  0  0  0  0  0  0  0  0
    8.3777    9.8549   24.3660 C   0  0  0  0  0  0  0  0  0  0  0  0
    7.9150   12.2194   24.1874 C   0  0  0  0  0  0  0  0  0  0  0  0
    9.6133   10.0501   23.7490 C   0  0  0  0  0  0  0  0  0  0  0  0
    9.1507   12.4146   23.5704 C   0  0  0  0  0  0  0  0  0  0  0  0
    9.9998   11.3300   23.3512 C   0  0  0  0  0  0  0  0  0  0  0  0
    6.1220   15.7800   23.1332 C   0  0  0  0  0  0  0  0  0  0  0  0
    7.3951   15.4662   23.3261 C   0  0  0  0  0  0  0  0  0  0  0  0
    7.7641   15.9899   24.6486 C   0  0  0  0  0  0  0  0  0  0  0  0
   10.2940   14.5459   24.1669 C   0  0  0  0  0  0  0  0  0  0  0  0
    5.5992   16.4633   24.1992 N   0  0  0  0  0  0  0  0  0  0  0  0
    6.4856   16.6136   25.0935 N   0  0  0  0  0  0  0  0  0  0  0  0
    9.5436   13.7259   23.1644 N   0  0  2  0  0  0  0  0  0  0  0  0
    9.1056   15.5820   21.3965 O   0  0  0  0  0  0  0  0  0  0  0  0
    7.5320   13.6380   21.5138 O   0  0  0  0  0  0  0  0  0  0  0  0
   11.1898   11.5066   22.7595 F   0  0  0  0  0  0  0  0  0  0  0  0
    8.3837   14.6020   22.1903 S   0  0  0  0  0  0  0  0  0  0  0  0
    6.5662   10.7875   25.0653 H   0  0  0  0  0  0  0  0  0  0  0  0
    8.0766    8.8586   24.6764 H   0  0  0  0  0  0  0  0  0  0  0  0
    7.2452   13.0575   24.3618 H   0  0  0  0  0  0  0  0  0  0  0  0
   10.2749    9.2059   23.5791 H   0  0  0  0  0  0  0  0  0  0  0  0
    5.5161   15.5557   22.2684 H   0  0  0  0  0  0  0  0  0  0  0  0
    8.0541   15.1971   25.3442 H   0  0  0  0  0  0  0  0  0  0  0  0
    8.5499   16.7486   24.5919 H   0  0  0  0  0  0  0  0  0  0  0  0
   10.5354   15.5270   23.7320 H   0  0  0  0  0  0  0  0  0  0  0  0
    9.6736   14.6855   25.0644 H   0  0  0  0  0  0  0  0  0  0  0  0
   11.2247   14.0277   24.4415 H   0  0  0  0  0  0  0  0  0  0  0  0
  1  2  1  0  0  0  0
  1  3  2  0  0  0  0
  2  4  2  0  0  0  0
  3  5  1  0  0  0  0
  4  6  1  0  0  0  0
  5  6  2  0  0  0  0
  5 13  1  0  0  0  0
  6 16  1  0  0  0  0
  7  8  2  0  0  0  0
  7 11  1  0  0  0  0
  8  9  1  0  0  0  0
  8 17  1  0  0  0  0
  9 12  1  0  0  0  0
 10 13  1  0  0  0  0
 11 12  2  0  0  0  0
 13 17  1  0  0  0  0
 14 17  2  0  0  0  0
 15 17  2  0  0  0  0
  1 18  1  0  0  0  0
  2 19  1  0  0  0  0
  3 20  1  0  0  0  0
  4 21  1  0  0  0  0
  7 22  1  0  0  0  0
  9 23  1  0  0  0  0
  9 24  1  0  0  0  0
 10 25  1  0  0  0  0
 10 26  1  0  0  0  0
 10 27  1  0  0  0  0
M  END
> <Catalog ID>
Z905143982

> <PlateID>
1337959-R-13

> <Well>
G06

> <MW (desalted)>
255.269

> <CLogP>
1.199

> <HBD>
1

> <TPSA>
66.060

> <RotBonds>
2

> <ROCS_ShapeQuery>
x0446_0A_x1080_0A_x0929_0A_x0812_0A_x0719_0A_x1140_0A_x0528_0A_x0310_0A

> <ROCS_TanimotoCombo>
0.314 

> <ROCS_ShapeTanimoto>
0.199 

> <ROCS_ColorTanimoto>
0.115 

> <ROCS_RefTversky>
0.184 

> <ROCS_RefColorTversky>
0.123 

> <ROCS_RefTverskyCombo>
0.307 

> <ROCS_FitTversky>
1.639 

> <ROCS_FitColorTversky>
0.660 

> <ROCS_FitTverskyCombo>
2.299 

> <ROCS_ColorScore>
-4.363

> <ROCS_Overlap>
2174.401

> <ROCS_Rank>
243                 

$$$$
untitled-dbase-137_1
  -OEChem-02082415003D

 25 25  0     0  0  0  0  0  0999 V2000
    8.4514    9.9491   24.4210 C   0  0  0  0  0  0  0  0  0  0  0  0
    9.7293   10.2162   23.9300 C   0  0  0  0  0  0  0  0  0  0  0  0
    7.4876   10.9573   24.4427 C   0  0  0  0  0  0  0  0  0  0  0  0
   10.0435   11.4916   23.4606 C   0  0  0  0  0  0  0  0  0  0  0  0
    7.8019   12.2327   23.9733 C   0  0  0  0  0  0  0  0  0  0  0  0
    9.0799   12.4999   23.4823 C   0  0  0  0  0  0  0  0  0  0  0  0
    6.7719   13.2635   24.0100 C   0  0  0  0  0  0  0  0  0  0  0  0
    8.7433   14.4040   21.9098 C   0  0  0  0  0  0  0  0  0  0  0  0
    7.7099   13.6026   21.1516 C   0  0  0  0  0  0  0  0  0  0  0  0
   10.4675   14.5443   23.7394 C   0  0  0  0  0  0  0  0  0  0  0  0
    9.4178   13.7706   23.0087 N   0  0  0  0  0  0  0  0  0  0  0  0
    6.9778   14.4723   24.1436 O   0  0  0  0  0  0  0  0  0  0  0  0
    8.9758   15.5534   21.5273 O   0  0  0  0  0  0  0  0  0  0  0  0
    5.5201   12.7487   23.8772 O   0  0  0  0  0  0  0  0  0  0  0  0
    8.2070    8.9560   24.7868 H   0  0  0  0  0  0  0  0  0  0  0  0
   10.4792    9.4308   23.9131 H   0  0  0  0  0  0  0  0  0  0  0  0
    6.4953   10.7364   24.8277 H   0  0  0  0  0  0  0  0  0  0  0  0
   11.0431   11.6870   23.0803 H   0  0  0  0  0  0  0  0  0  0  0  0
    6.7225   13.7360   21.6016 H   0  0  0  0  0  0  0  0  0  0  0  0
    7.9878   12.5456   21.1280 H   0  0  0  0  0  0  0  0  0  0  0  0
    7.6585   13.9617   20.1186 H   0  0  0  0  0  0  0  0  0  0  0  0
   11.4557   14.3147   23.3141 H   0  0  0  0  0  0  0  0  0  0  0  0
   10.2662   15.6210   23.6385 H   0  0  0  0  0  0  0  0  0  0  0  0
   10.4531   14.2667   24.8037 H   0  0  0  0  0  0  0  0  0  0  0  0
    4.8194   13.4349   23.8997 H   0  0  0  0  0  0  0  0  0  0  0  0
  1  2  2  0  0  0  0
  1  3  1  0  0  0  0
  2  4  1  0  0  0  0
  3  5  2  0  0  0  0
  4  6  2  0  0  0  0
  5  6  1  0  0  0  0
  5  7  1  0  0  0  0
  6 11  1  0  0  0  0
  7 12  2  0  0  0  0
  7 14  1  0  0  0  0
  8  9  1  0  0  0  0
  8 11  1  0  0  0  0
  8 13  2  0  0  0  0
 10 11  1  0  0  0  0
  1 15  1  0  0  0  0
  2 16  1  0  0  0  0
  3 17  1  0  0  0  0
  4 18  1  0  0  0  0
  9 19  1  0  0  0  0
  9 20  1  0  0  0  0
  9 21  1  0  0  0  0
 10 22  1  0  0  0  0
 10 23  1  0  0  0  0
 10 24  1  0  0  0  0
 14 25  1  0  0  0  0
M  END
> <Catalog ID>
Z220639108

> <PlateID>
1337959-R-03

> <Well>
F10

> <MW (desalted)>
193.199

> <CLogP>
2.300

> <HBD>
1

> <TPSA>
57.610

> <RotBonds>
2

> <ROCS_ShapeQuery>
x0446_0A_x1080_0A_x0929_0A_x0812_0A_x0719_0A_x1140_0A_x0528_0A_x0310_0A

> <ROCS_TanimotoCombo>
0.314 

> <ROCS_ShapeTanimoto>
0.198 

> <ROCS_ColorTanimoto>
0.115 

> <ROCS_RefTversky>
0.182 

> <ROCS_RefColorTversky>
0.123 

> <ROCS_RefTverskyCombo>
0.305 

> <ROCS_FitTversky>
1.789 

> <ROCS_FitColorTversky>
0.660 

> <ROCS_FitTverskyCombo>
2.449 

> <ROCS_ColorScore>
-4.370

> <ROCS_Overlap>
2150.750

> <ROCS_Rank>
244                 

$$$$
untitled-dbase-224_12
  -OEChem-02082415003D

 24 25  0     0  0  0  0  0  0999 V2000
    8.9586   10.9049   25.1671 C   0  0  0  0  0  0  0  0  0  0  0  0
    8.8298   10.0120   24.1033 C   0  0  0  0  0  0  0  0  0  0  0  0
    9.2600   12.2444   24.9208 C   0  0  0  0  0  0  0  0  0  0  0  0
    9.0027   10.4584   22.7931 C   0  0  0  0  0  0  0  0  0  0  0  0
    7.1261   16.2137   21.1042 C   0  0  0  0  0  0  0  0  0  0  0  0
    7.5308   14.8747   23.0607 C   0  0  0  0  0  0  0  0  0  0  0  0
    8.4563   16.0247   20.7657 C   0  0  0  0  0  0  0  0  0  0  0  0
    6.6624   15.6245   22.2751 C   0  0  0  0  0  0  0  0  0  0  0  0
    9.4329   12.6908   23.6107 C   0  0  0  0  0  0  0  0  0  0  0  0
    9.3042   11.7979   22.5468 C   0  0  0  0  0  0  0  0  0  0  0  0
    8.8428   14.7454   22.6345 C   0  0  0  0  0  0  0  0  0  0  0  0
    9.3297   15.3031   21.5033 N   0  0  0  0  0  0  0  0  0  0  0  0
    5.3168   15.7851   22.6627 N   0  0  0  0  0  0  0  0  0  0  0  0
    9.7269   14.0051   23.3995 O   0  0  0  0  0  0  0  0  0  0  0  0
    9.5126   12.3225   20.9167 Cl  0  0  0  0  0  0  0  0  0  0  0  0
    8.8240   10.5571   26.1871 H   0  0  0  0  0  0  0  0  0  0  0  0
    8.5951    8.9691   24.2952 H   0  0  0  0  0  0  0  0  0  0  0  0
    9.3588   12.9343   25.7545 H   0  0  0  0  0  0  0  0  0  0  0  0
    8.8991    9.7502   21.9750 H   0  0  0  0  0  0  0  0  0  0  0  0
    6.4750   16.8046   20.4685 H   0  0  0  0  0  0  0  0  0  0  0  0
    7.1941   14.4060   23.9801 H   0  0  0  0  0  0  0  0  0  0  0  0
    8.8678   16.4640   19.8630 H   0  0  0  0  0  0  0  0  0  0  0  0
    4.7154   16.3647   22.1120 H   0  0  0  0  0  0  0  0  0  0  0  0
    5.0086   15.3954   23.5310 H   0  0  0  0  0  0  0  0  0  0  0  0
  1  2  2  0  0  0  0
  1  3  1  0  0  0  0
  2  4  1  0  0  0  0
  3  9  2  0  0  0  0
  4 10  2  0  0  0  0
  5  7  1  0  0  0  0
  5  8  2  0  0  0  0
  6  8  1  0  0  0  0
  6 11  2  0  0  0  0
  7 12  2  0  0  0  0
  8 13  1  0  0  0  0
  9 10  1  0  0  0  0
  9 14  1  0  0  0  0
 10 15  1  0  0  0  0
 11 12  1  0  0  0  0
 11 14  1  0  0  0  0
  1 16  1  0  0  0  0
  2 17  1  0  0  0  0
  3 18  1  0  0  0  0
  4 19  1  0  0  0  0
  5 20  1  0  0  0  0
  6 21  1  0  0  0  0
  7 22  1  0  0  0  0
 13 23  1  0  0  0  0
 13 24  1  0  0  0  0
M  END
> <Catalog ID>
Z851811182

> <PlateID>
1337959-R-05

> <Well>
E02

> <MW (desalted)>
220.655

> <CLogP>
2.899

> <HBD>
1

> <TPSA>
48.140

> <RotBonds>
2

> <ROCS_ShapeQuery>
x0446_0A_x1080_0A_x0929_0A_x0812_0A_x0719_0A_x1140_0A_x0528_0A_x0310_0A

> <ROCS_TanimotoCombo>
0.314 

> <ROCS_ShapeTanimoto>
0.173 

> <ROCS_ColorTanimoto>
0.141 

> <ROCS_RefTversky>
0.163 

> <ROCS_RefColorTversky>
0.150 

> <ROCS_RefTverskyCombo>
0.313 

> <ROCS_FitTversky>
1.527 

> <ROCS_FitColorTversky>
0.706 

> <ROCS_FitTverskyCombo>
2.233 

> <ROCS_ColorScore>
-5.342

> <ROCS_Overlap>
1921.133

> <ROCS_Rank>
245                 

$$$$
untitled-dbase-573_2
  -OEChem-02082415003D

 34 36  0     0  0  0  0  0  0999 V2000
   10.2753   12.6359   23.7161 C   0  0  0  0  0  0  0  0  0  0  0  0
    9.3664   10.5525   23.7906 C   0  0  0  0  0  0  0  0  0  0  0  0
   11.4306   11.6850   23.9370 C   0  0  0  0  0  0  0  0  0  0  0  0
    7.4461   14.4441   20.6426 C   0  0  0  0  0  0  0  0  0  0  0  0
    5.3870   12.2790   25.8842 C   0  0  0  0  0  0  0  0  0  0  0  0
    6.5933   14.1063   21.8850 C   0  0  0  0  0  0  0  0  0  0  0  0
    8.5067   13.4669   21.1950 C   0  0  0  0  0  0  0  0  0  0  0  0
    6.6252   11.4550   25.4685 C   0  0  0  0  0  0  0  0  0  0  0  0
    5.6892   13.2027   24.6840 C   0  0  0  0  0  0  0  0  0  0  0  0
    7.9174   13.7470   22.5952 C   0  0  0  0  0  0  0  0  0  0  0  0
    7.1593   12.7443   24.8057 C   0  0  0  0  0  0  0  0  0  0  0  0
    7.7945   12.4702   23.4365 C   0  0  0  0  0  0  0  0  0  0  0  0
   10.7463   10.4223   23.9657 N   0  0  0  0  0  0  0  0  0  0  0  0
    9.1445   11.8876   23.6475 N   0  0  0  0  0  0  0  0  0  0  0  0
   10.4007   13.8498   23.6244 O   0  0  0  0  0  0  0  0  0  0  0  0
    8.5612    9.6308   23.7747 O   0  0  0  0  0  0  0  0  0  0  0  0
   12.1308   11.7057   23.1005 H   0  0  0  0  0  0  0  0  0  0  0  0
   11.9173   11.8628   24.8973 H   0  0  0  0  0  0  0  0  0  0  0  0
    7.0081   14.1769   19.6780 H   0  0  0  0  0  0  0  0  0  0  0  0
    7.7817   15.4869   20.6081 H   0  0  0  0  0  0  0  0  0  0  0  0
    4.4310   11.7511   25.8507 H   0  0  0  0  0  0  0  0  0  0  0  0
    5.4912   12.7714   26.8579 H   0  0  0  0  0  0  0  0  0  0  0  0
    6.0341   14.9408   22.3153 H   0  0  0  0  0  0  0  0  0  0  0  0
    5.9122   13.2610   21.7324 H   0  0  0  0  0  0  0  0  0  0  0  0
    8.3786   12.4369   20.8419 H   0  0  0  0  0  0  0  0  0  0  0  0
    9.5478   13.7658   21.0487 H   0  0  0  0  0  0  0  0  0  0  0  0
    7.2265   11.0586   26.2905 H   0  0  0  0  0  0  0  0  0  0  0  0
    6.3962   10.6424   24.7693 H   0  0  0  0  0  0  0  0  0  0  0  0
    5.1887   12.8951   23.7584 H   0  0  0  0  0  0  0  0  0  0  0  0
    5.5080   14.2680   24.8489 H   0  0  0  0  0  0  0  0  0  0  0  0
    8.3690   14.5335   23.1221 H   0  0  0  0  0  0  0  0  0  0  0  0
    7.7639   13.3428   25.4207 H   0  0  0  0  0  0  0  0  0  0  0  0
    7.1898   11.7266   22.9014 H   0  0  0  0  0  0  0  0  0  0  0  0
   11.2148    9.5316   24.0989 H   0  0  0  0  0  0  0  0  0  0  0  0
  1  3  1  0  0  0  0
  1 14  1  0  0  0  0
  1 15  2  0  0  0  0
  2 13  1  0  0  0  0
  2 14  1  0  0  0  0
  2 16  2  0  0  0  0
  3 13  1  0  0  0  0
  4  6  1  0  0  0  0
  4  7  1  0  0  0  0
  5  8  1  0  0  0  0
  5  9  1  0  0  0  0
  6 10  1  0  0  0  0
  7 10  1  0  0  0  0
  8 11  1  0  0  0  0
  9 11  1  0  0  0  0
 10 12  1  0  0  0  0
 11 12  1  0  0  0  0
 12 14  1  0  0  0  0
  3 17  1  0  0  0  0
  3 18  1  0  0  0  0
  4 19  1  0  0  0  0
  4 20  1  0  0  0  0
  5 21  1  0  0  0  0
  5 22  1  0  0  0  0
  6 23  1  0  0  0  0
  6 24  1  0  0  0  0
  7 25  1  0  0  0  0
  7 26  1  0  0  0  0
  8 27  1  0  0  0  0
  8 28  1  0  0  0  0
  9 29  1  0  0  0  0
  9 30  1  0  0  0  0
 10 31  1  0  0  0  0
 11 32  1  0  0  0  0
 12 33  1  0  0  0  0
 13 34  1  0  0  0  0
M  END
> <Catalog ID>
Z2193987986

> <PlateID>
1337959-R-13

> <Well>
D08

> <MW (desalted)>
222.284

> <CLogP>
1.779

> <HBD>
1

> <TPSA>
49.410

> <RotBonds>
3

> <ROCS_ShapeQuery>
x0446_0A_x1080_0A_x0929_0A_x0812_0A_x0719_0A_x1140_0A_x0528_0A_x0310_0A

> <ROCS_TanimotoCombo>
0.314 

> <ROCS_ShapeTanimoto>
0.212 

> <ROCS_ColorTanimoto>
0.101 

> <ROCS_RefTversky>
0.194 

> <ROCS_RefColorTversky>
0.112 

> <ROCS_RefTverskyCombo>
0.306 

> <ROCS_FitTversky>
1.764 

> <ROCS_FitColorTversky>
0.526 

> <ROCS_FitTverskyCombo>
2.290 

> <ROCS_ColorScore>
-3.978

> <ROCS_Overlap>
2292.837

> <ROCS_Rank>
246                 

$$$$
untitled-dbase-484_2
  -OEChem-02082415003D

 27 28  0     0  0  0  0  0  0999 V2000
    5.3452   11.6380   24.6157 C   0  0  0  0  0  0  0  0  0  0  0  0
    5.8338   11.3117   25.8807 C   0  0  0  0  0  0  0  0  0  0  0  0
   11.7456   12.0921   23.6476 C   0  0  0  0  0  0  0  0  0  0  0  0
    5.9465   12.6574   23.8774 C   0  0  0  0  0  0  0  0  0  0  0  0
    6.9235   12.0048   26.4076 C   0  0  0  0  0  0  0  0  0  0  0  0
   11.3542   10.7534   23.6320 C   0  0  0  0  0  0  0  0  0  0  0  0
   10.8662   13.0810   23.2065 C   0  0  0  0  0  0  0  0  0  0  0  0
    9.2042   11.3924   22.7341 C   0  0  0  0  0  0  0  0  0  0  0  0
    7.0363   13.3505   24.4042 C   0  0  0  0  0  0  0  0  0  0  0  0
   10.0835   10.4035   23.1753 C   0  0  0  0  0  0  0  0  0  0  0  0
    7.5248   13.0242   25.6694 C   0  0  0  0  0  0  0  0  0  0  0  0
    9.5956   12.7311   22.7497 C   0  0  0  0  0  0  0  0  0  0  0  0
    7.6496   14.3936   23.6463 N   0  0  0  0  0  0  0  0  0  0  0  0
    7.5483   13.3462   21.2813 O   0  0  0  0  0  0  0  0  0  0  0  0
    9.2705   15.1137   21.7392 O   0  0  0  0  0  0  0  0  0  0  0  0
    9.7081    9.1178   23.1602 F   0  0  0  0  0  0  0  0  0  0  0  0
    8.5713   13.6845   26.1853 F   0  0  0  0  0  0  0  0  0  0  0  0
    8.4789   13.9861   22.1924 S   0  0  0  0  0  0  0  0  0  0  0  0
    4.4970   11.0980   24.2052 H   0  0  0  0  0  0  0  0  0  0  0  0
    5.3650   10.5182   26.4554 H   0  0  0  0  0  0  0  0  0  0  0  0
   12.7351   12.3640   24.0031 H   0  0  0  0  0  0  0  0  0  0  0  0
    5.5587   12.9027   22.8921 H   0  0  0  0  0  0  0  0  0  0  0  0
    7.3034   11.7515   27.3929 H   0  0  0  0  0  0  0  0  0  0  0  0
   12.0388    9.9833   23.9753 H   0  0  0  0  0  0  0  0  0  0  0  0
   11.1812   14.1211   23.2237 H   0  0  0  0  0  0  0  0  0  0  0  0
    8.2169   11.1078   22.3801 H   0  0  0  0  0  0  0  0  0  0  0  0
    8.0775   15.1506   24.2038 H   0  0  0  0  0  0  0  0  0  0  0  0
  1  2  2  0  0  0  0
  1  4  1  0  0  0  0
  2  5  1  0  0  0  0
  3  6  1  0  0  0  0
  3  7  2  0  0  0  0
  4  9  2  0  0  0  0
  5 11  2  0  0  0  0
  6 10  2  0  0  0  0
  7 12  1  0  0  0  0
  8 10  1  0  0  0  0
  8 12  2  0  0  0  0
  9 11  1  0  0  0  0
  9 13  1  0  0  0  0
 10 16  1  0  0  0  0
 11 17  1  0  0  0  0
 12 18  1  0  0  0  0
 13 18  1  0  0  0  0
 14 18  2  0  0  0  0
 15 18  2  0  0  0  0
  1 19  1  0  0  0  0
  2 20  1  0  0  0  0
  3 21  1  0  0  0  0
  4 22  1  0  0  0  0
  5 23  1  0  0  0  0
  6 24  1  0  0  0  0
  7 25  1  0  0  0  0
  8 26  1  0  0  0  0
 13 27  1  0  0  0  0
M  END
> <Catalog ID>
Z45639791

> <PlateID>
1337959-R-11

> <Well>
F02

> <MW (desalted)>
269.267

> <CLogP>
2.787

> <HBD>
1

> <TPSA>
46.170

> <RotBonds>
2

> <ROCS_ShapeQuery>
x0446_0A_x1080_0A_x0929_0A_x0812_0A_x0719_0A_x1140_0A_x0528_0A_x0310_0A

> <ROCS_TanimotoCombo>
0.314 

> <ROCS_ShapeTanimoto>
0.201 

> <ROCS_ColorTanimoto>
0.112 

> <ROCS_RefTversky>
0.187 

> <ROCS_RefColorTversky>
0.120 

> <ROCS_RefTverskyCombo>
0.307 

> <ROCS_FitTversky>
1.614 

> <ROCS_FitColorTversky>
0.644 

> <ROCS_FitTverskyCombo>
2.258 

> <ROCS_ColorScore>
-4.261

> <ROCS_Overlap>
2206.632

> <ROCS_Rank>
247                 

$$$$
untitled-dbase-383_10
  -OEChem-02082415003D

 36 36  0     0  0  0  0  0  0999 V2000
   10.1824   11.5481   24.5734 C   0  0  0  0  0  0  0  0  0  0  0  0
    7.9465   11.5389   22.9050 C   0  0  0  0  0  0  0  0  0  0  0  0
    9.4439   10.3771   24.4034 C   0  0  0  0  0  0  0  0  0  0  0  0
    8.3260   10.3725   23.5692 C   0  0  0  0  0  0  0  0  0  0  0  0
    9.8029   12.7146   23.9093 C   0  0  0  0  0  0  0  0  0  0  0  0
    8.6850   12.7100   23.0751 C   0  0  0  0  0  0  0  0  0  0  0  0
    9.8702    9.1406   25.1243 C   0  0  0  0  0  0  0  0  0  0  0  0
    7.5284    8.6522   21.9085 C   0  0  0  0  0  0  0  0  0  0  0  0
    6.0687    9.2895   23.8624 C   0  0  0  0  0  0  0  0  0  0  0  0
    6.4948   14.6828   24.3416 C   0  0  0  0  0  0  0  0  0  0  0  0
   11.6238   14.0656   23.1915 C   0  0  0  0  0  0  0  0  0  0  0  0
    7.5194    9.1312   23.3717 C   0  0  0  0  0  0  0  0  0  0  0  0
    7.6140   15.1435   23.5074 N   0  0  0  0  0  0  0  0  0  0  0  0
    9.3667   14.7892   21.6529 O   0  0  0  0  0  0  0  0  0  0  0  0
    7.0674   13.8098   21.3731 O   0  0  0  0  0  0  0  0  0  0  0  0
   10.5381   13.8474   24.0902 O   0  0  0  0  0  0  0  0  0  0  0  0
    8.1882   14.1607   22.2334 S   0  0  0  0  0  0  0  0  0  0  0  0
   11.0546   11.5549   25.2230 H   0  0  0  0  0  0  0  0  0  0  0  0
    7.0746   11.5332   22.2550 H   0  0  0  0  0  0  0  0  0  0  0  0
    9.3835    9.0856   26.1049 H   0  0  0  0  0  0  0  0  0  0  0  0
    9.6107    8.2400   24.5542 H   0  0  0  0  0  0  0  0  0  0  0  0
   10.9572    9.1227   25.2719 H   0  0  0  0  0  0  0  0  0  0  0  0
    7.1130    9.4084   21.2335 H   0  0  0  0  0  0  0  0  0  0  0  0
    6.9397    7.7367   21.7842 H   0  0  0  0  0  0  0  0  0  0  0  0
    8.5523    8.4393   21.5814 H   0  0  0  0  0  0  0  0  0  0  0  0
    5.5657   10.0959   23.3171 H   0  0  0  0  0  0  0  0  0  0  0  0
    6.0326    9.5333   24.9298 H   0  0  0  0  0  0  0  0  0  0  0  0
    5.4891    8.3722   23.7117 H   0  0  0  0  0  0  0  0  0  0  0  0
    6.4621   13.5833   24.3376 H   0  0  0  0  0  0  0  0  0  0  0  0
    6.6338   15.0417   25.3721 H   0  0  0  0  0  0  0  0  0  0  0  0
    5.5507   15.0791   23.9396 H   0  0  0  0  0  0  0  0  0  0  0  0
   12.1257   15.0023   23.4459 H   0  0  0  0  0  0  0  0  0  0  0  0
   11.2466   14.1085   22.1667 H   0  0  0  0  0  0  0  0  0  0  0  0
   12.3322   13.2388   23.2826 H   0  0  0  0  0  0  0  0  0  0  0  0
    7.9538    8.3055   23.9657 H   0  0  0  0  0  0  0  0  0  0  0  0
    7.7373   16.1612   23.4408 H   0  0  0  0  0  0  0  0  0  0  0  0
  1  3  1  0  0  0  0
  1  5  2  0  0  0  0
  2  4  1  0  0  0  0
  2  6  2  0  0  0  0
  3  4  2  0  0  0  0
  3  7  1  0  0  0  0
  4 12  1  0  0  0  0
  5  6  1  0  0  0  0
  5 16  1  0  0  0  0
  6 17  1  0  0  0  0
  8 12  1  0  0  0  0
  9 12  1  0  0  0  0
 10 13  1  0  0  0  0
 11 16  1  0  0  0  0
 13 17  1  0  0  0  0
 14 17  2  0  0  0  0
 15 17  2  0  0  0  0
  1 18  1  0  0  0  0
  2 19  1  0  0  0  0
  7 20  1  0  0  0  0
  7 21  1  0  0  0  0
  7 22  1  0  0  0  0
  8 23  1  0  0  0  0
  8 24  1  0  0  0  0
  8 25  1  0  0  0  0
  9 26  1  0  0  0  0
  9 27  1  0  0  0  0
  9 28  1  0  0  0  0
 10 29  1  0  0  0  0
 10 30  1  0  0  0  0
 10 31  1  0  0  0  0
 11 32  1  0  0  0  0
 11 33  1  0  0  0  0
 11 34  1  0  0  0  0
 12 35  1  0  0  0  0
 13 36  1  0  0  0  0
M  END
> <Catalog ID>
Z1347206054

> <PlateID>
1337959-R-09

> <Well>
B10

> <MW (desalted)>
257.349

> <CLogP>
2.595

> <HBD>
1

> <TPSA>
55.400

> <RotBonds>
3

> <ROCS_ShapeQuery>
x0446_0A_x1080_0A_x0929_0A_x0812_0A_x0719_0A_x1140_0A_x0528_0A_x0310_0A

> <ROCS_TanimotoCombo>
0.313 

> <ROCS_ShapeTanimoto>
0.185 

> <ROCS_ColorTanimoto>
0.129 

> <ROCS_RefTversky>
0.173 

> <ROCS_RefColorTversky>
0.138 

> <ROCS_RefTverskyCombo>
0.311 

> <ROCS_FitTversky>
1.580 

> <ROCS_FitColorTversky>
0.651 

> <ROCS_FitTverskyCombo>
2.231 

> <ROCS_ColorScore>
-4.921

> <ROCS_Overlap>
2040.487

> <ROCS_Rank>
248                 

$$$$
untitled-dbase-61_6
  -OEChem-02082415003D

 25 26  0     0  0  0  0  0  0999 V2000
    6.7418   14.8956   22.1601 C   0  0  0  0  0  0  0  0  0  0  0  0
    6.6346   12.9986   23.7220 C   0  0  0  0  0  0  0  0  0  0  0  0
    7.9721   14.3023   22.3386 C   0  0  0  0  0  0  0  0  0  0  0  0
    7.9101   13.2033   23.2433 C   0  0  0  0  0  0  0  0  0  0  0  0
    9.1538   14.7754   21.6651 C   0  0  0  0  0  0  0  0  0  0  0  0
    8.9046   11.1305   24.6774 C   0  0  0  0  0  0  0  0  0  0  0  0
    9.5585   11.1206   22.7048 C   0  0  0  0  0  0  0  0  0  0  0  0
    9.1712   12.2999   23.6652 C   0  0  0  0  0  0  0  0  0  0  0  0
   11.2744   14.1117   20.7652 C   0  0  0  0  0  0  0  0  0  0  0  0
    8.7388   10.2204   23.5323 N   0  0  0  0  0  0  0  0  0  0  0  0
    9.3584   15.9572   21.3264 O   0  0  0  0  0  0  0  0  0  0  0  0
   10.2919   13.1451   24.0326 O   0  0  0  0  0  0  0  0  0  0  0  0
   10.0547   13.7655   21.4300 O   0  0  0  0  0  0  0  0  0  0  0  0
    5.5188   14.1284   23.0810 S   0  0  0  0  0  0  0  0  0  0  0  0
    6.4952   15.7423   21.5341 H   0  0  0  0  0  0  0  0  0  0  0  0
    6.3007   12.2412   24.4175 H   0  0  0  0  0  0  0  0  0  0  0  0
    9.7413   10.8819   25.3347 H   0  0  0  0  0  0  0  0  0  0  0  0
    8.0022   11.2353   25.2883 H   0  0  0  0  0  0  0  0  0  0  0  0
    9.2014   11.2160   21.6745 H   0  0  0  0  0  0  0  0  0  0  0  0
   10.6212   10.8675   22.6812 H   0  0  0  0  0  0  0  0  0  0  0  0
   11.8912   13.2177   20.6451 H   0  0  0  0  0  0  0  0  0  0  0  0
   11.8107   14.8611   21.3527 H   0  0  0  0  0  0  0  0  0  0  0  0
   11.0384   14.5235   19.7811 H   0  0  0  0  0  0  0  0  0  0  0  0
    9.1752    9.3071   23.6808 H   0  0  0  0  0  0  0  0  0  0  0  0
   11.0041   12.5398   24.2713 H   0  0  0  0  0  0  0  0  0  0  0  0
  1  3  2  0  0  0  0
  1 14  1  0  0  0  0
  2  4  2  0  0  0  0
  2 14  1  0  0  0  0
  3  4  1  0  0  0  0
  3  5  1  0  0  0  0
  4  8  1  0  0  0  0
  5 11  2  0  0  0  0
  5 13  1  0  0  0  0
  6  8  1  0  0  0  0
  6 10  1  0  0  0  0
  7  8  1  0  0  0  0
  7 10  1  0  0  0  0
  8 12  1  0  0  0  0
  9 13  1  0  0  0  0
  1 15  1  0  0  0  0
  2 16  1  0  0  0  0
  6 17  1  0  0  0  0
  6 18  1  0  0  0  0
  7 19  1  0  0  0  0
  7 20  1  0  0  0  0
  9 21  1  0  0  0  0
  9 22  1  0  0  0  0
  9 23  1  0  0  0  0
 10 24  1  0  0  0  0
 12 25  1  0  0  0  0
M  END
> <Catalog ID>
Z4423586070

> <PlateID>
1337959-R-02

> <Well>
A11

> <MW (desalted)>
213.254

> <CLogP>
0.710

> <HBD>
2

> <TPSA>
58.560

> <RotBonds>
3

> <ROCS_ShapeQuery>
x0446_0A_x1080_0A_x0929_0A_x0812_0A_x0719_0A_x1140_0A_x0528_0A_x0310_0A

> <ROCS_TanimotoCombo>
0.313 

> <ROCS_ShapeTanimoto>
0.186 

> <ROCS_ColorTanimoto>
0.127 

> <ROCS_RefTversky>
0.173 

> <ROCS_RefColorTversky>
0.140 

> <ROCS_RefTverskyCombo>
0.312 

> <ROCS_FitTversky>
1.708 

> <ROCS_FitColorTversky>
0.586 

> <ROCS_FitTverskyCombo>
2.295 

> <ROCS_ColorScore>
-4.991

> <ROCS_Overlap>
2035.516

> <ROCS_Rank>
249                 

$$$$
untitled-dbase-461_26
  -OEChem-02082415003D

 28 29  0     0  0  0  0  0  0999 V2000
    6.1038   12.6848   23.3594 C   0  0  0  0  0  0  0  0  0  0  0  0
    5.8134   12.2860   24.6641 C   0  0  0  0  0  0  0  0  0  0  0  0
    7.3157   12.3209   22.7723 C   0  0  0  0  0  0  0  0  0  0  0  0
    6.7349   11.5234   25.3817 C   0  0  0  0  0  0  0  0  0  0  0  0
   12.8555   15.8923   21.4154 C   0  0  0  0  0  0  0  0  0  0  0  0
    8.2372   11.5584   23.4899 C   0  0  0  0  0  0  0  0  0  0  0  0
    7.9468   11.1596   24.7946 C   0  0  0  0  0  0  0  0  0  0  0  0
   11.5063   14.4307   22.7741 C   0  0  0  0  0  0  0  0  0  0  0  0
   11.6341   15.7263   23.2294 C   0  0  0  0  0  0  0  0  0  0  0  0
   10.7647   13.2767   23.3445 C   0  0  0  0  0  0  0  0  0  0  0  0
   11.0254   16.2819   24.4559 C   0  0  0  0  0  0  0  0  0  0  0  0
    9.5248   11.1912   22.8257 C   0  0  0  0  0  0  0  0  0  0  0  0
   12.4077   16.5657   22.4518 N   0  0  0  0  0  0  0  0  0  0  0  0
   10.2830   12.3493   22.4299 N   0  0  0  0  0  0  0  0  0  0  0  0
   10.6000   13.2109   24.5599 O   0  0  0  0  0  0  0  0  0  0  0  0
   12.3848   14.2452   21.3129 S   0  0  0  0  0  0  0  0  0  0  0  0
    9.0621   10.2155   25.7134 Cl  0  0  0  0  0  0  0  0  0  0  0  0
    5.3857   13.2778   22.8004 H   0  0  0  0  0  0  0  0  0  0  0  0
    4.8692   12.5684   25.1204 H   0  0  0  0  0  0  0  0  0  0  0  0
    7.5318   12.6366   21.7549 H   0  0  0  0  0  0  0  0  0  0  0  0
    6.4929   11.2197   26.3970 H   0  0  0  0  0  0  0  0  0  0  0  0
   13.4868   16.3460   20.6638 H   0  0  0  0  0  0  0  0  0  0  0  0
   11.6966   16.1598   25.3210 H   0  0  0  0  0  0  0  0  0  0  0  0
   10.8000   17.3566   24.3539 H   0  0  0  0  0  0  0  0  0  0  0  0
   10.0687   15.7905   24.7003 H   0  0  0  0  0  0  0  0  0  0  0  0
   10.1563   10.5938   23.4962 H   0  0  0  0  0  0  0  0  0  0  0  0
    9.3523   10.5867   21.9260 H   0  0  0  0  0  0  0  0  0  0  0  0
   10.4072   12.5079   21.4327 H   0  0  0  0  0  0  0  0  0  0  0  0
  1  2  2  0  0  0  0
  1  3  1  0  0  0  0
  2  4  1  0  0  0  0
  3  6  2  0  0  0  0
  4  7  2  0  0  0  0
  5 13  2  0  0  0  0
  5 16  1  0  0  0  0
  6  7  1  0  0  0  0
  6 12  1  0  0  0  0
  7 17  1  0  0  0  0
  8  9  2  0  0  0  0
  8 10  1  0  0  0  0
  8 16  1  0  0  0  0
  9 11  1  0  0  0  0
  9 13  1  0  0  0  0
 10 14  1  0  0  0  0
 10 15  2  0  0  0  0
 12 14  1  0  0  0  0
  1 18  1  0  0  0  0
  2 19  1  0  0  0  0
  3 20  1  0  0  0  0
  4 21  1  0  0  0  0
  5 22  1  0  0  0  0
 11 23  1  0  0  0  0
 11 24  1  0  0  0  0
 11 25  1  0  0  0  0
 12 26  1  0  0  0  0
 12 27  1  0  0  0  0
 14 28  1  0  0  0  0
M  END
> <Catalog ID>
Z420000170

> <PlateID>
1337959-R-11

> <Well>
A07

> <MW (desalted)>
266.747

> <CLogP>
2.805

> <HBD>
1

> <TPSA>
41.990

> <RotBonds>
3

> <ROCS_ShapeQuery>
x0446_0A_x1080_0A_x0929_0A_x0812_0A_x0719_0A_x1140_0A_x0528_0A_x0310_0A

> <ROCS_TanimotoCombo>
0.313 

> <ROCS_ShapeTanimoto>
0.188 

> <ROCS_ColorTanimoto>
0.125 

> <ROCS_RefTversky>
0.176 

> <ROCS_RefColorTversky>
0.132 

> <ROCS_RefTverskyCombo>
0.308 

> <ROCS_FitTversky>
1.579 

> <ROCS_FitColorTversky>
0.709 

> <ROCS_FitTverskyCombo>
2.288 

> <ROCS_ColorScore>
-4.689

> <ROCS_Overlap>
2076.250

> <ROCS_Rank>
250                 

$$$$
untitled-dbase-669_6
  -OEChem-02082415003D

 30 31  0     0  0  0  0  0  0999 V2000
    9.6522   15.7018   21.4037 C   0  0  0  0  0  0  0  0  0  0  0  0
   13.2029   15.6350   22.4946 C   0  0  0  0  0  0  0  0  0  0  0  0
   13.3105   14.3460   23.0165 C   0  0  0  0  0  0  0  0  0  0  0  0
   11.9896   16.0735   21.9640 C   0  0  0  0  0  0  0  0  0  0  0  0
   12.2050   13.4955   23.0078 C   0  0  0  0  0  0  0  0  0  0  0  0
    6.0082   10.9084   25.7485 C   0  0  0  0  0  0  0  0  0  0  0  0
    6.9922   10.3833   24.9445 C   0  0  0  0  0  0  0  0  0  0  0  0
   10.8841   15.2230   21.9553 C   0  0  0  0  0  0  0  0  0  0  0  0
   10.9918   13.9340   22.4772 C   0  0  0  0  0  0  0  0  0  0  0  0
    6.5373   12.4704   24.4029 C   0  0  0  0  0  0  0  0  0  0  0  0
    9.6176   12.0359   23.3998 C   0  0  0  0  0  0  0  0  0  0  0  0
    6.6269   13.7511   23.6722 C   0  0  0  0  0  0  0  0  0  0  0  0
    8.3287   11.3237   23.0333 C   0  0  0  0  0  0  0  0  0  0  0  0
    8.6540   16.0898   20.9569 N   0  0  0  0  0  0  0  0  0  0  0  0
    5.7294   12.2079   25.4061 N   0  0  0  0  0  0  0  0  0  0  0  0
    7.3209   11.3954   24.0873 N   0  0  0  0  0  0  0  0  0  0  0  0
    9.9014   13.0579   22.4827 N   0  0  0  0  0  0  0  0  0  0  0  0
   10.2843   11.7213   24.3801 O   0  0  0  0  0  0  0  0  0  0  0  0
   14.0637   16.2971   22.5015 H   0  0  0  0  0  0  0  0  0  0  0  0
   14.2551   14.0047   23.4299 H   0  0  0  0  0  0  0  0  0  0  0  0
   11.9231   17.0815   21.5612 H   0  0  0  0  0  0  0  0  0  0  0  0
   12.3019   12.4932   23.4178 H   0  0  0  0  0  0  0  0  0  0  0  0
    5.4862   10.4169   26.5565 H   0  0  0  0  0  0  0  0  0  0  0  0
    7.4683    9.4132   24.9102 H   0  0  0  0  0  0  0  0  0  0  0  0
    7.3663   14.4222   24.1382 H   0  0  0  0  0  0  0  0  0  0  0  0
    6.9215   13.6057   22.6193 H   0  0  0  0  0  0  0  0  0  0  0  0
    5.6598   14.2812   23.6485 H   0  0  0  0  0  0  0  0  0  0  0  0
    7.9031   11.7695   22.1269 H   0  0  0  0  0  0  0  0  0  0  0  0
    8.5327   10.2660   22.8309 H   0  0  0  0  0  0  0  0  0  0  0  0
    9.2234   13.1763   21.7230 H   0  0  0  0  0  0  0  0  0  0  0  0
  1  8  1  0  0  0  0
  1 14  3  0  0  0  0
  2  3  2  0  0  0  0
  2  4  1  0  0  0  0
  3  5  1  0  0  0  0
  4  8  2  0  0  0  0
  5  9  2  0  0  0  0
  6  7  2  0  0  0  0
  6 15  1  0  0  0  0
  7 16  1  0  0  0  0
  8  9  1  0  0  0  0
  9 17  1  0  0  0  0
 10 12  1  0  0  0  0
 10 15  2  0  0  0  0
 10 16  1  0  0  0  0
 11 13  1  0  0  0  0
 11 17  1  0  0  0  0
 11 18  2  0  0  0  0
 13 16  1  0  0  0  0
  2 19  1  0  0  0  0
  3 20  1  0  0  0  0
  4 21  1  0  0  0  0
  5 22  1  0  0  0  0
  6 23  1  0  0  0  0
  7 24  1  0  0  0  0
 12 25  1  0  0  0  0
 12 26  1  0  0  0  0
 12 27  1  0  0  0  0
 13 28  1  0  0  0  0
 13 29  1  0  0  0  0
 17 30  1  0  0  0  0
M  END
> <Catalog ID>
Z283671196

> <PlateID>
1337959-R-15

> <Well>
F10

> <MW (desalted)>
240.261

> <CLogP>
0.357

> <HBD>
1

> <TPSA>
70.710

> <RotBonds>
3

> <ROCS_ShapeQuery>
x0446_0A_x1080_0A_x0929_0A_x0812_0A_x0719_0A_x1140_0A_x0528_0A_x0310_0A

> <ROCS_TanimotoCombo>
0.313 

> <ROCS_ShapeTanimoto>
0.209 

> <ROCS_ColorTanimoto>
0.104 

> <ROCS_RefTversky>
0.193 

> <ROCS_RefColorTversky>
0.117 

> <ROCS_RefTverskyCombo>
0.310 

> <ROCS_FitTversky>
1.639 

> <ROCS_FitColorTversky>
0.490 

> <ROCS_FitTverskyCombo>
2.129 

> <ROCS_ColorScore>
-4.167

> <ROCS_Overlap>
2280.291

> <ROCS_Rank>
251                 

$$$$
untitled-dbase-362_1
  -OEChem-02082415003D

 26 27  0     0  0  0  0  0  0999 V2000
    9.8265   11.8952   22.4340 C   0  0  0  0  0  0  0  0  0  0  0  0
    8.3163   13.1094   23.8768 C   0  0  0  0  0  0  0  0  0  0  0  0
    8.4986   10.7078   24.0661 C   0  0  0  0  0  0  0  0  0  0  0  0
    9.2623   13.1004   22.8518 C   0  0  0  0  0  0  0  0  0  0  0  0
    9.4446   10.6988   23.0411 C   0  0  0  0  0  0  0  0  0  0  0  0
    7.9345   11.9130   24.4840 C   0  0  0  0  0  0  0  0  0  0  0  0
    9.6619   14.3524   22.2164 C   0  0  0  0  0  0  0  0  0  0  0  0
   13.3489   14.6599   22.0167 C   0  0  0  0  0  0  0  0  0  0  0  0
   12.9335   16.0404   22.5083 C   0  0  0  0  0  0  0  0  0  0  0  0
   12.1555   13.7940   22.3955 C   0  0  0  0  0  0  0  0  0  0  0  0
   11.4482   16.0802   22.1842 C   0  0  0  0  0  0  0  0  0  0  0  0
   11.0084   14.6961   22.2967 N   0  0  0  0  0  0  0  0  0  0  0  0
    8.8273   15.0383   21.6270 O   0  0  0  0  0  0  0  0  0  0  0  0
    9.9863    9.5413   22.6398 F   0  0  0  0  0  0  0  0  0  0  0  0
    7.0260   11.9215   25.4683 F   0  0  0  0  0  0  0  0  0  0  0  0
   10.5645   11.8762   21.6363 H   0  0  0  0  0  0  0  0  0  0  0  0
    7.8701   14.0426   24.2105 H   0  0  0  0  0  0  0  0  0  0  0  0
    8.2014    9.7764   24.5387 H   0  0  0  0  0  0  0  0  0  0  0  0
   13.4822   14.6695   20.9284 H   0  0  0  0  0  0  0  0  0  0  0  0
   14.2788   14.3169   22.4785 H   0  0  0  0  0  0  0  0  0  0  0  0
   13.0893   16.1192   23.5906 H   0  0  0  0  0  0  0  0  0  0  0  0
   13.4918   16.8419   22.0168 H   0  0  0  0  0  0  0  0  0  0  0  0
   12.0351   12.9291   21.7371 H   0  0  0  0  0  0  0  0  0  0  0  0
   12.2222   13.4496   23.4334 H   0  0  0  0  0  0  0  0  0  0  0  0
   10.8769   16.7253   22.8583 H   0  0  0  0  0  0  0  0  0  0  0  0
   11.2697   16.4026   21.1524 H   0  0  0  0  0  0  0  0  0  0  0  0
  1  4  1  0  0  0  0
  1  5  2  0  0  0  0
  2  4  2  0  0  0  0
  2  6  1  0  0  0  0
  3  5  1  0  0  0  0
  3  6  2  0  0  0  0
  4  7  1  0  0  0  0
  5 14  1  0  0  0  0
  6 15  1  0  0  0  0
  7 12  1  0  0  0  0
  7 13  2  0  0  0  0
  8  9  1  0  0  0  0
  8 10  1  0  0  0  0
  9 11  1  0  0  0  0
 10 12  1  0  0  0  0
 11 12  1  0  0  0  0
  1 16  1  0  0  0  0
  2 17  1  0  0  0  0
  3 18  1  0  0  0  0
  8 19  1  0  0  0  0
  8 20  1  0  0  0  0
  9 21  1  0  0  0  0
  9 22  1  0  0  0  0
 10 23  1  0  0  0  0
 10 24  1  0  0  0  0
 11 25  1  0  0  0  0
 11 26  1  0  0  0  0
M  END
> <Catalog ID>
Z31479147

> <PlateID>
1337959-R-08

> <Well>
H02

> <MW (desalted)>
211.208

> <CLogP>
1.629

> <HBD>
0

> <TPSA>
20.310

> <RotBonds>
1

> <ROCS_ShapeQuery>
x0446_0A_x1080_0A_x0929_0A_x0812_0A_x0719_0A_x1140_0A_x0528_0A_x0310_0A

> <ROCS_TanimotoCombo>
0.313 

> <ROCS_ShapeTanimoto>
0.215 

> <ROCS_ColorTanimoto>
0.098 

> <ROCS_RefTversky>
0.195 

> <ROCS_RefColorTversky>
0.102 

> <ROCS_RefTverskyCombo>
0.297 

> <ROCS_FitTversky>
1.836 

> <ROCS_FitColorTversky>
0.765 

> <ROCS_FitTverskyCombo>
2.601 

> <ROCS_ColorScore>
-3.603

> <ROCS_Overlap>
2305.313

> <ROCS_Rank>
252                 

$$$$
untitled-dbase-486_3
  -OEChem-02082415003D

 34 35  0     1  0  0  0  0  0999 V2000
    8.4840    9.5121   24.1212 C   0  0  0  0  0  0  0  0  0  0  0  0
    9.3701   10.0497   23.1877 C   0  0  0  0  0  0  0  0  0  0  0  0
    7.6193   11.7223   24.5734 C   0  0  0  0  0  0  0  0  0  0  0  0
    7.6086   10.3484   24.8141 C   0  0  0  0  0  0  0  0  0  0  0  0
    9.3808   11.4236   22.9471 C   0  0  0  0  0  0  0  0  0  0  0  0
    8.5055   12.2599   23.6399 C   0  0  0  0  0  0  0  0  0  0  0  0
    5.5033   14.4268   21.5005 C   0  0  0  0  0  0  0  0  0  0  0  0
    6.6439   13.4460   21.4395 C   0  0  0  0  0  0  0  0  0  0  0  0
    7.1550   16.3067   21.3728 C   0  0  0  0  0  0  0  0  0  0  0  0
    8.1954   15.2848   20.9667 C   0  0  0  0  0  0  0  0  0  0  0  0
    6.6604    9.7728   25.8111 C   0  0  0  0  0  0  0  0  0  0  0  0
   10.3421   11.9671   21.9411 C   0  0  0  0  0  0  0  0  0  0  0  0
    5.8119   15.7607   21.3470 N   0  0  0  0  0  0  0  0  0  0  0  0
    7.9632   14.0389   21.7357 N   0  0  1  0  0  0  0  0  0  0  0  0
    4.3417   14.0289   21.6084 O   0  0  0  0  0  0  0  0  0  0  0  0
    7.4659   14.5786   24.2026 O   0  0  0  0  0  0  0  0  0  0  0  0
    9.8582   14.4748   23.4192 O   0  0  0  0  0  0  0  0  0  0  0  0
    8.4912   14.0028   23.3585 S   0  0  0  0  0  0  0  0  0  0  0  0
    8.4820    8.4403   24.3013 H   0  0  0  0  0  0  0  0  0  0  0  0
   10.0461    9.3887   22.6518 H   0  0  0  0  0  0  0  0  0  0  0  0
    6.9354   12.3715   25.1152 H   0  0  0  0  0  0  0  0  0  0  0  0
    6.4309   12.6414   22.1527 H   0  0  0  0  0  0  0  0  0  0  0  0
    6.6656   13.0299   20.4260 H   0  0  0  0  0  0  0  0  0  0  0  0
    7.3464   16.6825   22.3840 H   0  0  0  0  0  0  0  0  0  0  0  0
    7.1592   17.1624   20.6860 H   0  0  0  0  0  0  0  0  0  0  0  0
    8.1027   15.0841   19.8874 H   0  0  0  0  0  0  0  0  0  0  0  0
    9.2166   15.6594   21.1490 H   0  0  0  0  0  0  0  0  0  0  0  0
    7.1209    9.7486   26.8063 H   0  0  0  0  0  0  0  0  0  0  0  0
    5.7367   10.3630   25.8694 H   0  0  0  0  0  0  0  0  0  0  0  0
    6.3675    8.7506   25.5382 H   0  0  0  0  0  0  0  0  0  0  0  0
    9.8827   11.9812   20.9461 H   0  0  0  0  0  0  0  0  0  0  0  0
   10.6501   12.9878   22.1988 H   0  0  0  0  0  0  0  0  0  0  0  0
   11.2545   11.3597   21.8968 H   0  0  0  0  0  0  0  0  0  0  0  0
    5.0411   16.4105   21.2052 H   0  0  0  0  0  0  0  0  0  0  0  0
  1  2  1  0  0  0  0
  1  4  2  0  0  0  0
  2  5  2  0  0  0  0
  3  4  1  0  0  0  0
  3  6  2  0  0  0  0
  4 11  1  0  0  0  0
  5  6  1  0  0  0  0
  5 12  1  0  0  0  0
  6 18  1  0  0  0  0
  7  8  1  0  0  0  0
  7 13  1  0  0  0  0
  7 15  2  0  0  0  0
  8 14  1  0  0  0  0
  9 10  1  0  0  0  0
  9 13  1  0  0  0  0
 10 14  1  0  0  0  0
 14 18  1  0  0  0  0
 16 18  2  0  0  0  0
 17 18  2  0  0  0  0
  1 19  1  0  0  0  0
  2 20  1  0  0  0  0
  3 21  1  0  0  0  0
  8 22  1  0  0  0  0
  8 23  1  0  0  0  0
  9 24  1  0  0  0  0
  9 25  1  0  0  0  0
 10 26  1  0  0  0  0
 10 27  1  0  0  0  0
 11 28  1  0  0  0  0
 11 29  1  0  0  0  0
 11 30  1  0  0  0  0
 12 31  1  0  0  0  0
 12 32  1  0  0  0  0
 12 33  1  0  0  0  0
 13 34  1  0  0  0  0
M  END
> <Catalog ID>
Z45462933

> <PlateID>
1337959-R-11

> <Well>
F05

> <MW (desalted)>
268.332

> <CLogP>
1.945

> <HBD>
1

> <TPSA>
66.480

> <RotBonds>
1

> <ROCS_ShapeQuery>
x0446_0A_x1080_0A_x0929_0A_x0812_0A_x0719_0A_x1140_0A_x0528_0A_x0310_0A

> <ROCS_TanimotoCombo>
0.313 

> <ROCS_ShapeTanimoto>
0.202 

> <ROCS_ColorTanimoto>
0.111 

> <ROCS_RefTversky>
0.187 

> <ROCS_RefColorTversky>
0.121 

> <ROCS_RefTverskyCombo>
0.308 

> <ROCS_FitTversky>
1.632 

> <ROCS_FitColorTversky>
0.570 

> <ROCS_FitTverskyCombo>
2.202 

> <ROCS_ColorScore>
-4.309

> <ROCS_Overlap>
2212.193

> <ROCS_Rank>
253                 

$$$$
untitled-dbase-388_0
  -OEChem-02082415003D

 30 30  0     0  0  0  0  0  0999 V2000
    9.7938   10.9144   22.9005 C   0  0  0  0  0  0  0  0  0  0  0  0
    9.2566   12.1461   22.5266 C   0  0  0  0  0  0  0  0  0  0  0  0
    7.7116   12.0350   24.3807 C   0  0  0  0  0  0  0  0  0  0  0  0
    9.2900   10.2429   24.0145 C   0  0  0  0  0  0  0  0  0  0  0  0
    8.2489   10.8033   24.7546 C   0  0  0  0  0  0  0  0  0  0  0  0
    8.2155   12.7064   23.2667 C   0  0  0  0  0  0  0  0  0  0  0  0
    9.8796    8.9240   24.3928 C   0  0  0  0  0  0  0  0  0  0  0  0
    7.6922   10.1018   25.9498 C   0  0  0  0  0  0  0  0  0  0  0  0
    5.1975   12.9379   22.2011 C   0  0  0  0  0  0  0  0  0  0  0  0
    3.9392   13.2313   21.4046 C   0  0  0  0  0  0  0  0  0  0  0  0
    6.2927   13.7958   21.7265 N   0  0  0  0  0  0  0  0  0  0  0  0
    6.9495   14.8772   23.9706 O   0  0  0  0  0  0  0  0  0  0  0  0
    8.5644   14.9666   22.0448 O   0  0  0  0  0  0  0  0  0  0  0  0
    3.5594   14.5870   21.6042 O   0  0  0  0  0  0  0  0  0  0  0  0
    7.5447   14.2488   22.7981 S   0  0  0  0  0  0  0  0  0  0  0  0
   10.6030   10.4842   22.3160 H   0  0  0  0  0  0  0  0  0  0  0  0
    9.6566   12.6608   21.6572 H   0  0  0  0  0  0  0  0  0  0  0  0
    6.8992   12.4710   24.9574 H   0  0  0  0  0  0  0  0  0  0  0  0
   10.7154    9.0668   25.0875 H   0  0  0  0  0  0  0  0  0  0  0  0
    9.1330    8.2788   24.8721 H   0  0  0  0  0  0  0  0  0  0  0  0
   10.2468    8.3861   23.5099 H   0  0  0  0  0  0  0  0  0  0  0  0
    6.8675    9.4432   25.6538 H   0  0  0  0  0  0  0  0  0  0  0  0
    8.4603    9.4977   26.4483 H   0  0  0  0  0  0  0  0  0  0  0  0
    7.3185   10.8185   26.6917 H   0  0  0  0  0  0  0  0  0  0  0  0
    5.0466   13.1328   23.2676 H   0  0  0  0  0  0  0  0  0  0  0  0
    5.4987   11.8946   22.0667 H   0  0  0  0  0  0  0  0  0  0  0  0
    3.1188   12.5959   21.7525 H   0  0  0  0  0  0  0  0  0  0  0  0
    4.0921   13.0625   20.3337 H   0  0  0  0  0  0  0  0  0  0  0  0
    6.4945   13.7535   20.7201 H   0  0  0  0  0  0  0  0  0  0  0  0
    2.7552   14.7319   21.0804 H   0  0  0  0  0  0  0  0  0  0  0  0
  1  2  1  0  0  0  0
  1  4  2  0  0  0  0
  2  6  2  0  0  0  0
  3  5  2  0  0  0  0
  3  6  1  0  0  0  0
  4  5  1  0  0  0  0
  4  7  1  0  0  0  0
  5  8  1  0  0  0  0
  6 15  1  0  0  0  0
  9 10  1  0  0  0  0
  9 11  1  0  0  0  0
 10 14  1  0  0  0  0
 11 15  1  0  0  0  0
 12 15  2  0  0  0  0
 13 15  2  0  0  0  0
  1 16  1  0  0  0  0
  2 17  1  0  0  0  0
  3 18  1  0  0  0  0
  7 19  1  0  0  0  0
  7 20  1  0  0  0  0
  7 21  1  0  0  0  0
  8 22  1  0  0  0  0
  8 23  1  0  0  0  0
  8 24  1  0  0  0  0
  9 25  1  0  0  0  0
  9 26  1  0  0  0  0
 10 27  1  0  0  0  0
 10 28  1  0  0  0  0
 11 29  1  0  0  0  0
 14 30  1  0  0  0  0
M  END
> <Catalog ID>
Z425750170

> <PlateID>
1337959-R-09

> <Well>
D02

> <MW (desalted)>
229.296

> <CLogP>
1.292

> <HBD>
2

> <TPSA>
66.400

> <RotBonds>
3

> <ROCS_ShapeQuery>
x0446_0A_x1080_0A_x0929_0A_x0812_0A_x0719_0A_x1140_0A_x0528_0A_x0310_0A

> <ROCS_TanimotoCombo>
0.313 

> <ROCS_ShapeTanimoto>
0.174 

> <ROCS_ColorTanimoto>
0.138 

> <ROCS_RefTversky>
0.164 

> <ROCS_RefColorTversky>
0.147 

> <ROCS_RefTverskyCombo>
0.311 

> <ROCS_FitTversky>
1.604 

> <ROCS_FitColorTversky>
0.694 

> <ROCS_FitTverskyCombo>
2.298 

> <ROCS_ColorScore>
-5.253

> <ROCS_Overlap>
1930.921

> <ROCS_Rank>
254                 

$$$$
untitled-dbase-460_1
  -OEChem-02082415003D

 28 29  0     0  0  0  0  0  0999 V2000
   11.7316   15.0264   20.9381 C   0  0  0  0  0  0  0  0  0  0  0  0
   12.5753   15.3941   21.9862 C   0  0  0  0  0  0  0  0  0  0  0  0
   10.4272   14.6110   21.2056 C   0  0  0  0  0  0  0  0  0  0  0  0
   12.1145   15.3463   23.3019 C   0  0  0  0  0  0  0  0  0  0  0  0
    9.9664   14.5632   22.5212 C   0  0  0  0  0  0  0  0  0  0  0  0
   10.8101   14.9309   23.5695 C   0  0  0  0  0  0  0  0  0  0  0  0
    9.3580   11.5326   22.7056 C   0  0  0  0  0  0  0  0  0  0  0  0
    7.4108   11.8690   24.1706 C   0  0  0  0  0  0  0  0  0  0  0  0
    9.7470   10.3497   23.5813 C   0  0  0  0  0  0  0  0  0  0  0  0
    7.8819   10.6723   24.9849 C   0  0  0  0  0  0  0  0  0  0  0  0
    8.5972   12.5129   23.5344 N   0  0  0  0  0  0  0  0  0  0  0  0
    7.7132   14.9227   23.7731 O   0  0  0  0  0  0  0  0  0  0  0  0
    7.6851   13.8179   21.5090 O   0  0  0  0  0  0  0  0  0  0  0  0
    8.5816    9.7478   24.1489 O   0  0  0  0  0  0  0  0  0  0  0  0
    8.3060   14.0314   22.7989 S   0  0  0  0  0  0  0  0  0  0  0  0
   10.2893   14.8895   25.2155 Cl  0  0  0  0  0  0  0  0  0  0  0  0
   12.0902   15.0644   19.9136 H   0  0  0  0  0  0  0  0  0  0  0  0
   13.5906   15.7181   21.7778 H   0  0  0  0  0  0  0  0  0  0  0  0
    9.7805   14.3279   20.3792 H   0  0  0  0  0  0  0  0  0  0  0  0
   12.7853   15.6365   24.1067 H   0  0  0  0  0  0  0  0  0  0  0  0
   10.2530   12.0234   22.3061 H   0  0  0  0  0  0  0  0  0  0  0  0
    8.7358   11.1865   21.8743 H   0  0  0  0  0  0  0  0  0  0  0  0
    6.7097   11.5363   23.3987 H   0  0  0  0  0  0  0  0  0  0  0  0
    6.9137   12.6004   24.8182 H   0  0  0  0  0  0  0  0  0  0  0  0
   10.3052    9.5952   23.0140 H   0  0  0  0  0  0  0  0  0  0  0  0
   10.3840   10.6873   24.4049 H   0  0  0  0  0  0  0  0  0  0  0  0
    8.5707   11.0012   25.7691 H   0  0  0  0  0  0  0  0  0  0  0  0
    7.0427   10.1593   25.4697 H   0  0  0  0  0  0  0  0  0  0  0  0
  1  2  2  0  0  0  0
  1  3  1  0  0  0  0
  2  4  1  0  0  0  0
  3  5  2  0  0  0  0
  4  6  2  0  0  0  0
  5  6  1  0  0  0  0
  5 15  1  0  0  0  0
  6 16  1  0  0  0  0
  7  9  1  0  0  0  0
  7 11  1  0  0  0  0
  8 10  1  0  0  0  0
  8 11  1  0  0  0  0
  9 14  1  0  0  0  0
 10 14  1  0  0  0  0
 11 15  1  0  0  0  0
 12 15  2  0  0  0  0
 13 15  2  0  0  0  0
  1 17  1  0  0  0  0
  2 18  1  0  0  0  0
  3 19  1  0  0  0  0
  4 20  1  0  0  0  0
  7 21  1  0  0  0  0
  7 22  1  0  0  0  0
  8 23  1  0  0  0  0
  8 24  1  0  0  0  0
  9 25  1  0  0  0  0
  9 26  1  0  0  0  0
 10 27  1  0  0  0  0
 10 28  1  0  0  0  0
M  END
> <Catalog ID>
Z45515849

> <PlateID>
1337959-R-11

> <Well>
A05

> <MW (desalted)>
261.725

> <CLogP>
1.696

> <HBD>
0

> <TPSA>
46.610

> <RotBonds>
1

> <ROCS_ShapeQuery>
x0446_0A_x1080_0A_x0929_0A_x0812_0A_x0719_0A_x1140_0A_x0528_0A_x0310_0A

> <ROCS_TanimotoCombo>
0.313 

> <ROCS_ShapeTanimoto>
0.197 

> <ROCS_ColorTanimoto>
0.115 

> <ROCS_RefTversky>
0.182 

> <ROCS_RefColorTversky>
0.123 

> <ROCS_RefTverskyCombo>
0.305 

> <ROCS_FitTversky>
1.707 

> <ROCS_FitColorTversky>
0.661 

> <ROCS_FitTverskyCombo>
2.367 

> <ROCS_ColorScore>
-4.369

> <ROCS_Overlap>
2152.852

> <ROCS_Rank>
255                 

$$$$
untitled-dbase-626_9
  -OEChem-02082415003D

 35 37  0     1  0  0  0  0  0999 V2000
   14.0569   15.0479   21.8926 C   0  0  0  0  0  0  0  0  0  0  0  0
   12.9349   14.3864   22.3794 C   0  0  0  0  0  0  0  0  0  0  0  0
   14.3032   13.3269   20.2696 C   0  0  0  0  0  0  0  0  0  0  0  0
   14.7596   14.5147   20.8179 C   0  0  0  0  0  0  0  0  0  0  0  0
   12.5600   13.2044   21.7611 C   0  0  0  0  0  0  0  0  0  0  0  0
   10.5987   12.9250   23.3276 C   0  0  0  0  0  0  0  0  0  0  0  0
    8.1262   10.1481   23.6659 C   0  0  0  0  0  0  0  0  0  0  0  0
    6.3569   11.9856   23.4582 C   0  0  0  0  0  0  0  0  0  0  0  0
    9.2271   10.8114   22.8485 C   0  0  0  0  0  0  0  0  0  0  0  0
    8.5757   12.2788   24.6414 C   0  0  0  0  0  0  0  0  0  0  0  0
    5.4969   12.7111   24.4751 C   0  0  0  0  0  0  0  0  0  0  0  0
    6.5918   10.9597   25.5561 C   0  0  0  0  0  0  0  0  0  0  0  0
    7.4131   11.3250   24.3323 C   0  0  2  0  0  0  0  0  0  0  0  0
   13.2176   12.6557   20.7151 N   0  0  0  0  0  0  0  0  0  0  0  0
    9.5371   12.0442   23.5692 N   0  0  0  0  0  0  0  0  0  0  0  0
   11.4161   12.5379   22.2651 N   0  0  0  0  0  0  0  0  0  0  0  0
   10.7555   13.9396   24.0093 O   0  0  0  0  0  0  0  0  0  0  0  0
    5.6025   11.9885   25.7096 O   0  0  0  0  0  0  0  0  0  0  0  0
   15.8419   15.1299   20.3286 F   0  0  0  0  0  0  0  0  0  0  0  0
   14.3833   15.9764   22.3515 H   0  0  0  0  0  0  0  0  0  0  0  0
   12.3817   14.7947   23.2189 H   0  0  0  0  0  0  0  0  0  0  0  0
   14.8166   12.8696   19.4304 H   0  0  0  0  0  0  0  0  0  0  0  0
    7.4385    9.6177   22.9955 H   0  0  0  0  0  0  0  0  0  0  0  0
    8.5275    9.4236   24.3811 H   0  0  0  0  0  0  0  0  0  0  0  0
    5.7582   11.2188   22.9520 H   0  0  0  0  0  0  0  0  0  0  0  0
    6.7582   12.6568   22.6942 H   0  0  0  0  0  0  0  0  0  0  0  0
   10.1349   10.1995   22.8216 H   0  0  0  0  0  0  0  0  0  0  0  0
    8.9102   11.0287   21.8243 H   0  0  0  0  0  0  0  0  0  0  0  0
    8.2729   13.3304   24.5748 H   0  0  0  0  0  0  0  0  0  0  0  0
    9.0460   12.1145   25.6164 H   0  0  0  0  0  0  0  0  0  0  0  0
    5.8600   13.7299   24.6505 H   0  0  0  0  0  0  0  0  0  0  0  0
    4.4474   12.7659   24.1699 H   0  0  0  0  0  0  0  0  0  0  0  0
    6.0530   10.0126   25.4209 H   0  0  0  0  0  0  0  0  0  0  0  0
    7.1757   10.8867   26.4815 H   0  0  0  0  0  0  0  0  0  0  0  0
   11.1527   11.6369   21.7734 H   0  0  0  0  0  0  0  0  0  0  0  0
  1  2  1  0  0  0  0
  1  4  2  0  0  0  0
  2  5  2  0  0  0  0
  3  4  1  0  0  0  0
  3 14  2  0  0  0  0
  4 19  1  0  0  0  0
  5 14  1  0  0  0  0
  5 16  1  0  0  0  0
  6 15  1  0  0  0  0
  6 16  1  0  0  0  0
  6 17  2  0  0  0  0
  7  9  1  0  0  0  0
  7 13  1  0  0  0  0
  8 11  1  0  0  0  0
  8 13  1  0  0  0  0
  9 15  1  0  0  0  0
 10 13  1  0  0  0  0
 10 15  1  0  0  0  0
 11 18  1  0  0  0  0
 12 13  1  0  0  0  0
 12 18  1  0  0  0  0
  1 20  1  0  0  0  0
  2 21  1  0  0  0  0
  3 22  1  0  0  0  0
  7 23  1  0  0  0  0
  7 24  1  0  0  0  0
  8 25  1  0  0  0  0
  8 26  1  0  0  0  0
  9 27  1  0  0  0  0
  9 28  1  0  0  0  0
 10 29  1  0  0  0  0
 10 30  1  0  0  0  0
 11 31  1  0  0  0  0
 11 32  1  0  0  0  0
 12 33  1  0  0  0  0
 12 34  1  0  0  0  0
 16 35  1  0  0  0  0
M  END
> <Catalog ID>
Z1732181340

> <PlateID>
1337959-R-14

> <Well>
G05

> <MW (desalted)>
265.283

> <CLogP>
0.655

> <HBD>
1

> <TPSA>
54.460

> <RotBonds>
1

> <ROCS_ShapeQuery>
x0446_0A_x1080_0A_x0929_0A_x0812_0A_x0719_0A_x1140_0A_x0528_0A_x0310_0A

> <ROCS_TanimotoCombo>
0.313 

> <ROCS_ShapeTanimoto>
0.187 

> <ROCS_ColorTanimoto>
0.126 

> <ROCS_RefTversky>
0.176 

> <ROCS_RefColorTversky>
0.139 

> <ROCS_RefTverskyCombo>
0.315 

> <ROCS_FitTversky>
1.445 

> <ROCS_FitColorTversky>
0.581 

> <ROCS_FitTverskyCombo>
2.026 

> <ROCS_ColorScore>
-4.945

> <ROCS_Overlap>
2083.222

> <ROCS_Rank>
256                 

$$$$
untitled-dbase-506_18
  -OEChem-02082415003D

 29 30  0     0  0  0  0  0  0999 V2000
    8.1680   10.6965   24.5513 C   0  0  0  0  0  0  0  0  0  0  0  0
    9.1249   10.3381   23.6019 C   0  0  0  0  0  0  0  0  0  0  0  0
    8.2792   12.9893   23.7978 C   0  0  0  0  0  0  0  0  0  0  0  0
    7.7450   12.0221   24.6492 C   0  0  0  0  0  0  0  0  0  0  0  0
    9.6591   11.3052   22.7505 C   0  0  0  0  0  0  0  0  0  0  0  0
    9.2362   12.6309   22.8484 C   0  0  0  0  0  0  0  0  0  0  0  0
   11.9009   16.6479   22.0021 C   0  0  0  0  0  0  0  0  0  0  0  0
   13.1765   14.7565   21.2117 C   0  0  0  0  0  0  0  0  0  0  0  0
   11.2896   15.8027   23.1149 C   0  0  0  0  0  0  0  0  0  0  0  0
   12.5916   13.8719   22.3079 C   0  0  0  0  0  0  0  0  0  0  0  0
   13.2307   16.1574   21.6344 N   0  0  0  0  0  0  0  0  0  0  0  0
   11.2474   14.3690   22.7133 N   0  0  0  0  0  0  0  0  0  0  0  0
   10.3969   13.1932   20.5879 O   0  0  0  0  0  0  0  0  0  0  0  0
    8.9604   14.9465   21.6881 O   0  0  0  0  0  0  0  0  0  0  0  0
    6.8265   12.3661   25.5615 F   0  0  0  0  0  0  0  0  0  0  0  0
   10.5803   10.9495   21.8441 F   0  0  0  0  0  0  0  0  0  0  0  0
    9.9127   13.8603   21.7774 S   0  0  0  0  0  0  0  0  0  0  0  0
    7.7525    9.9433   25.2144 H   0  0  0  0  0  0  0  0  0  0  0  0
    9.4546    9.3062   23.5248 H   0  0  0  0  0  0  0  0  0  0  0  0
    7.9442   14.0194   23.8843 H   0  0  0  0  0  0  0  0  0  0  0  0
   11.2531   16.6188   21.1196 H   0  0  0  0  0  0  0  0  0  0  0  0
   11.9696   17.6980   22.3115 H   0  0  0  0  0  0  0  0  0  0  0  0
   14.1830   14.4158   20.9399 H   0  0  0  0  0  0  0  0  0  0  0  0
   12.5609   14.6796   20.3090 H   0  0  0  0  0  0  0  0  0  0  0  0
   11.9034   15.9076   24.0210 H   0  0  0  0  0  0  0  0  0  0  0  0
   10.2727   16.1493   23.3539 H   0  0  0  0  0  0  0  0  0  0  0  0
   12.5118   12.8287   21.9660 H   0  0  0  0  0  0  0  0  0  0  0  0
   13.2631   13.8911   23.1783 H   0  0  0  0  0  0  0  0  0  0  0  0
   13.5885   16.7216   20.8617 H   0  0  0  0  0  0  0  0  0  0  0  0
  1  2  1  0  0  0  0
  1  4  2  0  0  0  0
  2  5  2  0  0  0  0
  3  4  1  0  0  0  0
  3  6  2  0  0  0  0
  4 15  1  0  0  0  0
  5  6  1  0  0  0  0
  5 16  1  0  0  0  0
  6 17  1  0  0  0  0
  7  9  1  0  0  0  0
  7 11  1  0  0  0  0
  8 10  1  0  0  0  0
  8 11  1  0  0  0  0
  9 12  1  0  0  0  0
 10 12  1  0  0  0  0
 12 17  1  0  0  0  0
 13 17  2  0  0  0  0
 14 17  2  0  0  0  0
  1 18  1  0  0  0  0
  2 19  1  0  0  0  0
  3 20  1  0  0  0  0
  7 21  1  0  0  0  0
  7 22  1  0  0  0  0
  8 23  1  0  0  0  0
  8 24  1  0  0  0  0
  9 25  1  0  0  0  0
  9 26  1  0  0  0  0
 10 27  1  0  0  0  0
 10 28  1  0  0  0  0
 11 29  1  0  0  0  0
M  END
> <Catalog ID>
Z94598474

> <PlateID>
1337959-R-12

> <Well>
A02

> <MW (desalted)>
262.276

> <CLogP>
1.555

> <HBD>
1

> <TPSA>
49.410

> <RotBonds>
1

> <ROCS_ShapeQuery>
x0446_0A_x1080_0A_x0929_0A_x0812_0A_x0719_0A_x1140_0A_x0528_0A_x0310_0A

> <ROCS_TanimotoCombo>
0.312 

> <ROCS_ShapeTanimoto>
0.214 

> <ROCS_ColorTanimoto>
0.098 

> <ROCS_RefTversky>
0.196 

> <ROCS_RefColorTversky>
0.109 

> <ROCS_RefTverskyCombo>
0.305 

> <ROCS_FitTversky>
1.755 

> <ROCS_FitColorTversky>
0.512 

> <ROCS_FitTverskyCombo>
2.267 

> <ROCS_ColorScore>
-3.871

> <ROCS_Overlap>
2312.661

> <ROCS_Rank>
257                 

$$$$
untitled-dbase-498_18
  -OEChem-02082415003D

 29 30  0     0  0  0  0  0  0999 V2000
   12.6498   15.2723   22.2978 C   0  0  0  0  0  0  0  0  0  0  0  0
   11.5162   16.0544   22.1065 C   0  0  0  0  0  0  0  0  0  0  0  0
    6.4594   13.1216   23.5436 C   0  0  0  0  0  0  0  0  0  0  0  0
    6.7224   11.5360   25.3474 C   0  0  0  0  0  0  0  0  0  0  0  0
    7.6752   12.7058   23.0008 C   0  0  0  0  0  0  0  0  0  0  0  0
    7.9382   11.1202   24.8046 C   0  0  0  0  0  0  0  0  0  0  0  0
   12.5239   13.9941   22.8304 C   0  0  0  0  0  0  0  0  0  0  0  0
   10.2896   15.5163   22.4610 C   0  0  0  0  0  0  0  0  0  0  0  0
    5.9830   12.5367   24.7169 C   0  0  0  0  0  0  0  0  0  0  0  0
    8.4146   11.7051   23.6313 C   0  0  0  0  0  0  0  0  0  0  0  0
   11.2522   13.5483   23.1527 C   0  0  0  0  0  0  0  0  0  0  0  0
    4.6835   12.9816   25.2979 C   0  0  0  0  0  0  0  0  0  0  0  0
   10.1278   14.2790   22.9810 N   0  0  0  0  0  0  0  0  0  0  0  0
   11.0728   12.2334   23.7068 N   0  0  0  0  0  0  0  0  0  0  0  0
    9.9132   11.4902   21.5256 O   0  0  0  0  0  0  0  0  0  0  0  0
   10.1868    9.8094   23.3694 O   0  0  0  0  0  0  0  0  0  0  0  0
    9.9353   11.1831   22.9509 S   0  0  0  0  0  0  0  0  0  0  0  0
   13.6294   15.6585   22.0327 H   0  0  0  0  0  0  0  0  0  0  0  0
   11.5905   17.0536   21.6929 H   0  0  0  0  0  0  0  0  0  0  0  0
    5.8904   13.9021   23.0456 H   0  0  0  0  0  0  0  0  0  0  0  0
    6.3593   11.0749   26.2621 H   0  0  0  0  0  0  0  0  0  0  0  0
    8.0375   13.1685   22.0866 H   0  0  0  0  0  0  0  0  0  0  0  0
    8.5064   10.3400   25.3043 H   0  0  0  0  0  0  0  0  0  0  0  0
   13.4004   13.3743   22.9849 H   0  0  0  0  0  0  0  0  0  0  0  0
    9.3752   16.0859   22.3315 H   0  0  0  0  0  0  0  0  0  0  0  0
    3.8588   12.3831   24.8919 H   0  0  0  0  0  0  0  0  0  0  0  0
    4.6806   12.8815   26.3911 H   0  0  0  0  0  0  0  0  0  0  0  0
    4.4887   14.0388   25.0754 H   0  0  0  0  0  0  0  0  0  0  0  0
   11.1146   12.1894   24.7336 H   0  0  0  0  0  0  0  0  0  0  0  0
  1  2  2  0  0  0  0
  1  7  1  0  0  0  0
  2  8  1  0  0  0  0
  3  5  1  0  0  0  0
  3  9  2  0  0  0  0
  4  6  2  0  0  0  0
  4  9  1  0  0  0  0
  5 10  2  0  0  0  0
  6 10  1  0  0  0  0
  7 11  2  0  0  0  0
  8 13  2  0  0  0  0
  9 12  1  0  0  0  0
 10 17  1  0  0  0  0
 11 13  1  0  0  0  0
 11 14  1  0  0  0  0
 14 17  1  0  0  0  0
 15 17  2  0  0  0  0
 16 17  2  0  0  0  0
  1 18  1  0  0  0  0
  2 19  1  0  0  0  0
  3 20  1  0  0  0  0
  4 21  1  0  0  0  0
  5 22  1  0  0  0  0
  6 23  1  0  0  0  0
  7 24  1  0  0  0  0
  8 25  1  0  0  0  0
 12 26  1  0  0  0  0
 12 27  1  0  0  0  0
 12 28  1  0  0  0  0
 14 29  1  0  0  0  0
M  END
> <Catalog ID>
Z45654206

> <PlateID>
1337959-R-11

> <Well>
G10

> <MW (desalted)>
248.301

> <CLogP>
2.212

> <HBD>
1

> <TPSA>
59.060

> <RotBonds>
2

> <ROCS_ShapeQuery>
x0446_0A_x1080_0A_x0929_0A_x0812_0A_x0719_0A_x1140_0A_x0528_0A_x0310_0A

> <ROCS_TanimotoCombo>
0.312 

> <ROCS_ShapeTanimoto>
0.217 

> <ROCS_ColorTanimoto>
0.095 

> <ROCS_RefTversky>
0.199 

> <ROCS_RefColorTversky>
0.105 

> <ROCS_RefTverskyCombo>
0.304 

> <ROCS_FitTversky>
1.773 

> <ROCS_FitColorTversky>
0.496 

> <ROCS_FitTverskyCombo>
2.269 

> <ROCS_ColorScore>
-3.752

> <ROCS_Overlap>
2342.851

> <ROCS_Rank>
258                 

$$$$
untitled-dbase-523_0
  -OEChem-02082415003D

 22 23  0     1  0  0  0  0  0999 V2000
    7.1928   11.0286   24.3100 C   0  0  0  0  0  0  0  0  0  0  0  0
    8.2877   10.6410   25.3078 C   0  0  0  0  0  0  0  0  0  0  0  0
    8.4811   12.5659   22.7242 C   0  0  0  0  0  0  0  0  0  0  0  0
   10.2940   11.9224   24.3756 C   0  0  0  0  0  0  0  0  0  0  0  0
    7.9181   11.1561   22.9708 C   0  0  1  0  0  0  0  0  0  0  0  0
    9.5652   10.5716   24.4715 C   0  0  2  0  0  0  0  0  0  0  0  0
    9.3791   13.0455   23.8707 C   0  0  0  0  0  0  0  0  0  0  0  0
    9.0357   10.2177   23.1468 N   0  0  0  0  0  0  0  0  0  0  0  0
   10.1561   14.1516   23.4281 O   0  0  0  0  0  0  0  0  0  0  0  0
    6.4434   10.2290   24.2670 H   0  0  0  0  0  0  0  0  0  0  0  0
    6.6785   11.9497   24.6034 H   0  0  0  0  0  0  0  0  0  0  0  0
    8.3601   11.3551   26.1343 H   0  0  0  0  0  0  0  0  0  0  0  0
    8.0549    9.6587   25.7368 H   0  0  0  0  0  0  0  0  0  0  0  0
    9.0478   12.5756   21.7833 H   0  0  0  0  0  0  0  0  0  0  0  0
    7.6622   13.2824   22.5837 H   0  0  0  0  0  0  0  0  0  0  0  0
   10.7030   12.2027   25.3543 H   0  0  0  0  0  0  0  0  0  0  0  0
   11.1614   11.8262   23.7084 H   0  0  0  0  0  0  0  0  0  0  0  0
    7.2771   10.8608   22.1338 H   0  0  0  0  0  0  0  0  0  0  0  0
   10.2518    9.8051   24.8445 H   0  0  0  0  0  0  0  0  0  0  0  0
    8.7493   13.4032   24.6938 H   0  0  0  0  0  0  0  0  0  0  0  0
    8.6674    9.2662   23.1809 H   0  0  0  0  0  0  0  0  0  0  0  0
    9.5300   14.8450   23.1650 H   0  0  0  0  0  0  0  0  0  0  0  0
  1  2  1  0  0  0  0
  1  5  1  0  0  0  0
  2  6  1  0  0  0  0
  3  5  1  0  0  0  0
  3  7  1  0  0  0  0
  4  6  1  0  0  0  0
  4  7  1  0  0  0  0
  5  8  1  0  0  0  0
  6  8  1  0  0  0  0
  7  9  1  0  0  0  0
  1 10  1  0  0  0  0
  1 11  1  0  0  0  0
  2 12  1  0  0  0  0
  2 13  1  0  0  0  0
  3 14  1  0  0  0  0
  3 15  1  0  0  0  0
  4 16  1  0  0  0  0
  4 17  1  0  0  0  0
  5 18  1  0  0  0  0
  6 19  1  0  0  0  0
  7 20  1  0  0  0  0
  8 21  1  0  0  0  0
  9 22  1  0  0  0  0
M  END
> <Catalog ID>
Z727903334

> <PlateID>
1337959-R-12

> <Well>
D03

> <MW (desalted)>
127.184

> <CLogP>
-0.838

> <HBD>
2

> <TPSA>
32.260

> <RotBonds>
0

> <ROCS_ShapeQuery>
x0446_0A_x1080_0A_x0929_0A_x0812_0A_x0719_0A_x1140_0A_x0528_0A_x0310_0A

> <ROCS_TanimotoCombo>
0.312 

> <ROCS_ShapeTanimoto>
0.148 

> <ROCS_ColorTanimoto>
0.165 

> <ROCS_RefTversky>
0.139 

> <ROCS_RefColorTversky>
0.185 

> <ROCS_RefTverskyCombo>
0.325 

> <ROCS_FitTversky>
1.662 

> <ROCS_FitColorTversky>
0.594 

> <ROCS_FitTverskyCombo>
2.255 

> <ROCS_ColorScore>
-6.644

> <ROCS_Overlap>
1643.129

> <ROCS_Rank>
259                 

$$$$
untitled-dbase-386_1
  -OEChem-02082415003D

 27 28  0     0  0  0  0  0  0999 V2000
    9.5233   10.2208   23.4228 C   0  0  0  0  0  0  0  0  0  0  0  0
    9.5806   11.4084   22.6934 C   0  0  0  0  0  0  0  0  0  0  0  0
    8.7777   10.1607   24.6001 C   0  0  0  0  0  0  0  0  0  0  0  0
    8.8923   12.5359   23.1414 C   0  0  0  0  0  0  0  0  0  0  0  0
    8.1467   12.4758   24.3188 C   0  0  0  0  0  0  0  0  0  0  0  0
    8.0894   11.2881   25.0481 C   0  0  0  0  0  0  0  0  0  0  0  0
    8.9558   13.7842   22.3697 C   0  0  0  0  0  0  0  0  0  0  0  0
   11.0094   14.5119   23.6933 C   0  0  0  0  0  0  0  0  0  0  0  0
   10.0218   15.9812   21.9816 C   0  0  0  0  0  0  0  0  0  0  0  0
   12.3789   14.8673   23.1265 C   0  0  0  0  0  0  0  0  0  0  0  0
   11.4308   16.2644   21.4816 C   0  0  0  0  0  0  0  0  0  0  0  0
    9.9738   14.6914   22.6685 N   0  0  0  0  0  0  0  0  0  0  0  0
    8.0895   13.9382   21.5100 O   0  0  0  0  0  0  0  0  0  0  0  0
   12.3628   16.1813   22.5632 O   0  0  0  0  0  0  0  0  0  0  0  0
    7.4861   13.5627   24.7467 F   0  0  0  0  0  0  0  0  0  0  0  0
    7.1713   11.2066   26.5022 Cl  0  0  0  0  0  0  0  0  0  0  0  0
   10.0592    9.3432   23.0741 H   0  0  0  0  0  0  0  0  0  0  0  0
   10.1648   11.4440   21.7774 H   0  0  0  0  0  0  0  0  0  0  0  0
    8.7422    9.2282   25.1580 H   0  0  0  0  0  0  0  0  0  0  0  0
   11.0193   13.4941   24.0903 H   0  0  0  0  0  0  0  0  0  0  0  0
   10.7532   15.1941   24.5126 H   0  0  0  0  0  0  0  0  0  0  0  0
    9.7218   16.7359   22.7182 H   0  0  0  0  0  0  0  0  0  0  0  0
    9.3063   16.0109   21.1543 H   0  0  0  0  0  0  0  0  0  0  0  0
   13.1255   14.8598   23.9269 H   0  0  0  0  0  0  0  0  0  0  0  0
   12.6989   14.1442   22.3669 H   0  0  0  0  0  0  0  0  0  0  0  0
   11.7244   15.5696   20.6856 H   0  0  0  0  0  0  0  0  0  0  0  0
   11.4845   17.2789   21.0743 H   0  0  0  0  0  0  0  0  0  0  0  0
  1  2  1  0  0  0  0
  1  3  2  0  0  0  0
  2  4  2  0  0  0  0
  3  6  1  0  0  0  0
  4  5  1  0  0  0  0
  4  7  1  0  0  0  0
  5  6  2  0  0  0  0
  5 15  1  0  0  0  0
  6 16  1  0  0  0  0
  7 12  1  0  0  0  0
  7 13  2  0  0  0  0
  8 10  1  0  0  0  0
  8 12  1  0  0  0  0
  9 11  1  0  0  0  0
  9 12  1  0  0  0  0
 10 14  1  0  0  0  0
 11 14  1  0  0  0  0
  1 17  1  0  0  0  0
  2 18  1  0  0  0  0
  3 19  1  0  0  0  0
  8 20  1  0  0  0  0
  8 21  1  0  0  0  0
  9 22  1  0  0  0  0
  9 23  1  0  0  0  0
 10 24  1  0  0  0  0
 10 25  1  0  0  0  0
 11 26  1  0  0  0  0
 11 27  1  0  0  0  0
M  END
> <Catalog ID>
Z1431484556

> <PlateID>
1337959-R-09

> <Well>
C05

> <MW (desalted)>
243.662

> <CLogP>
1.730

> <HBD>
0

> <TPSA>
29.540

> <RotBonds>
1

> <ROCS_ShapeQuery>
x0446_0A_x1080_0A_x0929_0A_x0812_0A_x0719_0A_x1140_0A_x0528_0A_x0310_0A

> <ROCS_TanimotoCombo>
0.312 

> <ROCS_ShapeTanimoto>
0.212 

> <ROCS_ColorTanimoto>
0.100 

> <ROCS_RefTversky>
0.194 

> <ROCS_RefColorTversky>
0.106 

> <ROCS_RefTverskyCombo>
0.300 

> <ROCS_FitTversky>
1.774 

> <ROCS_FitColorTversky>
0.663 

> <ROCS_FitTverskyCombo>
2.437 

> <ROCS_ColorScore>
-3.751

> <ROCS_Overlap>
2289.020

> <ROCS_Rank>
260                 

$$$$
untitled-dbase-292_10
  -OEChem-02082415003D

 24 25  0     0  0  0  0  0  0999 V2000
    7.8223   10.9410   25.1583 C   0  0  0  0  0  0  0  0  0  0  0  0
    8.2459   10.0508   24.1716 C   0  0  0  0  0  0  0  0  0  0  0  0
    8.2404   12.2714   25.1235 C   0  0  0  0  0  0  0  0  0  0  0  0
    9.0877   10.4909   23.1501 C   0  0  0  0  0  0  0  0  0  0  0  0
    9.0822   12.7114   24.1021 C   0  0  0  0  0  0  0  0  0  0  0  0
    9.5058   11.8212   23.1153 C   0  0  0  0  0  0  0  0  0  0  0  0
    8.9615   14.1606   21.4899 C   0  0  0  0  0  0  0  0  0  0  0  0
   11.3466   14.0557   20.5705 C   0  0  0  0  0  0  0  0  0  0  0  0
   11.4396   14.5770   21.9716 C   0  0  0  0  0  0  0  0  0  0  0  0
   10.3274   13.6245   21.5991 C   0  0  0  0  0  0  0  0  0  0  0  0
   10.3367   12.2560   22.1071 N   0  0  0  0  0  0  0  0  0  0  0  0
    7.9528   13.4868   21.3421 O   0  0  0  0  0  0  0  0  0  0  0  0
    8.9701   15.5135   21.5731 O   0  0  0  0  0  0  0  0  0  0  0  0
    7.1670   10.5982   25.9538 H   0  0  0  0  0  0  0  0  0  0  0  0
    7.9205    9.0153   24.1988 H   0  0  0  0  0  0  0  0  0  0  0  0
    7.9104   12.9645   25.8921 H   0  0  0  0  0  0  0  0  0  0  0  0
    9.4122    9.7893   22.3860 H   0  0  0  0  0  0  0  0  0  0  0  0
    9.4014   13.7505   24.0851 H   0  0  0  0  0  0  0  0  0  0  0  0
   11.0402   14.7481   19.7953 H   0  0  0  0  0  0  0  0  0  0  0  0
   12.0911   13.3358   20.2515 H   0  0  0  0  0  0  0  0  0  0  0  0
   12.2467   14.2070   22.5930 H   0  0  0  0  0  0  0  0  0  0  0  0
   11.1966   15.6199   22.1373 H   0  0  0  0  0  0  0  0  0  0  0  0
   10.9872   11.6126   21.6877 H   0  0  0  0  0  0  0  0  0  0  0  0
    8.0675   15.8908   21.5004 H   0  0  0  0  0  0  0  0  0  0  0  0
  1  2  2  0  0  0  0
  1  3  1  0  0  0  0
  2  4  1  0  0  0  0
  3  5  2  0  0  0  0
  4  6  2  0  0  0  0
  5  6  1  0  0  0  0
  6 11  1  0  0  0  0
  7 10  1  0  0  0  0
  7 12  2  0  0  0  0
  7 13  1  0  0  0  0
  8  9  1  0  0  0  0
  8 10  1  0  0  0  0
  9 10  1  0  0  0  0
 10 11  1  0  0  0  0
  1 14  1  0  0  0  0
  2 15  1  0  0  0  0
  3 16  1  0  0  0  0
  4 17  1  0  0  0  0
  5 18  1  0  0  0  0
  8 19  1  0  0  0  0
  8 20  1  0  0  0  0
  9 21  1  0  0  0  0
  9 22  1  0  0  0  0
 11 23  1  0  0  0  0
 13 24  1  0  0  0  0
M  END
> <Catalog ID>
Z1262549981

> <PlateID>
1337959-R-07

> <Well>
A10

> <MW (desalted)>
177.200

> <CLogP>
1.360

> <HBD>
2

> <TPSA>
49.330

> <RotBonds>
3

> <ROCS_ShapeQuery>
x0446_0A_x1080_0A_x0929_0A_x0812_0A_x0719_0A_x1140_0A_x0528_0A_x0310_0A

> <ROCS_TanimotoCombo>
0.312 

> <ROCS_ShapeTanimoto>
0.181 

> <ROCS_ColorTanimoto>
0.131 

> <ROCS_RefTversky>
0.169 

> <ROCS_RefColorTversky>
0.137 

> <ROCS_RefTverskyCombo>
0.306 

> <ROCS_FitTversky>
1.706 

> <ROCS_FitColorTversky>
0.738 

> <ROCS_FitTverskyCombo>
2.444 

> <ROCS_ColorScore>
-4.882

> <ROCS_Overlap>
1988.613

> <ROCS_Rank>
261                 

$$$$
untitled-dbase-477_6
  -OEChem-02082415003D

 36 37  0     0  0  0  0  0  0999 V2000
   11.0545    9.8216   23.5194 C   0  0  0  0  0  0  0  0  0  0  0  0
    9.8181   10.3502   23.4421 C   0  0  0  0  0  0  0  0  0  0  0  0
   12.2466   10.6554   23.7578 C   0  0  0  0  0  0  0  0  0  0  0  0
   10.7323   12.6116   23.8233 C   0  0  0  0  0  0  0  0  0  0  0  0
    5.4309   13.3039   24.4463 C   0  0  0  0  0  0  0  0  0  0  0  0
    6.2368   11.2587   25.6993 C   0  0  0  0  0  0  0  0  0  0  0  0
    6.7903   13.9707   24.6601 C   0  0  0  0  0  0  0  0  0  0  0  0
    7.5963   11.9255   25.9133 C   0  0  0  0  0  0  0  0  0  0  0  0
    5.0918   12.2663   25.5256 C   0  0  0  0  0  0  0  0  0  0  0  0
    7.9354   12.9632   24.8341 C   0  0  0  0  0  0  0  0  0  0  0  0
    4.7221   12.9342   26.8534 C   0  0  0  0  0  0  0  0  0  0  0  0
    8.3055   12.2955   23.5064 C   0  0  0  0  0  0  0  0  0  0  0  0
   11.9836   12.0020   23.8921 N   0  0  0  0  0  0  0  0  0  0  0  0
    9.6188   11.7514   23.5905 N   0  0  0  0  0  0  0  0  0  0  0  0
    8.7572    9.5004   23.2165 N   0  0  0  0  0  0  0  0  0  0  0  0
   13.3647   10.1543   23.8244 O   0  0  0  0  0  0  0  0  0  0  0  0
   10.6222   13.8328   23.9598 O   0  0  0  0  0  0  0  0  0  0  0  0
   11.2253    8.7549   23.4084 H   0  0  0  0  0  0  0  0  0  0  0  0
    4.6492   14.0826   24.4190 H   0  0  0  0  0  0  0  0  0  0  0  0
    5.4176   12.8259   23.4529 H   0  0  0  0  0  0  0  0  0  0  0  0
    6.2936   10.6035   24.8143 H   0  0  0  0  0  0  0  0  0  0  0  0
    6.0237   10.5952   26.5551 H   0  0  0  0  0  0  0  0  0  0  0  0
    7.0038   14.6336   23.8039 H   0  0  0  0  0  0  0  0  0  0  0  0
    6.7335   14.6267   25.5445 H   0  0  0  0  0  0  0  0  0  0  0  0
    7.6093   12.4036   26.9069 H   0  0  0  0  0  0  0  0  0  0  0  0
    8.3778   11.1468   25.9412 H   0  0  0  0  0  0  0  0  0  0  0  0
    4.1978   11.7025   25.1808 H   0  0  0  0  0  0  0  0  0  0  0  0
    8.8293   13.5267   25.1794 H   0  0  0  0  0  0  0  0  0  0  0  0
    5.5719   13.5005   27.2308 H   0  0  0  0  0  0  0  0  0  0  0  0
    4.4463   12.1755   27.5838 H   0  0  0  0  0  0  0  0  0  0  0  0
    3.8809   13.6093   26.7051 H   0  0  0  0  0  0  0  0  0  0  0  0
    7.5748   11.5089   23.3264 H   0  0  0  0  0  0  0  0  0  0  0  0
    8.2563   13.0623   22.7353 H   0  0  0  0  0  0  0  0  0  0  0  0
   12.7796   12.6115   24.0579 H   0  0  0  0  0  0  0  0  0  0  0  0
    8.9498    8.5338   23.1204 H   0  0  0  0  0  0  0  0  0  0  0  0
    7.8506    9.8950   23.1607 H   0  0  0  0  0  0  0  0  0  0  0  0
  1  2  2  0  0  0  0
  1  3  1  0  0  0  0
  2 14  1  0  0  0  0
  2 15  1  0  0  0  0
  3 13  1  0  0  0  0
  3 16  2  0  0  0  0
  4 13  1  0  0  0  0
  4 14  1  0  0  0  0
  4 17  2  0  0  0  0
  5  7  1  0  0  0  0
  5  9  1  0  0  0  0
  6  8  1  0  0  0  0
  6  9  1  0  0  0  0
  7 10  1  0  0  0  0
  8 10  1  0  0  0  0
  9 11  1  0  0  0  0
 10 12  1  0  0  0  0
 12 14  1  0  0  0  0
  1 18  1  0  0  0  0
  5 19  1  0  0  0  0
  5 20  1  0  0  0  0
  6 21  1  0  0  0  0
  6 22  1  0  0  0  0
  7 23  1  0  0  0  0
  7 24  1  0  0  0  0
  8 25  1  0  0  0  0
  8 26  1  0  0  0  0
  9 27  1  0  0  0  0
 10 28  1  0  0  0  0
 11 29  1  0  0  0  0
 11 30  1  0  0  0  0
 11 31  1  0  0  0  0
 12 32  1  0  0  0  0
 12 33  1  0  0  0  0
 13 34  1  0  0  0  0
 15 35  1  0  0  0  0
 15 36  1  0  0  0  0
M  END
> <Catalog ID>
Z1104870654

> <PlateID>
1337959-R-11

> <Well>
D08

> <MW (desalted)>
237.298

> <CLogP>
1.842

> <HBD>
2

> <TPSA>
75.430

> <RotBonds>
2

> <ROCS_ShapeQuery>
x0446_0A_x1080_0A_x0929_0A_x0812_0A_x0719_0A_x1140_0A_x0528_0A_x0310_0A

> <ROCS_TanimotoCombo>
0.312 

> <ROCS_ShapeTanimoto>
0.197 

> <ROCS_ColorTanimoto>
0.115 

> <ROCS_RefTversky>
0.183 

> <ROCS_RefColorTversky>
0.128 

> <ROCS_RefTverskyCombo>
0.311 

> <ROCS_FitTversky>
1.628 

> <ROCS_FitColorTversky>
0.537 

> <ROCS_FitTverskyCombo>
2.166 

> <ROCS_ColorScore>
-4.574

> <ROCS_Overlap>
2156.719

> <ROCS_Rank>
262                 

$$$$
untitled-dbase-358_22
  -OEChem-02082415003D

 32 33  0     1  0  0  0  0  0999 V2000
    8.0735   12.9768   23.4584 C   0  0  0  0  0  0  0  0  0  0  0  0
    9.6357   10.6781   23.6995 C   0  0  0  0  0  0  0  0  0  0  0  0
    7.6867   11.9591   24.3303 C   0  0  0  0  0  0  0  0  0  0  0  0
    8.4678   10.8097   24.4509 C   0  0  0  0  0  0  0  0  0  0  0  0
   10.0224   11.6959   22.8276 C   0  0  0  0  0  0  0  0  0  0  0  0
    9.2413   12.8452   22.7070 C   0  0  0  0  0  0  0  0  0  0  0  0
   13.4359   14.7152   22.8019 C   0  0  0  0  0  0  0  0  0  0  0  0
   12.2269   13.8024   22.6526 C   0  0  0  0  0  0  0  0  0  0  0  0
   11.6494   16.0561   21.9736 C   0  0  0  0  0  0  0  0  0  0  0  0
   13.1418   15.7985   21.7752 C   0  0  1  0  0  0  0  0  0  0  0  0
    6.4385   12.1029   25.1337 C   0  0  0  0  0  0  0  0  0  0  0  0
   11.0926   14.7406   22.4148 N   0  0  1  0  0  0  0  0  0  0  0  0
   13.9489   16.9898   21.9677 N   0  0  0  0  0  0  0  0  0  0  0  0
   10.1368   13.5163   20.3573 O   0  0  0  0  0  0  0  0  0  0  0  0
    8.6771   15.1409   21.6134 O   0  0  0  0  0  0  0  0  0  0  0  0
    8.1054    9.8270   25.2872 F   0  0  0  0  0  0  0  0  0  0  0  0
   11.1472   11.5582   22.1120 F   0  0  0  0  0  0  0  0  0  0  0  0
    9.7270   14.1382   21.6035 S   0  0  0  0  0  0  0  0  0  0  0  0
    7.4638   13.8725   23.3661 H   0  0  0  0  0  0  0  0  0  0  0  0
   10.2442    9.7836   23.7945 H   0  0  0  0  0  0  0  0  0  0  0  0
   13.4685   15.1295   23.8178 H   0  0  0  0  0  0  0  0  0  0  0  0
   14.3783   14.1913   22.6151 H   0  0  0  0  0  0  0  0  0  0  0  0
   12.3530   13.1374   21.7910 H   0  0  0  0  0  0  0  0  0  0  0  0
   12.0542   13.2080   23.5534 H   0  0  0  0  0  0  0  0  0  0  0  0
   11.4536   16.7838   22.7698 H   0  0  0  0  0  0  0  0  0  0  0  0
   11.1820   16.4165   21.0521 H   0  0  0  0  0  0  0  0  0  0  0  0
   13.3162   15.4055   20.7698 H   0  0  0  0  0  0  0  0  0  0  0  0
    5.5811   11.6964   24.5834 H   0  0  0  0  0  0  0  0  0  0  0  0
    6.5186   11.5746   26.0925 H   0  0  0  0  0  0  0  0  0  0  0  0
    6.2343   13.1560   25.3675 H   0  0  0  0  0  0  0  0  0  0  0  0
   13.3443   17.7557   22.1617 H   0  0  0  0  0  0  0  0  0  0  0  0
   14.5662   16.8350   22.7324 H   0  0  0  0  0  0  0  0  0  0  0  0
  1  3  2  0  0  0  0
  1  6  1  0  0  0  0
  2  4  2  0  0  0  0
  2  5  1  0  0  0  0
  3  4  1  0  0  0  0
  3 11  1  0  0  0  0
  4 16  1  0  0  0  0
  5  6  2  0  0  0  0
  5 17  1  0  0  0  0
  6 18  1  0  0  0  0
  7  8  1  0  0  0  0
  7 10  1  0  0  0  0
  8 12  1  0  0  0  0
  9 10  1  0  0  0  0
  9 12  1  0  0  0  0
 10 13  1  6  0  0  0
 12 18  1  0  0  0  0
 14 18  2  0  0  0  0
 15 18  2  0  0  0  0
  1 19  1  0  0  0  0
  2 20  1  0  0  0  0
  7 21  1  0  0  0  0
  7 22  1  0  0  0  0
  8 23  1  0  0  0  0
  8 24  1  0  0  0  0
  9 25  1  0  0  0  0
  9 26  1  0  0  0  0
 10 27  1  0  0  0  0
 11 28  1  0  0  0  0
 11 29  1  0  0  0  0
 11 30  1  0  0  0  0
 13 31  1  0  0  0  0
 13 32  1  0  0  0  0
M  END
> <Catalog ID>
Z2242930975

> <PlateID>
1337959-R-08

> <Well>
G07

> <MW (desalted)>
276.303

> <CLogP>
1.604

> <HBD>
1

> <TPSA>
63.400

> <RotBonds>
1

> <ROCS_ShapeQuery>
x0446_0A_x1080_0A_x0929_0A_x0812_0A_x0719_0A_x1140_0A_x0528_0A_x0310_0A

> <ROCS_TanimotoCombo>
0.312 

> <ROCS_ShapeTanimoto>
0.220 

> <ROCS_ColorTanimoto>
0.092 

> <ROCS_RefTversky>
0.201 

> <ROCS_RefColorTversky>
0.102 

> <ROCS_RefTverskyCombo>
0.303 

> <ROCS_FitTversky>
1.751 

> <ROCS_FitColorTversky>
0.479 

> <ROCS_FitTverskyCombo>
2.230 

> <ROCS_ColorScore>
-3.626

> <ROCS_Overlap>
2376.622

> <ROCS_Rank>
263                 

$$$$
untitled-dbase-274_1
  -OEChem-02082415003D

 29 31  0     1  0  0  0  0  0999 V2000
    5.8625   12.4944   23.7679 C   0  0  0  0  0  0  0  0  0  0  0  0
    6.2685   12.4744   25.2360 C   0  0  0  0  0  0  0  0  0  0  0  0
    7.0040   13.0000   22.8915 C   0  0  0  0  0  0  0  0  0  0  0  0
    7.4949   11.5940   25.4539 C   0  0  0  0  0  0  0  0  0  0  0  0
    8.3119   10.8339   22.4350 C   0  0  0  0  0  0  0  0  0  0  0  0
    9.6393   10.7576   24.4031 C   0  0  0  0  0  0  0  0  0  0  0  0
    9.5064   13.0800   22.6181 C   0  0  0  0  0  0  0  0  0  0  0  0
    9.4022   13.2297   24.9513 C   0  0  0  0  0  0  0  0  0  0  0  0
    8.3174   12.2228   23.0855 C   0  0  1  0  0  0  0  0  0  0  0  0
    8.6812   11.9525   24.5407 C   0  0  2  0  0  0  0  0  0  0  0  0
    9.0489    9.9398   23.3400 N   0  0  0  0  0  0  0  0  0  0  0  0
   10.0180   13.7674   23.7708 O   0  0  0  0  0  0  0  0  0  0  0  0
    5.5811   11.4834   23.4522 H   0  0  0  0  0  0  0  0  0  0  0  0
    4.9750   13.1234   23.6358 H   0  0  0  0  0  0  0  0  0  0  0  0
    6.4898   13.4955   25.5680 H   0  0  0  0  0  0  0  0  0  0  0  0
    5.4318   12.1193   25.8488 H   0  0  0  0  0  0  0  0  0  0  0  0
    6.6715   12.9362   21.8477 H   0  0  0  0  0  0  0  0  0  0  0  0
    7.1713   14.0659   23.0889 H   0  0  0  0  0  0  0  0  0  0  0  0
    7.7934   11.6917   26.5068 H   0  0  0  0  0  0  0  0  0  0  0  0
    7.2207   10.5410   25.3129 H   0  0  0  0  0  0  0  0  0  0  0  0
    7.2884   10.4548   22.2581 H   0  0  0  0  0  0  0  0  0  0  0  0
    8.8066   10.8252   21.4457 H   0  0  0  0  0  0  0  0  0  0  0  0
   10.6435   11.0704   24.1349 H   0  0  0  0  0  0  0  0  0  0  0  0
    9.6937   10.1714   25.3150 H   0  0  0  0  0  0  0  0  0  0  0  0
   10.3037   12.4795   22.1724 H   0  0  0  0  0  0  0  0  0  0  0  0
    9.2079   13.8420   21.8937 H   0  0  0  0  0  0  0  0  0  0  0  0
    8.7357   13.9889   25.3773 H   0  0  0  0  0  0  0  0  0  0  0  0
   10.2026   13.0597   25.6822 H   0  0  0  0  0  0  0  0  0  0  0  0
    8.3903    9.2828   23.7590 H   0  0  0  0  0  0  0  0  0  0  0  0
  1  2  1  0  0  0  0
  1  3  1  0  0  0  0
  2  4  1  0  0  0  0
  3  9  1  0  0  0  0
  4 10  1  0  0  0  0
  5  9  1  0  0  0  0
  5 11  1  0  0  0  0
  6 10  1  0  0  0  0
  6 11  1  0  0  0  0
  7  9  1  0  0  0  0
  7 12  1  0  0  0  0
  8 10  1  0  0  0  0
  8 12  1  0  0  0  0
  9 10  1  0  0  0  0
  1 13  1  0  0  0  0
  1 14  1  0  0  0  0
  2 15  1  0  0  0  0
  2 16  1  0  0  0  0
  3 17  1  0  0  0  0
  3 18  1  0  0  0  0
  4 19  1  0  0  0  0
  4 20  1  0  0  0  0
  5 21  1  0  0  0  0
  5 22  1  0  0  0  0
  6 23  1  0  0  0  0
  6 24  1  0  0  0  0
  7 25  1  0  0  0  0
  7 26  1  0  0  0  0
  8 27  1  0  0  0  0
  8 28  1  0  0  0  0
 11 29  1  0  0  0  0
M  END
> <Catalog ID>
Z2583036386

> <PlateID>
1337959-R-06

> <Well>
F10

> <MW (desalted)>
167.248

> <CLogP>
1.116

> <HBD>
1

> <TPSA>
21.260

> <RotBonds>
0

> <ROCS_ShapeQuery>
x0446_0A_x1080_0A_x0929_0A_x0812_0A_x0719_0A_x1140_0A_x0528_0A_x0310_0A

> <ROCS_TanimotoCombo>
0.312 

> <ROCS_ShapeTanimoto>
0.180 

> <ROCS_ColorTanimoto>
0.132 

> <ROCS_RefTversky>
0.167 

> <ROCS_RefColorTversky>
0.142 

> <ROCS_RefTverskyCombo>
0.309 

> <ROCS_FitTversky>
1.739 

> <ROCS_FitColorTversky>
0.656 

> <ROCS_FitTverskyCombo>
2.395 

> <ROCS_ColorScore>
-5.057

> <ROCS_Overlap>
1967.176

> <ROCS_Rank>
264                 

$$$$
untitled-dbase-628_21
  -OEChem-02082415003D

 30 31  0     0  0  0  0  0  0999 V2000
    4.6779   14.1094   21.4586 C   0  0  0  0  0  0  0  0  0  0  0  0
    9.6004   12.4904   23.2646 C   0  0  0  0  0  0  0  0  0  0  0  0
    7.3528   12.0127   24.0110 C   0  0  0  0  0  0  0  0  0  0  0  0
    9.9535   11.1574   23.4747 C   0  0  0  0  0  0  0  0  0  0  0  0
    7.7059   10.6797   24.2210 C   0  0  0  0  0  0  0  0  0  0  0  0
    8.3000   12.9180   23.5328 C   0  0  0  0  0  0  0  0  0  0  0  0
    9.0063   10.2521   23.9529 C   0  0  0  0  0  0  0  0  0  0  0  0
    8.0879   14.8102   21.8918 C   0  0  0  0  0  0  0  0  0  0  0  0
    8.1866   15.3450   24.3920 C   0  0  0  0  0  0  0  0  0  0  0  0
    6.7840   14.9272   24.0901 C   0  0  0  0  0  0  0  0  0  0  0  0
    7.9263   14.3274   23.3115 C   0  0  0  0  0  0  0  0  0  0  0  0
    6.7169   15.5735   19.9466 C   0  0  0  0  0  0  0  0  0  0  0  0
    6.0178   13.5783   21.2151 C   0  0  0  0  0  0  0  0  0  0  0  0
    3.6128   14.5276   21.6518 N   0  0  0  0  0  0  0  0  0  0  0  0
    6.9847   14.6607   21.0505 N   0  0  0  0  0  0  0  0  0  0  0  0
    9.1630   15.3050   21.5430 O   0  0  0  0  0  0  0  0  0  0  0  0
    9.3455    8.9722   24.1553 F   0  0  0  0  0  0  0  0  0  0  0  0
   10.3458   13.1883   22.8922 H   0  0  0  0  0  0  0  0  0  0  0  0
    6.3370   12.3357   24.2232 H   0  0  0  0  0  0  0  0  0  0  0  0
   10.9663   10.8247   23.2674 H   0  0  0  0  0  0  0  0  0  0  0  0
    6.9692    9.9738   24.5934 H   0  0  0  0  0  0  0  0  0  0  0  0
    8.4813   16.3518   24.1187 H   0  0  0  0  0  0  0  0  0  0  0  0
    8.6259   14.9979   25.3201 H   0  0  0  0  0  0  0  0  0  0  0  0
    6.2794   14.2986   24.8153 H   0  0  0  0  0  0  0  0  0  0  0  0
    6.1346   15.6528   23.6139 H   0  0  0  0  0  0  0  0  0  0  0  0
    7.2125   15.2045   19.0365 H   0  0  0  0  0  0  0  0  0  0  0  0
    5.6320   15.6327   19.7748 H   0  0  0  0  0  0  0  0  0  0  0  0
    7.1038   16.5728   20.1951 H   0  0  0  0  0  0  0  0  0  0  0  0
    6.3541   12.9585   22.0512 H   0  0  0  0  0  0  0  0  0  0  0  0
    6.0420   12.9722   20.3050 H   0  0  0  0  0  0  0  0  0  0  0  0
  1 13  1  0  0  0  0
  1 14  3  0  0  0  0
  2  4  1  0  0  0  0
  2  6  2  0  0  0  0
  3  5  2  0  0  0  0
  3  6  1  0  0  0  0
  4  7  2  0  0  0  0
  5  7  1  0  0  0  0
  6 11  1  0  0  0  0
  7 17  1  0  0  0  0
  8 11  1  0  0  0  0
  8 15  1  0  0  0  0
  8 16  2  0  0  0  0
  9 10  1  0  0  0  0
  9 11  1  0  0  0  0
 10 11  1  0  0  0  0
 12 15  1  0  0  0  0
 13 15  1  0  0  0  0
  2 18  1  0  0  0  0
  3 19  1  0  0  0  0
  4 20  1  0  0  0  0
  5 21  1  0  0  0  0
  9 22  1  0  0  0  0
  9 23  1  0  0  0  0
 10 24  1  0  0  0  0
 10 25  1  0  0  0  0
 12 26  1  0  0  0  0
 12 27  1  0  0  0  0
 12 28  1  0  0  0  0
 13 29  1  0  0  0  0
 13 30  1  0  0  0  0
M  END
> <Catalog ID>
Z968637440

> <PlateID>
1337959-R-14

> <Well>
G07

> <MW (desalted)>
232.254

> <CLogP>
1.199

> <HBD>
0

> <TPSA>
44.100

> <RotBonds>
3

> <ROCS_ShapeQuery>
x0446_0A_x1080_0A_x0929_0A_x0812_0A_x0719_0A_x1140_0A_x0528_0A_x0310_0A

> <ROCS_TanimotoCombo>
0.312 

> <ROCS_ShapeTanimoto>
0.191 

> <ROCS_ColorTanimoto>
0.120 

> <ROCS_RefTversky>
0.178 

> <ROCS_RefColorTversky>
0.122 

> <ROCS_RefTverskyCombo>
0.300 

> <ROCS_FitTversky>
1.584 

> <ROCS_FitColorTversky>
0.918 

> <ROCS_FitTverskyCombo>
2.502 

> <ROCS_ColorScore>
-4.322

> <ROCS_Overlap>
2106.332

> <ROCS_Rank>
265                 

$$$$
untitled-dbase-153_1
  -OEChem-02082415003D

 25 26  0     0  0  0  0  0  0999 V2000
    9.1464   10.0548   23.2524 C   0  0  0  0  0  0  0  0  0  0  0  0
    8.2891    9.9676   24.3492 C   0  0  0  0  0  0  0  0  0  0  0  0
    9.5781   11.3024   22.8020 C   0  0  0  0  0  0  0  0  0  0  0  0
    7.8633   11.1280   24.9956 C   0  0  0  0  0  0  0  0  0  0  0  0
    9.1523   12.4628   23.4484 C   0  0  0  0  0  0  0  0  0  0  0  0
    8.2949   12.3756   24.5452 C   0  0  0  0  0  0  0  0  0  0  0  0
    8.7834   14.4253   21.9216 C   0  0  0  0  0  0  0  0  0  0  0  0
   11.1266   14.0119   22.8624 C   0  0  0  0  0  0  0  0  0  0  0  0
   10.3414   14.6982   23.9326 C   0  0  0  0  0  0  0  0  0  0  0  0
    9.6266   13.7873   22.9491 C   0  0  0  0  0  0  0  0  0  0  0  0
    7.8245   13.6029   25.2548 C   0  0  0  0  0  0  0  0  0  0  0  0
    9.0118   15.5056   21.3980 O   0  0  0  0  0  0  0  0  0  0  0  0
    7.7100   13.6493   21.6337 O   0  0  0  0  0  0  0  0  0  0  0  0
    9.4780    9.1512   22.7493 H   0  0  0  0  0  0  0  0  0  0  0  0
    7.9533    8.9961   24.6999 H   0  0  0  0  0  0  0  0  0  0  0  0
   10.2462   11.3589   21.9465 H   0  0  0  0  0  0  0  0  0  0  0  0
    7.1955   11.0490   25.8494 H   0  0  0  0  0  0  0  0  0  0  0  0
   11.5102   14.6205   22.0514 H   0  0  0  0  0  0  0  0  0  0  0  0
   11.7947   13.2130   23.1628 H   0  0  0  0  0  0  0  0  0  0  0  0
   10.4811   14.3608   24.9536 H   0  0  0  0  0  0  0  0  0  0  0  0
   10.1967   15.7687   23.8422 H   0  0  0  0  0  0  0  0  0  0  0  0
    8.5160   13.8616   26.0650 H   0  0  0  0  0  0  0  0  0  0  0  0
    7.7554   14.4556   24.5683 H   0  0  0  0  0  0  0  0  0  0  0  0
    6.8249   13.4549   25.6819 H   0  0  0  0  0  0  0  0  0  0  0  0
    7.1346   14.0580   20.9524 H   0  0  0  0  0  0  0  0  0  0  0  0
  1  2  2  0  0  0  0
  1  3  1  0  0  0  0
  2  4  1  0  0  0  0
  3  5  2  0  0  0  0
  4  6  2  0  0  0  0
  5  6  1  0  0  0  0
  5 10  1  0  0  0  0
  6 11  1  0  0  0  0
  7 10  1  0  0  0  0
  7 12  2  0  0  0  0
  7 13  1  0  0  0  0
  8  9  1  0  0  0  0
  8 10  1  0  0  0  0
  9 10  1  0  0  0  0
  1 14  1  0  0  0  0
  2 15  1  0  0  0  0
  3 16  1  0  0  0  0
  4 17  1  0  0  0  0
  8 18  1  0  0  0  0
  8 19  1  0  0  0  0
  9 20  1  0  0  0  0
  9 21  1  0  0  0  0
 11 22  1  0  0  0  0
 11 23  1  0  0  0  0
 11 24  1  0  0  0  0
 13 25  1  0  0  0  0
M  END
> <Catalog ID>
Z361883512

> <PlateID>
1337959-R-04

> <Well>
A06

> <MW (desalted)>
176.212

> <CLogP>
2.207

> <HBD>
1

> <TPSA>
37.300

> <RotBonds>
2

> <ROCS_ShapeQuery>
x0446_0A_x1080_0A_x0929_0A_x0812_0A_x0719_0A_x1140_0A_x0528_0A_x0310_0A

> <ROCS_TanimotoCombo>
0.312 

> <ROCS_ShapeTanimoto>
0.194 

> <ROCS_ColorTanimoto>
0.117 

> <ROCS_RefTversky>
0.179 

> <ROCS_RefColorTversky>
0.122 

> <ROCS_RefTverskyCombo>
0.300 

> <ROCS_FitTversky>
1.811 

> <ROCS_FitColorTversky>
0.763 

> <ROCS_FitTverskyCombo>
2.573 

> <ROCS_ColorScore>
-4.324

> <ROCS_Overlap>
2107.581

> <ROCS_Rank>
266                 

$$$$
untitled-dbase-88_3
  -OEChem-02082415003D

 22 23  0     0  0  0  0  0  0999 V2000
    7.9872   10.1532   24.5079 C   0  0  0  0  0  0  0  0  0  0  0  0
    9.1670    9.7867   23.8603 C   0  0  0  0  0  0  0  0  0  0  0  0
    7.6734   11.5021   24.6750 C   0  0  0  0  0  0  0  0  0  0  0  0
   10.0330   10.7689   23.3798 C   0  0  0  0  0  0  0  0  0  0  0  0
    8.5395   12.4843   24.1945 C   0  0  0  0  0  0  0  0  0  0  0  0
    9.7192   12.1177   23.5469 C   0  0  0  0  0  0  0  0  0  0  0  0
    8.2074   13.8892   24.3714 C   0  0  0  0  0  0  0  0  0  0  0  0
    8.0332   14.7864   23.4046 C   0  0  0  0  0  0  0  0  0  0  0  0
    8.1262   14.6177   21.9671 C   0  0  0  0  0  0  0  0  0  0  0  0
    7.7199   16.0579   24.0927 C   0  0  0  0  0  0  0  0  0  0  0  0
    8.0240   14.4320   25.6188 N   0  0  0  0  0  0  0  0  0  0  0  0
    7.7478   15.6618   25.5228 N   0  0  0  0  0  0  0  0  0  0  0  0
    7.4370   13.8527   21.3015 O   0  0  0  0  0  0  0  0  0  0  0  0
    9.0867   15.4284   21.4627 O   0  0  0  0  0  0  0  0  0  0  0  0
   10.5622   13.0502   23.0793 F   0  0  0  0  0  0  0  0  0  0  0  0
    7.3131    9.3881   24.8826 H   0  0  0  0  0  0  0  0  0  0  0  0
    9.4114    8.7365   23.7302 H   0  0  0  0  0  0  0  0  0  0  0  0
    6.7503   11.7714   25.1825 H   0  0  0  0  0  0  0  0  0  0  0  0
   10.9517   10.4839   22.8755 H   0  0  0  0  0  0  0  0  0  0  0  0
    8.4748   16.8271   23.9034 H   0  0  0  0  0  0  0  0  0  0  0  0
    6.7276   16.4352   23.8291 H   0  0  0  0  0  0  0  0  0  0  0  0
    9.1794   15.3418   20.4900 H   0  0  0  0  0  0  0  0  0  0  0  0
  1  2  2  0  0  0  0
  1  3  1  0  0  0  0
  2  4  1  0  0  0  0
  3  5  2  0  0  0  0
  4  6  2  0  0  0  0
  5  6  1  0  0  0  0
  5  7  1  0  0  0  0
  6 15  1  0  0  0  0
  7  8  2  0  0  0  0
  7 11  1  0  0  0  0
  8  9  1  0  0  0  0
  8 10  1  0  0  0  0
  9 13  2  0  0  0  0
  9 14  1  0  0  0  0
 10 12  1  0  0  0  0
 11 12  2  0  0  0  0
  1 16  1  0  0  0  0
  2 17  1  0  0  0  0
  3 18  1  0  0  0  0
  4 19  1  0  0  0  0
 10 20  1  0  0  0  0
 10 21  1  0  0  0  0
 14 22  1  0  0  0  0
M  END
> <Catalog ID>
Z362114732

> <PlateID>
1337959-R-02

> <Well>
F04

> <MW (desalted)>
206.173

> <CLogP>
1.996

> <HBD>
2

> <TPSA>
65.980

> <RotBonds>
2

> <ROCS_ShapeQuery>
x0446_0A_x1080_0A_x0929_0A_x0812_0A_x0719_0A_x1140_0A_x0528_0A_x0310_0A

> <ROCS_TanimotoCombo>
0.311 

> <ROCS_ShapeTanimoto>
0.201 

> <ROCS_ColorTanimoto>
0.111 

> <ROCS_RefTversky>
0.185 

> <ROCS_RefColorTversky>
0.118 

> <ROCS_RefTverskyCombo>
0.304 

> <ROCS_FitTversky>
1.715 

> <ROCS_FitColorTversky>
0.637 

> <ROCS_FitTverskyCombo>
2.351 

> <ROCS_ColorScore>
-4.214

> <ROCS_Overlap>
2183.626

> <ROCS_Rank>
267                 

$$$$
untitled-dbase-448_3
  -OEChem-02082415003D

 29 30  0     0  0  0  0  0  0999 V2000
    8.4992   10.7026   24.0657 C   0  0  0  0  0  0  0  0  0  0  0  0
    7.9331   11.9066   24.4846 C   0  0  0  0  0  0  0  0  0  0  0  0
    9.8260   11.8937   22.4353 C   0  0  0  0  0  0  0  0  0  0  0  0
    9.2599   13.0977   22.8542 C   0  0  0  0  0  0  0  0  0  0  0  0
    9.4458   10.6961   23.0411 C   0  0  0  0  0  0  0  0  0  0  0  0
    8.3134   13.1041   23.8788 C   0  0  0  0  0  0  0  0  0  0  0  0
    9.6593   14.3491   22.2176 C   0  0  0  0  0  0  0  0  0  0  0  0
   13.3462   14.6569   22.0174 C   0  0  0  0  0  0  0  0  0  0  0  0
   12.9307   16.0378   22.5076 C   0  0  0  0  0  0  0  0  0  0  0  0
   12.1529   13.7912   22.3972 C   0  0  0  0  0  0  0  0  0  0  0  0
   11.4453   16.0771   22.1836 C   0  0  0  0  0  0  0  0  0  0  0  0
   10.0510    9.4088   22.5933 C   0  0  0  0  0  0  0  0  0  0  0  0
   11.0057   14.6930   22.2975 N   0  0  0  0  0  0  0  0  0  0  0  0
    8.8245   15.0343   21.6274 O   0  0  0  0  0  0  0  0  0  0  0  0
    7.7627   14.2554   24.2889 F   0  0  0  0  0  0  0  0  0  0  0  0
    8.1960    9.7743   24.5425 H   0  0  0  0  0  0  0  0  0  0  0  0
    7.1956   11.9113   25.2817 H   0  0  0  0  0  0  0  0  0  0  0  0
   10.5643   11.8862   21.6363 H   0  0  0  0  0  0  0  0  0  0  0  0
   13.4795   14.6654   20.9291 H   0  0  0  0  0  0  0  0  0  0  0  0
   14.2762   14.3145   22.4795 H   0  0  0  0  0  0  0  0  0  0  0  0
   13.0865   16.1178   23.5899 H   0  0  0  0  0  0  0  0  0  0  0  0
   13.4888   16.8389   22.0153 H   0  0  0  0  0  0  0  0  0  0  0  0
   12.0327   12.9256   21.7396 H   0  0  0  0  0  0  0  0  0  0  0  0
   12.2197   13.4479   23.4354 H   0  0  0  0  0  0  0  0  0  0  0  0
   10.8739   16.7227   22.8570 H   0  0  0  0  0  0  0  0  0  0  0  0
   11.2668   16.3984   21.1515 H   0  0  0  0  0  0  0  0  0  0  0  0
    9.4549    8.9670   21.7853 H   0  0  0  0  0  0  0  0  0  0  0  0
   11.0760    9.5558   22.2289 H   0  0  0  0  0  0  0  0  0  0  0  0
   10.1079    8.6869   23.4184 H   0  0  0  0  0  0  0  0  0  0  0  0
  1  2  1  0  0  0  0
  1  5  2  0  0  0  0
  2  6  2  0  0  0  0
  3  4  2  0  0  0  0
  3  5  1  0  0  0  0
  4  6  1  0  0  0  0
  4  7  1  0  0  0  0
  5 12  1  0  0  0  0
  6 15  1  0  0  0  0
  7 13  1  0  0  0  0
  7 14  2  0  0  0  0
  8  9  1  0  0  0  0
  8 10  1  0  0  0  0
  9 11  1  0  0  0  0
 10 13  1  0  0  0  0
 11 13  1  0  0  0  0
  1 16  1  0  0  0  0
  2 17  1  0  0  0  0
  3 18  1  0  0  0  0
  8 19  1  0  0  0  0
  8 20  1  0  0  0  0
  9 21  1  0  0  0  0
  9 22  1  0  0  0  0
 10 23  1  0  0  0  0
 10 24  1  0  0  0  0
 11 25  1  0  0  0  0
 11 26  1  0  0  0  0
 12 27  1  0  0  0  0
 12 28  1  0  0  0  0
 12 29  1  0  0  0  0
M  END
> <Catalog ID>
Z992347082

> <PlateID>
1337959-R-10

> <Well>
F08

> <MW (desalted)>
207.244

> <CLogP>
1.959

> <HBD>
0

> <TPSA>
20.310

> <RotBonds>
1

> <ROCS_ShapeQuery>
x0446_0A_x1080_0A_x0929_0A_x0812_0A_x0719_0A_x1140_0A_x0528_0A_x0310_0A

> <ROCS_TanimotoCombo>
0.311 

> <ROCS_ShapeTanimoto>
0.213 

> <ROCS_ColorTanimoto>
0.098 

> <ROCS_RefTversky>
0.194 

> <ROCS_RefColorTversky>
0.102 

> <ROCS_RefTverskyCombo>
0.296 

> <ROCS_FitTversky>
1.828 

> <ROCS_FitColorTversky>
0.765 

> <ROCS_FitTverskyCombo>
2.593 

> <ROCS_ColorScore>
-3.603

> <ROCS_Overlap>
2291.257

> <ROCS_Rank>
268                 

$$$$
untitled-dbase-519_7
  -OEChem-02082415003D

 27 28  0     1  0  0  0  0  0999 V2000
    8.0311   10.5245   23.9785 C   0  0  0  0  0  0  0  0  0  0  0  0
    9.9765   12.6614   22.4277 C   0  0  0  0  0  0  0  0  0  0  0  0
    5.3099   11.6922   25.1421 C   0  0  0  0  0  0  0  0  0  0  0  0
    5.6359   12.4935   23.8882 C   0  0  0  0  0  0  0  0  0  0  0  0
    6.6365   11.4792   25.8733 C   0  0  0  0  0  0  0  0  0  0  0  0
    7.1065   12.8875   24.0092 C   0  0  0  0  0  0  0  0  0  0  0  0
   10.6057   11.7991   24.7172 C   0  0  0  0  0  0  0  0  0  0  0  0
   10.2568   11.4660   23.2835 C   0  0  1  0  0  0  0  0  0  0  0  0
    7.7440   11.7621   24.8358 C   0  0  0  0  0  0  0  0  0  0  0  0
    9.1604   10.5296   23.1934 N   0  0  0  0  0  0  0  0  0  0  0  0
    7.2419    9.5764   23.9274 O   0  0  0  0  0  0  0  0  0  0  0  0
    9.6874   12.6227   21.2410 O   0  0  0  0  0  0  0  0  0  0  0  0
   10.0892   13.8035   23.1489 O   0  0  0  0  0  0  0  0  0  0  0  0
    9.2171   12.3386   25.7557 S   0  0  0  0  0  0  0  0  0  0  0  0
    4.6186   12.2659   25.7834 H   0  0  0  0  0  0  0  0  0  0  0  0
    4.8102   10.7392   24.9051 H   0  0  0  0  0  0  0  0  0  0  0  0
    5.4750   11.8725   22.9835 H   0  0  0  0  0  0  0  0  0  0  0  0
    4.9784   13.3785   23.7829 H   0  0  0  0  0  0  0  0  0  0  0  0
    6.6814   12.1175   26.7603 H   0  0  0  0  0  0  0  0  0  0  0  0
    6.6749   10.4397   26.2175 H   0  0  0  0  0  0  0  0  0  0  0  0
    7.5561   13.0324   23.0188 H   0  0  0  0  0  0  0  0  0  0  0  0
    7.1492   13.8596   24.5232 H   0  0  0  0  0  0  0  0  0  0  0  0
   11.0692   10.9237   25.1986 H   0  0  0  0  0  0  0  0  0  0  0  0
   11.3669   12.5945   24.7615 H   0  0  0  0  0  0  0  0  0  0  0  0
   11.1509   10.9450   22.8016 H   0  0  0  0  0  0  0  0  0  0  0  0
    9.2294    9.7690   22.4933 H   0  0  0  0  0  0  0  0  0  0  0  0
    9.9107   14.5997   22.6044 H   0  0  0  0  0  0  0  0  0  0  0  0
  1  9  1  0  0  0  0
  1 10  1  0  0  0  0
  1 11  2  0  0  0  0
  2  8  1  1  0  0  0
  2 12  2  0  0  0  0
  2 13  1  0  0  0  0
  3  4  1  0  0  0  0
  3  5  1  0  0  0  0
  4  6  1  0  0  0  0
  5  9  1  0  0  0  0
  6  9  1  0  0  0  0
  7  8  1  0  0  0  0
  7 14  1  0  0  0  0
  8 10  1  0  0  0  0
  9 14  1  0  0  0  0
  3 15  1  0  0  0  0
  3 16  1  0  0  0  0
  4 17  1  0  0  0  0
  4 18  1  0  0  0  0
  5 19  1  0  0  0  0
  5 20  1  0  0  0  0
  6 21  1  0  0  0  0
  6 22  1  0  0  0  0
  7 23  1  0  0  0  0
  7 24  1  0  0  0  0
  8 25  1  0  0  0  0
 10 26  1  0  0  0  0
 13 27  1  0  0  0  0
M  END
> <Catalog ID>
Z235344685

> <PlateID>
1337959-R-12

> <Well>
C03

> <MW (desalted)>
215.269

> <CLogP>
0.986

> <HBD>
2

> <TPSA>
66.400

> <RotBonds>
1

> <ROCS_ShapeQuery>
x0446_0A_x1080_0A_x0929_0A_x0812_0A_x0719_0A_x1140_0A_x0528_0A_x0310_0A

> <ROCS_TanimotoCombo>
0.311 

> <ROCS_ShapeTanimoto>
0.186 

> <ROCS_ColorTanimoto>
0.125 

> <ROCS_RefTversky>
0.173 

> <ROCS_RefColorTversky>
0.138 

> <ROCS_RefTverskyCombo>
0.311 

> <ROCS_FitTversky>
1.718 

> <ROCS_FitColorTversky>
0.577 

> <ROCS_FitTverskyCombo>
2.295 

> <ROCS_ColorScore>
-4.916

> <ROCS_Overlap>
2038.172

> <ROCS_Rank>
269                 

$$$$
untitled-dbase-393_0
  -OEChem-02082415003D

 33 34  0     0  0  0  0  0  0999 V2000
   11.6971   14.7725   21.1245 C   0  0  0  0  0  0  0  0  0  0  0  0
   13.0305   15.1771   21.1862 C   0  0  0  0  0  0  0  0  0  0  0  0
   11.5802   14.7895   23.5376 C   0  0  0  0  0  0  0  0  0  0  0  0
   10.9719   14.5788   22.3002 C   0  0  0  0  0  0  0  0  0  0  0  0
   13.6389   15.3878   22.4236 C   0  0  0  0  0  0  0  0  0  0  0  0
   12.9137   15.1940   23.5993 C   0  0  0  0  0  0  0  0  0  0  0  0
    9.5664   14.1519   22.2351 C   0  0  0  0  0  0  0  0  0  0  0  0
   10.1827   11.8250   22.9256 C   0  0  0  0  0  0  0  0  0  0  0  0
    9.8784   10.8472   24.0426 C   0  0  0  0  0  0  0  0  0  0  0  0
    7.6351   11.4696   24.1216 C   0  0  0  0  0  0  0  0  0  0  0  0
    7.7705   12.5524   23.0217 C   0  0  0  0  0  0  0  0  0  0  0  0
    7.2219   12.0111   21.6883 C   0  0  0  0  0  0  0  0  0  0  0  0
    6.8879   13.7323   23.4874 C   0  0  0  0  0  0  0  0  0  0  0  0
    9.2108   12.9330   22.8488 N   0  0  0  0  0  0  0  0  0  0  0  0
    8.8123   14.9254   21.6485 O   0  0  0  0  0  0  0  0  0  0  0  0
    8.5378   10.3864   23.9201 O   0  0  0  0  0  0  0  0  0  0  0  0
   14.9190   15.7771   22.4828 F   0  0  0  0  0  0  0  0  0  0  0  0
   13.4979   15.3970   24.7874 F   0  0  0  0  0  0  0  0  0  0  0  0
   11.2326   14.6108   20.1552 H   0  0  0  0  0  0  0  0  0  0  0  0
   13.5956   15.3285   20.2711 H   0  0  0  0  0  0  0  0  0  0  0  0
   11.0245   14.6413   24.4599 H   0  0  0  0  0  0  0  0  0  0  0  0
   11.2015   12.2013   23.0520 H   0  0  0  0  0  0  0  0  0  0  0  0
   10.1391   11.3133   21.9566 H   0  0  0  0  0  0  0  0  0  0  0  0
   10.5383    9.9772   23.9646 H   0  0  0  0  0  0  0  0  0  0  0  0
   10.0394   11.2944   25.0307 H   0  0  0  0  0  0  0  0  0  0  0  0
    7.7989   11.8917   25.1221 H   0  0  0  0  0  0  0  0  0  0  0  0
    6.6228   11.0483   24.1206 H   0  0  0  0  0  0  0  0  0  0  0  0
    7.3211   12.7757   20.9258 H   0  0  0  0  0  0  0  0  0  0  0  0
    6.1766   11.7508   21.8129 H   0  0  0  0  0  0  0  0  0  0  0  0
    7.7875   11.1313   21.4016 H   0  0  0  0  0  0  0  0  0  0  0  0
    6.9439   14.5251   22.7518 H   0  0  0  0  0  0  0  0  0  0  0  0
    7.2521   14.0878   24.4433 H   0  0  0  0  0  0  0  0  0  0  0  0
    5.8653   13.3892   23.5850 H   0  0  0  0  0  0  0  0  0  0  0  0
  1  2  1  0  0  0  0
  1  4  2  0  0  0  0
  2  5  2  0  0  0  0
  3  4  1  0  0  0  0
  3  6  2  0  0  0  0
  4  7  1  0  0  0  0
  5  6  1  0  0  0  0
  5 17  1  0  0  0  0
  6 18  1  0  0  0  0
  7 14  1  0  0  0  0
  7 15  2  0  0  0  0
  8  9  1  0  0  0  0
  8 14  1  0  0  0  0
  9 16  1  0  0  0  0
 10 11  1  0  0  0  0
 10 16  1  0  0  0  0
 11 12  1  0  0  0  0
 11 13  1  0  0  0  0
 11 14  1  0  0  0  0
  1 19  1  0  0  0  0
  2 20  1  0  0  0  0
  3 21  1  0  0  0  0
  8 22  1  0  0  0  0
  8 23  1  0  0  0  0
  9 24  1  0  0  0  0
  9 25  1  0  0  0  0
 10 26  1  0  0  0  0
 10 27  1  0  0  0  0
 12 28  1  0  0  0  0
 12 29  1  0  0  0  0
 12 30  1  0  0  0  0
 13 31  1  0  0  0  0
 13 32  1  0  0  0  0
 13 33  1  0  0  0  0
M  END
> <Catalog ID>
Z785975382

> <PlateID>
1337959-R-09

> <Well>
D07

> <MW (desalted)>
255.261

> <CLogP>
2.128

> <HBD>
0

> <TPSA>
29.540

> <RotBonds>
1

> <ROCS_ShapeQuery>
x0446_0A_x1080_0A_x0929_0A_x0812_0A_x0719_0A_x1140_0A_x0528_0A_x0310_0A

> <ROCS_TanimotoCombo>
0.311 

> <ROCS_ShapeTanimoto>
0.195 

> <ROCS_ColorTanimoto>
0.116 

> <ROCS_RefTversky>
0.183 

> <ROCS_RefColorTversky>
0.123 

> <ROCS_RefTverskyCombo>
0.306 

> <ROCS_FitTversky>
1.559 

> <ROCS_FitColorTversky>
0.663 

> <ROCS_FitTverskyCombo>
2.221 

> <ROCS_ColorScore>
-4.379

> <ROCS_Overlap>
2154.784

> <ROCS_Rank>
270                 

$$$$
untitled-dbase-617_18
  -OEChem-02082415003D

 27 28  0     0  0  0  0  0  0999 V2000
    8.4301    9.7521   24.3409 C   0  0  0  0  0  0  0  0  0  0  0  0
    7.5020   10.7691   24.5642 C   0  0  0  0  0  0  0  0  0  0  0  0
    9.9048   11.3342   23.2642 C   0  0  0  0  0  0  0  0  0  0  0  0
    8.9766   12.3512   23.4874 C   0  0  0  0  0  0  0  0  0  0  0  0
    9.6315   10.0346   23.6910 C   0  0  0  0  0  0  0  0  0  0  0  0
    7.7752   12.0686   24.1374 C   0  0  0  0  0  0  0  0  0  0  0  0
    7.2509   16.3768   21.2176 C   0  0  0  0  0  0  0  0  0  0  0  0
    9.2686   13.7210   23.0365 C   0  0  0  0  0  0  0  0  0  0  0  0
    8.5476   15.6651   21.5774 C   0  0  0  0  0  0  0  0  0  0  0  0
    6.0009   14.3093   21.8333 C   0  0  0  0  0  0  0  0  0  0  0  0
    7.2802   13.5425   21.5865 C   0  0  0  0  0  0  0  0  0  0  0  0
    6.0866   15.6466   21.2872 N   0  0  0  0  0  0  0  0  0  0  0  0
    8.3981   14.3132   22.1153 N   0  0  0  0  0  0  0  0  0  0  0  0
    7.2719   17.5469   20.8296 O   0  0  0  0  0  0  0  0  0  0  0  0
   10.2699   14.2513   23.5159 O   0  0  0  0  0  0  0  0  0  0  0  0
   10.5233    9.0583   23.4771 F   0  0  0  0  0  0  0  0  0  0  0  0
    6.8761   13.0382   24.3577 F   0  0  0  0  0  0  0  0  0  0  0  0
    8.2181    8.7401   24.6730 H   0  0  0  0  0  0  0  0  0  0  0  0
    6.5673   10.5491   25.0714 H   0  0  0  0  0  0  0  0  0  0  0  0
   10.8442   11.5424   22.7588 H   0  0  0  0  0  0  0  0  0  0  0  0
    9.1483   15.5810   20.6645 H   0  0  0  0  0  0  0  0  0  0  0  0
    9.0862   16.2973   22.2896 H   0  0  0  0  0  0  0  0  0  0  0  0
    5.1497   13.8102   21.3602 H   0  0  0  0  0  0  0  0  0  0  0  0
    5.7927   14.4027   22.9047 H   0  0  0  0  0  0  0  0  0  0  0  0
    7.2273   12.5570   22.0600 H   0  0  0  0  0  0  0  0  0  0  0  0
    7.4536   13.3869   20.5150 H   0  0  0  0  0  0  0  0  0  0  0  0
    5.2353   16.0723   20.9336 H   0  0  0  0  0  0  0  0  0  0  0  0
  1  2  1  0  0  0  0
  1  5  2  0  0  0  0
  2  6  2  0  0  0  0
  3  4  2  0  0  0  0
  3  5  1  0  0  0  0
  4  6  1  0  0  0  0
  4  8  1  0  0  0  0
  5 16  1  0  0  0  0
  6 17  1  0  0  0  0
  7  9  1  0  0  0  0
  7 12  1  0  0  0  0
  7 14  2  0  0  0  0
  8 13  1  0  0  0  0
  8 15  2  0  0  0  0
  9 13  1  0  0  0  0
 10 11  1  0  0  0  0
 10 12  1  0  0  0  0
 11 13  1  0  0  0  0
  1 18  1  0  0  0  0
  2 19  1  0  0  0  0
  3 20  1  0  0  0  0
  9 21  1  0  0  0  0
  9 22  1  0  0  0  0
 10 23  1  0  0  0  0
 10 24  1  0  0  0  0
 11 25  1  0  0  0  0
 11 26  1  0  0  0  0
 12 27  1  0  0  0  0
M  END
> <Catalog ID>
Z82839488

> <PlateID>
1337959-R-14

> <Well>
E07

> <MW (desalted)>
240.206

> <CLogP>
0.949

> <HBD>
1

> <TPSA>
49.410

> <RotBonds>
1

> <ROCS_ShapeQuery>
x0446_0A_x1080_0A_x0929_0A_x0812_0A_x0719_0A_x1140_0A_x0528_0A_x0310_0A

> <ROCS_TanimotoCombo>
0.311 

> <ROCS_ShapeTanimoto>
0.210 

> <ROCS_ColorTanimoto>
0.101 

> <ROCS_RefTversky>
0.194 

> <ROCS_RefColorTversky>
0.108 

> <ROCS_RefTverskyCombo>
0.302 

> <ROCS_FitTversky>
1.698 

> <ROCS_FitColorTversky>
0.584 

> <ROCS_FitTverskyCombo>
2.281 

> <ROCS_ColorScore>
-3.859

> <ROCS_Overlap>
2286.021

> <ROCS_Rank>
271                 

$$$$
untitled-dbase-102_5
  -OEChem-02082415003D

 31 32  0     0  0  0  0  0  0999 V2000
    9.6216   10.7042   23.5765 C   0  0  0  0  0  0  0  0  0  0  0  0
   10.0446   11.8601   22.9204 C   0  0  0  0  0  0  0  0  0  0  0  0
    8.3733   10.6724   24.1983 C   0  0  0  0  0  0  0  0  0  0  0  0
    7.9714   12.9525   23.5080 C   0  0  0  0  0  0  0  0  0  0  0  0
    9.2196   12.9843   22.8862 C   0  0  0  0  0  0  0  0  0  0  0  0
    7.5483   11.7966   24.1641 C   0  0  0  0  0  0  0  0  0  0  0  0
    9.6653   14.2013   22.1946 C   0  0  0  0  0  0  0  0  0  0  0  0
   12.9606   15.2354   23.4935 C   0  0  0  0  0  0  0  0  0  0  0  0
   12.5451   16.2498   21.3492 C   0  0  0  0  0  0  0  0  0  0  0  0
   12.0175   14.0784   23.1662 C   0  0  0  0  0  0  0  0  0  0  0  0
   11.6046   15.1122   20.9634 C   0  0  0  0  0  0  0  0  0  0  0  0
    6.2135   11.7627   24.8291 C   0  0  0  0  0  0  0  0  0  0  0  0
   13.5731   15.7869   22.2834 N   0  0  0  0  0  0  0  0  0  0  0  0
   11.0357   14.4686   22.1467 N   0  0  0  0  0  0  0  0  0  0  0  0
    8.7822   14.8986   21.6974 O   0  0  0  0  0  0  0  0  0  0  0  0
    5.9319   10.5692   25.4307 F   0  0  0  0  0  0  0  0  0  0  0  0
    6.0687   12.6999   25.8120 F   0  0  0  0  0  0  0  0  0  0  0  0
    5.1870   11.9845   23.9574 F   0  0  0  0  0  0  0  0  0  0  0  0
   10.2645    9.8292   23.6041 H   0  0  0  0  0  0  0  0  0  0  0  0
   11.0191   11.8737   22.4388 H   0  0  0  0  0  0  0  0  0  0  0  0
    8.0516    9.7672   24.7066 H   0  0  0  0  0  0  0  0  0  0  0  0
    7.3272   13.8286   23.4833 H   0  0  0  0  0  0  0  0  0  0  0  0
   12.4215   16.0219   24.0357 H   0  0  0  0  0  0  0  0  0  0  0  0
   13.7537   14.8743   24.1571 H   0  0  0  0  0  0  0  0  0  0  0  0
   13.0342   16.6327   20.4469 H   0  0  0  0  0  0  0  0  0  0  0  0
   11.9795   17.0818   21.7865 H   0  0  0  0  0  0  0  0  0  0  0  0
   12.5800   13.2294   22.7584 H   0  0  0  0  0  0  0  0  0  0  0  0
   11.5290   13.7358   24.0822 H   0  0  0  0  0  0  0  0  0  0  0  0
   10.8088   15.4896   20.3129 H   0  0  0  0  0  0  0  0  0  0  0  0
   12.1456   14.3385   20.4044 H   0  0  0  0  0  0  0  0  0  0  0  0
   14.1751   16.5694   22.5379 H   0  0  0  0  0  0  0  0  0  0  0  0
  1  2  2  0  0  0  0
  1  3  1  0  0  0  0
  2  5  1  0  0  0  0
  3  6  2  0  0  0  0
  4  5  2  0  0  0  0
  4  6  1  0  0  0  0
  5  7  1  0  0  0  0
  6 12  1  0  0  0  0
  7 14  1  0  0  0  0
  7 15  2  0  0  0  0
  8 10  1  0  0  0  0
  8 13  1  0  0  0  0
  9 11  1  0  0  0  0
  9 13  1  0  0  0  0
 10 14  1  0  0  0  0
 11 14  1  0  0  0  0
 12 16  1  0  0  0  0
 12 17  1  0  0  0  0
 12 18  1  0  0  0  0
  1 19  1  0  0  0  0
  2 20  1  0  0  0  0
  3 21  1  0  0  0  0
  4 22  1  0  0  0  0
  8 23  1  0  0  0  0
  8 24  1  0  0  0  0
  9 25  1  0  0  0  0
  9 26  1  0  0  0  0
 10 27  1  0  0  0  0
 10 28  1  0  0  0  0
 11 29  1  0  0  0  0
 11 30  1  0  0  0  0
 13 31  1  0  0  0  0
M  END
> <Catalog ID>
Z228586844

> <PlateID>
1337959-R-02

> <Well>
H07

> <MW (desalted)>
258.240

> <CLogP>
1.773

> <HBD>
1

> <TPSA>
32.340

> <RotBonds>
2

> <ROCS_ShapeQuery>
x0446_0A_x1080_0A_x0929_0A_x0812_0A_x0719_0A_x1140_0A_x0528_0A_x0310_0A

> <ROCS_TanimotoCombo>
0.311 

> <ROCS_ShapeTanimoto>
0.221 

> <ROCS_ColorTanimoto>
0.090 

> <ROCS_RefTversky>
0.202 

> <ROCS_RefColorTversky>
0.098 

> <ROCS_RefTverskyCombo>
0.300 

> <ROCS_FitTversky>
1.724 

> <ROCS_FitColorTversky>
0.527 

> <ROCS_FitTverskyCombo>
2.250 

> <ROCS_ColorScore>
-3.483

> <ROCS_Overlap>
2388.646

> <ROCS_Rank>
272                 

$$$$
untitled-dbase-48_0
  -OEChem-02082415003D

 24 25  0     0  0  0  0  0  0999 V2000
    8.5092   10.1961   24.2259 C   0  0  0  0  0  0  0  0  0  0  0  0
    9.7991   10.5172   23.8395 C   0  0  0  0  0  0  0  0  0  0  0  0
    7.5960   11.2378   24.4038 C   0  0  0  0  0  0  0  0  0  0  0  0
    7.9915   12.5620   24.1585 C   0  0  0  0  0  0  0  0  0  0  0  0
    9.3174   12.7626   23.7870 C   0  0  0  0  0  0  0  0  0  0  0  0
    6.1765   10.9373   24.8138 C   0  0  0  0  0  0  0  0  0  0  0  0
    5.5065   12.1637   25.4339 C   0  0  0  0  0  0  0  0  0  0  0  0
    5.7124   13.3934   24.5553 C   0  0  0  0  0  0  0  0  0  0  0  0
   11.1311   14.1769   23.1821 C   0  0  0  0  0  0  0  0  0  0  0  0
   10.2294   11.7771   23.6195 N   0  0  0  0  0  0  0  0  0  0  0  0
    7.1251   13.6287   24.3246 N   0  0  0  0  0  0  0  0  0  0  0  0
    9.7672   14.0390   23.5585 O   0  0  0  0  0  0  0  0  0  0  0  0
    8.2249    9.1622   24.3897 H   0  0  0  0  0  0  0  0  0  0  0  0
   10.5442    9.7424   23.6924 H   0  0  0  0  0  0  0  0  0  0  0  0
    5.6185   10.6180   23.9252 H   0  0  0  0  0  0  0  0  0  0  0  0
    6.1565   10.1152   25.5386 H   0  0  0  0  0  0  0  0  0  0  0  0
    4.4360   11.9722   25.5680 H   0  0  0  0  0  0  0  0  0  0  0  0
    5.9243   12.3539   26.4313 H   0  0  0  0  0  0  0  0  0  0  0  0
    5.2057   13.2575   23.5924 H   0  0  0  0  0  0  0  0  0  0  0  0
    5.2716   14.2743   25.0337 H   0  0  0  0  0  0  0  0  0  0  0  0
   11.3630   15.2339   23.0305 H   0  0  0  0  0  0  0  0  0  0  0  0
   11.3144   13.6170   22.2616 H   0  0  0  0  0  0  0  0  0  0  0  0
   11.7621   13.7787   23.9803 H   0  0  0  0  0  0  0  0  0  0  0  0
    7.4350   14.5588   24.0692 H   0  0  0  0  0  0  0  0  0  0  0  0
  1  2  2  0  0  0  0
  1  3  1  0  0  0  0
  2 10  1  0  0  0  0
  3  4  2  0  0  0  0
  3  6  1  0  0  0  0
  4  5  1  0  0  0  0
  4 11  1  0  0  0  0
  5 10  2  0  0  0  0
  5 12  1  0  0  0  0
  6  7  1  0  0  0  0
  7  8  1  0  0  0  0
  8 11  1  0  0  0  0
  9 12  1  0  0  0  0
  1 13  1  0  0  0  0
  2 14  1  0  0  0  0
  6 15  1  0  0  0  0
  6 16  1  0  0  0  0
  7 17  1  0  0  0  0
  7 18  1  0  0  0  0
  8 19  1  0  0  0  0
  8 20  1  0  0  0  0
  9 21  1  0  0  0  0
  9 22  1  0  0  0  0
  9 23  1  0  0  0  0
 11 24  1  0  0  0  0
M  END
> <Catalog ID>
Z1255504740

> <PlateID>
1337959-R-01

> <Well>
H02

> <MW (desalted)>
164.204

> <CLogP>
2.509

> <HBD>
1

> <TPSA>
34.150

> <RotBonds>
1

> <ROCS_ShapeQuery>
x0446_0A_x1080_0A_x0929_0A_x0812_0A_x0719_0A_x1140_0A_x0528_0A_x0310_0A

> <ROCS_TanimotoCombo>
0.311 

> <ROCS_ShapeTanimoto>
0.189 

> <ROCS_ColorTanimoto>
0.122 

> <ROCS_RefTversky>
0.174 

> <ROCS_RefColorTversky>
0.129 

> <ROCS_RefTverskyCombo>
0.303 

> <ROCS_FitTversky>
1.815 

> <ROCS_FitColorTversky>
0.693 

> <ROCS_FitTverskyCombo>
2.508 

> <ROCS_ColorScore>
-4.590

> <ROCS_Overlap>
2052.099

> <ROCS_Rank>
273                 

$$$$
untitled-dbase-611_22
  -OEChem-02082415003D

 35 36  0     1  0  0  0  0  0999 V2000
   12.6466   16.0938   22.0759 C   0  0  0  0  0  0  0  0  0  0  0  0
   13.0311   14.7943   21.7459 C   0  0  0  0  0  0  0  0  0  0  0  0
   11.3172   16.3674   22.3977 C   0  0  0  0  0  0  0  0  0  0  0  0
   12.0863   13.7682   21.7376 C   0  0  0  0  0  0  0  0  0  0  0  0
   10.3723   15.3413   22.3894 C   0  0  0  0  0  0  0  0  0  0  0  0
   10.7568   14.0417   22.0594 C   0  0  0  0  0  0  0  0  0  0  0  0
    8.9470    9.8183   23.6529 C   0  0  0  0  0  0  0  0  0  0  0  0
    7.6463   10.0888   24.4213 C   0  0  0  0  0  0  0  0  0  0  0  0
   10.0767   10.8051   23.9155 C   0  0  0  0  0  0  0  0  0  0  0  0
    7.3058   12.5367   24.4038 C   0  0  0  0  0  0  0  0  0  0  0  0
    8.7887   12.7849   24.6816 C   0  0  0  0  0  0  0  0  0  0  0  0
    5.4777   11.0495   23.9446 C   0  0  0  0  0  0  0  0  0  0  0  0
    6.9272   11.2299   23.8499 N   0  0  2  0  0  0  0  0  0  0  0  0
    9.6832   12.2084   23.6523 N   0  0  2  0  0  0  0  0  0  0  0  0
    8.2588   13.3440   21.8444 O   0  0  0  0  0  0  0  0  0  0  0  0
   10.0443   11.7019   21.1639 O   0  0  0  0  0  0  0  0  0  0  0  0
    9.5605   12.7433   22.0456 S   0  0  0  0  0  0  0  0  0  0  0  0
   13.3818   16.8934   22.0819 H   0  0  0  0  0  0  0  0  0  0  0  0
   14.0659   14.5811   21.4943 H   0  0  0  0  0  0  0  0  0  0  0  0
   11.0181   17.3794   22.6539 H   0  0  0  0  0  0  0  0  0  0  0  0
   12.3963   12.7595   21.4782 H   0  0  0  0  0  0  0  0  0  0  0  0
    9.3392   15.5660   22.6405 H   0  0  0  0  0  0  0  0  0  0  0  0
    9.2875    8.7935   23.8531 H   0  0  0  0  0  0  0  0  0  0  0  0
    8.7280    9.8407   22.5769 H   0  0  0  0  0  0  0  0  0  0  0  0
    7.0256    9.1938   24.4778 H   0  0  0  0  0  0  0  0  0  0  0  0
    7.9470   10.3425   25.4409 H   0  0  0  0  0  0  0  0  0  0  0  0
   10.4127   10.7038   24.9470 H   0  0  0  0  0  0  0  0  0  0  0  0
   10.9091   10.5643   23.2529 H   0  0  0  0  0  0  0  0  0  0  0  0
    6.7820   12.6531   25.3769 H   0  0  0  0  0  0  0  0  0  0  0  0
    6.9055   13.3554   23.7632 H   0  0  0  0  0  0  0  0  0  0  0  0
    8.9429   13.8882   24.7164 H   0  0  0  0  0  0  0  0  0  0  0  0
    9.0837   12.4450   25.7030 H   0  0  0  0  0  0  0  0  0  0  0  0
    4.9698   11.9219   23.5076 H   0  0  0  0  0  0  0  0  0  0  0  0
    5.1846   10.1421   23.3962 H   0  0  0  0  0  0  0  0  0  0  0  0
    5.1891   10.9486   25.0012 H   0  0  0  0  0  0  0  0  0  0  0  0
  1  2  2  0  0  0  0
  1  3  1  0  0  0  0
  2  4  1  0  0  0  0
  3  5  2  0  0  0  0
  4  6  2  0  0  0  0
  5  6  1  0  0  0  0
  6 17  1  0  0  0  0
  7  8  1  0  0  0  0
  7  9  1  0  0  0  0
  8 13  1  0  0  0  0
  9 14  1  0  0  0  0
 10 11  1  0  0  0  0
 10 13  1  0  0  0  0
 11 14  1  0  0  0  0
 12 13  1  0  0  0  0
 14 17  1  0  0  0  0
 15 17  2  0  0  0  0
 16 17  2  0  0  0  0
  1 18  1  0  0  0  0
  2 19  1  0  0  0  0
  3 20  1  0  0  0  0
  4 21  1  0  0  0  0
  5 22  1  0  0  0  0
  7 23  1  0  0  0  0
  7 24  1  0  0  0  0
  8 25  1  0  0  0  0
  8 26  1  0  0  0  0
  9 27  1  0  0  0  0
  9 28  1  0  0  0  0
 10 29  1  0  0  0  0
 10 30  1  0  0  0  0
 11 31  1  0  0  0  0
 11 32  1  0  0  0  0
 12 33  1  0  0  0  0
 12 34  1  0  0  0  0
 12 35  1  0  0  0  0
M  END
> <Catalog ID>
Z45547538

> <PlateID>
1337959-R-14

> <Well>
C06

> <MW (desalted)>
254.349

> <CLogP>
1.760

> <HBD>
0

> <TPSA>
40.620

> <RotBonds>
1

> <ROCS_ShapeQuery>
x0446_0A_x1080_0A_x0929_0A_x0812_0A_x0719_0A_x1140_0A_x0528_0A_x0310_0A

> <ROCS_TanimotoCombo>
0.311 

> <ROCS_ShapeTanimoto>
0.212 

> <ROCS_ColorTanimoto>
0.099 

> <ROCS_RefTversky>
0.194 

> <ROCS_RefColorTversky>
0.107 

> <ROCS_RefTverskyCombo>
0.301 

> <ROCS_FitTversky>
1.759 

> <ROCS_FitColorTversky>
0.575 

> <ROCS_FitTverskyCombo>
2.334 

> <ROCS_ColorScore>
-3.804

> <ROCS_Overlap>
2288.178

> <ROCS_Rank>
274                 

$$$$
untitled-dbase-211_2
  -OEChem-02082415003D

 25 26  0     0  0  0  0  0  0999 V2000
    8.3280   10.5279   24.4707 C   0  0  0  0  0  0  0  0  0  0  0  0
    7.7596   11.8012   24.4365 C   0  0  0  0  0  0  0  0  0  0  0  0
    9.5587   10.2967   23.8562 C   0  0  0  0  0  0  0  0  0  0  0  0
    9.6525   12.6122   23.1730 C   0  0  0  0  0  0  0  0  0  0  0  0
    8.4218   12.8433   23.7876 C   0  0  0  0  0  0  0  0  0  0  0  0
   10.2209   11.3389   23.2073 C   0  0  0  0  0  0  0  0  0  0  0  0
    9.4482   14.2941   21.3003 C   0  0  0  0  0  0  0  0  0  0  0  0
   12.2114   14.9986   22.3636 C   0  0  0  0  0  0  0  0  0  0  0  0
   11.0168   14.9403   23.3306 C   0  0  0  0  0  0  0  0  0  0  0  0
   11.8927   13.5435   21.9802 C   0  0  0  0  0  0  0  0  0  0  0  0
   10.4100   13.8057   22.4289 C   0  0  0  0  0  0  0  0  0  0  0  0
    9.0353   13.6019   20.3818 O   0  0  0  0  0  0  0  0  0  0  0  0
    9.1307   15.6004   21.4740 O   0  0  0  0  0  0  0  0  0  0  0  0
    7.8685   14.0638   23.7591 F   0  0  0  0  0  0  0  0  0  0  0  0
   11.4024   11.1082   22.6181 F   0  0  0  0  0  0  0  0  0  0  0  0
    7.8123    9.7164   24.9762 H   0  0  0  0  0  0  0  0  0  0  0  0
    6.8020   11.9818   24.9153 H   0  0  0  0  0  0  0  0  0  0  0  0
   10.0012    9.3055   23.8822 H   0  0  0  0  0  0  0  0  0  0  0  0
   12.0807   15.7115   21.5414 H   0  0  0  0  0  0  0  0  0  0  0  0
   13.1879   15.1650   22.8247 H   0  0  0  0  0  0  0  0  0  0  0  0
   11.2848   14.6177   24.3442 H   0  0  0  0  0  0  0  0  0  0  0  0
   10.4339   15.8633   23.4017 H   0  0  0  0  0  0  0  0  0  0  0  0
   12.0410   13.3005   20.9240 H   0  0  0  0  0  0  0  0  0  0  0  0
   12.4242   12.8006   22.5875 H   0  0  0  0  0  0  0  0  0  0  0  0
    8.5276   15.9272   20.7727 H   0  0  0  0  0  0  0  0  0  0  0  0
  1  2  2  0  0  0  0
  1  3  1  0  0  0  0
  2  5  1  0  0  0  0
  3  6  2  0  0  0  0
  4  5  2  0  0  0  0
  4  6  1  0  0  0  0
  4 11  1  0  0  0  0
  5 14  1  0  0  0  0
  6 15  1  0  0  0  0
  7 11  1  0  0  0  0
  7 12  2  0  0  0  0
  7 13  1  0  0  0  0
  8  9  1  0  0  0  0
  8 10  1  0  0  0  0
  9 11  1  0  0  0  0
 10 11  1  0  0  0  0
  1 16  1  0  0  0  0
  2 17  1  0  0  0  0
  3 18  1  0  0  0  0
  8 19  1  0  0  0  0
  8 20  1  0  0  0  0
  9 21  1  0  0  0  0
  9 22  1  0  0  0  0
 10 23  1  0  0  0  0
 10 24  1  0  0  0  0
 13 25  1  0  0  0  0
M  END
> <Catalog ID>
Z1509535407

> <PlateID>
1337959-R-05

> <Well>
B10

> <MW (desalted)>
212.193

> <CLogP>
2.603

> <HBD>
1

> <TPSA>
37.300

> <RotBonds>
2

> <ROCS_ShapeQuery>
x0446_0A_x1080_0A_x0929_0A_x0812_0A_x0719_0A_x1140_0A_x0528_0A_x0310_0A

> <ROCS_TanimotoCombo>
0.311 

> <ROCS_ShapeTanimoto>
0.212 

> <ROCS_ColorTanimoto>
0.099 

> <ROCS_RefTversky>
0.193 

> <ROCS_RefColorTversky>
0.107 

> <ROCS_RefTverskyCombo>
0.300 

> <ROCS_FitTversky>
1.820 

> <ROCS_FitColorTversky>
0.573 

> <ROCS_FitTverskyCombo>
2.393 

> <ROCS_ColorScore>
-3.795

> <ROCS_Overlap>
2281.458

> <ROCS_Rank>
275                 

$$$$
untitled-dbase-337_133
  -OEChem-02082415003D

 41 42  0     1  0  0  0  0  0999 V2000
    9.0221   13.0580   23.9695 C   0  0  0  0  0  0  0  0  0  0  0  0
   12.4862   13.9790   21.5055 C   0  0  0  0  0  0  0  0  0  0  0  0
   12.3723   16.2481   22.5669 C   0  0  0  0  0  0  0  0  0  0  0  0
    5.8461   11.4164   24.9778 C   0  0  0  0  0  0  0  0  0  0  0  0
   10.9896   13.8183   21.7849 C   0  0  0  0  0  0  0  0  0  0  0  0
   10.8794   16.0134   22.8118 C   0  0  0  0  0  0  0  0  0  0  0  0
    6.6481   13.6310   24.6309 C   0  0  0  0  0  0  0  0  0  0  0  0
   12.9096   15.4473   21.3742 C   0  0  0  0  0  0  0  0  0  0  0  0
    5.7149   12.8307   25.5172 C   0  0  1  0  0  0  0  0  0  0  0  0
    7.3232   11.3152   24.5820 C   0  0  1  0  0  0  0  0  0  0  0  0
   12.4636   16.0492   20.0393 C   0  0  0  0  0  0  0  0  0  0  0  0
    9.1665   14.3792   23.2559 C   0  0  0  0  0  0  0  0  0  0  0  0
    7.5048   10.3857   23.3872 C   0  0  0  0  0  0  0  0  0  0  0  0
    7.7281   12.7011   24.3178 N   0  0  0  0  0  0  0  0  0  0  0  0
   10.5870   14.5831   22.9723 N   0  0  0  0  0  0  0  0  0  0  0  0
   10.0200   12.3768   24.2110 O   0  0  0  0  0  0  0  0  0  0  0  0
    8.8568    9.9699   23.3439 O   0  0  0  0  0  0  0  0  0  0  0  0
    4.4421   13.2669   25.3932 F   0  0  0  0  0  0  0  0  0  0  0  0
   13.0595   13.4969   22.3143 H   0  0  0  0  0  0  0  0  0  0  0  0
   12.7433   13.4314   20.5821 H   0  0  0  0  0  0  0  0  0  0  0  0
   12.5478   17.3257   22.4038 H   0  0  0  0  0  0  0  0  0  0  0  0
   12.9347   15.9830   23.4773 H   0  0  0  0  0  0  0  0  0  0  0  0
    5.6323   10.6953   25.7758 H   0  0  0  0  0  0  0  0  0  0  0  0
    5.1697   11.2280   24.1390 H   0  0  0  0  0  0  0  0  0  0  0  0
   10.4393   14.1784   20.9070 H   0  0  0  0  0  0  0  0  0  0  0  0
   10.7502   12.7534   21.9048 H   0  0  0  0  0  0  0  0  0  0  0  0
   10.5579   16.5808   23.6952 H   0  0  0  0  0  0  0  0  0  0  0  0
   10.3272   16.4109   21.9514 H   0  0  0  0  0  0  0  0  0  0  0  0
    6.1681   13.9773   23.7149 H   0  0  0  0  0  0  0  0  0  0  0  0
    7.0859   14.4743   25.1703 H   0  0  0  0  0  0  0  0  0  0  0  0
   14.0148   15.4873   21.4073 H   0  0  0  0  0  0  0  0  0  0  0  0
    5.9919   12.8948   26.5881 H   0  0  0  0  0  0  0  0  0  0  0  0
    7.9137   10.9199   25.4261 H   0  0  0  0  0  0  0  0  0  0  0  0
   11.3770   16.0279   19.9683 H   0  0  0  0  0  0  0  0  0  0  0  0
   12.8853   15.4754   19.2153 H   0  0  0  0  0  0  0  0  0  0  0  0
   12.8048   17.0810   19.9661 H   0  0  0  0  0  0  0  0  0  0  0  0
    8.7880   15.1784   23.8978 H   0  0  0  0  0  0  0  0  0  0  0  0
    8.5928   14.3511   22.3262 H   0  0  0  0  0  0  0  0  0  0  0  0
    7.2592   10.9143   22.4670 H   0  0  0  0  0  0  0  0  0  0  0  0
    6.8613    9.5136   23.4957 H   0  0  0  0  0  0  0  0  0  0  0  0
    8.9503    9.3796   22.5766 H   0  0  0  0  0  0  0  0  0  0  0  0
  1 12  1  0  0  0  0
  1 14  1  0  0  0  0
  1 16  2  0  0  0  0
  2  5  1  0  0  0  0
  2  8  1  0  0  0  0
  3  6  1  0  0  0  0
  3  8  1  0  0  0  0
  4  9  1  0  0  0  0
  4 10  1  0  0  0  0
  5 15  1  0  0  0  0
  6 15  1  0  0  0  0
  7  9  1  0  0  0  0
  7 14  1  0  0  0  0
  8 11  1  0  0  0  0
  9 18  1  1  0  0  0
 10 13  1  1  0  0  0
 10 14  1  0  0  0  0
 12 15  1  0  0  0  0
 13 17  1  0  0  0  0
  2 19  1  0  0  0  0
  2 20  1  0  0  0  0
  3 21  1  0  0  0  0
  3 22  1  0  0  0  0
  4 23  1  0  0  0  0
  4 24  1  0  0  0  0
  5 25  1  0  0  0  0
  5 26  1  0  0  0  0
  6 27  1  0  0  0  0
  6 28  1  0  0  0  0
  7 29  1  0  0  0  0
  7 30  1  0  0  0  0
  8 31  1  0  0  0  0
  9 32  1  0  0  0  0
 10 33  1  0  0  0  0
 11 34  1  0  0  0  0
 11 35  1  0  0  0  0
 11 36  1  0  0  0  0
 12 37  1  0  0  0  0
 12 38  1  0  0  0  0
 13 39  1  0  0  0  0
 13 40  1  0  0  0  0
 17 41  1  0  0  0  0
M  END
> <Catalog ID>
Z2060917644

> <PlateID>
1337959-R-08

> <Well>
B10

> <MW (desalted)>
258.332

> <CLogP>
1.570

> <HBD>
1

> <TPSA>
43.780

> <RotBonds>
3

> <ROCS_ShapeQuery>
x0446_0A_x1080_0A_x0929_0A_x0812_0A_x0719_0A_x1140_0A_x0528_0A_x0310_0A

> <ROCS_TanimotoCombo>
0.311 

> <ROCS_ShapeTanimoto>
0.197 

> <ROCS_ColorTanimoto>
0.113 

> <ROCS_RefTversky>
0.184 

> <ROCS_RefColorTversky>
0.123 

> <ROCS_RefTverskyCombo>
0.307 

> <ROCS_FitTversky>
1.598 

> <ROCS_FitColorTversky>
0.582 

> <ROCS_FitTverskyCombo>
2.180 

> <ROCS_ColorScore>
-4.399

> <ROCS_Overlap>
2168.256

> <ROCS_Rank>
276                 

$$$$
untitled-dbase-487_14
  -OEChem-02082415003D

 30 31  0     0  0  0  0  0  0999 V2000
    6.0210   17.9384   23.2494 C   0  0  0  0  0  0  0  0  0  0  0  0
    4.4404   16.1130   23.1675 C   0  0  0  0  0  0  0  0  0  0  0  0
    7.0429   17.0709   22.8638 C   0  0  0  0  0  0  0  0  0  0  0  0
    5.4623   15.2455   22.7818 C   0  0  0  0  0  0  0  0  0  0  0  0
    7.6450   11.7565   23.9104 C   0  0  0  0  0  0  0  0  0  0  0  0
    8.2066   10.5149   24.0821 C   0  0  0  0  0  0  0  0  0  0  0  0
    4.7197   17.4595   23.4013 C   0  0  0  0  0  0  0  0  0  0  0  0
    6.7635   15.7244   22.6300 C   0  0  0  0  0  0  0  0  0  0  0  0
    8.7444   12.6325   23.8336 C   0  0  0  0  0  0  0  0  0  0  0  0
    3.6270   18.3867   23.8142 C   0  0  0  0  0  0  0  0  0  0  0  0
   10.5701    9.7010   24.2591 C   0  0  0  0  0  0  0  0  0  0  0  0
    9.9158   12.0009   23.9474 N   0  0  0  0  0  0  0  0  0  0  0  0
    9.5557   10.7149   24.0975 N   0  0  0  0  0  0  0  0  0  0  0  0
    8.6397   14.0553   23.6522 N   0  0  0  0  0  0  0  0  0  0  0  0
    9.0904   15.4375   21.5213 O   0  0  0  0  0  0  0  0  0  0  0  0
    7.4574   13.5359   21.3923 O   0  0  0  0  0  0  0  0  0  0  0  0
    8.0420   14.6389   22.1453 S   0  0  0  0  0  0  0  0  0  0  0  0
    6.2481   18.9858   23.4297 H   0  0  0  0  0  0  0  0  0  0  0  0
    3.4296   15.7309   23.2837 H   0  0  0  0  0  0  0  0  0  0  0  0
    8.0533   17.4542   22.7489 H   0  0  0  0  0  0  0  0  0  0  0  0
    5.2336   14.1982   22.6027 H   0  0  0  0  0  0  0  0  0  0  0  0
    6.5912   11.9863   23.8469 H   0  0  0  0  0  0  0  0  0  0  0  0
    7.7698    9.5318   24.1905 H   0  0  0  0  0  0  0  0  0  0  0  0
    3.1538   18.8361   22.9326 H   0  0  0  0  0  0  0  0  0  0  0  0
    2.8561   17.8614   24.3930 H   0  0  0  0  0  0  0  0  0  0  0  0
    4.0092   19.1934   24.4533 H   0  0  0  0  0  0  0  0  0  0  0  0
   10.8386    9.3311   23.2661 H   0  0  0  0  0  0  0  0  0  0  0  0
   11.4431   10.1351   24.7544 H   0  0  0  0  0  0  0  0  0  0  0  0
   10.1747    8.8895   24.8765 H   0  0  0  0  0  0  0  0  0  0  0  0
    9.4009   14.6008   24.0775 H   0  0  0  0  0  0  0  0  0  0  0  0
  1  3  1  0  0  0  0
  1  7  2  0  0  0  0
  2  4  2  0  0  0  0
  2  7  1  0  0  0  0
  3  8  2  0  0  0  0
  4  8  1  0  0  0  0
  5  6  2  0  0  0  0
  5  9  1  0  0  0  0
  6 13  1  0  0  0  0
  7 10  1  0  0  0  0
  8 17  1  0  0  0  0
  9 12  2  0  0  0  0
  9 14  1  0  0  0  0
 11 13  1  0  0  0  0
 12 13  1  0  0  0  0
 14 17  1  0  0  0  0
 15 17  2  0  0  0  0
 16 17  2  0  0  0  0
  1 18  1  0  0  0  0
  2 19  1  0  0  0  0
  3 20  1  0  0  0  0
  4 21  1  0  0  0  0
  5 22  1  0  0  0  0
  6 23  1  0  0  0  0
 10 24  1  0  0  0  0
 10 25  1  0  0  0  0
 10 26  1  0  0  0  0
 11 27  1  0  0  0  0
 11 28  1  0  0  0  0
 11 29  1  0  0  0  0
 14 30  1  0  0  0  0
M  END
> <Catalog ID>
Z123605534

> <PlateID>
1337959-R-11

> <Well>
F06

> <MW (desalted)>
251.305

> <CLogP>
1.503

> <HBD>
1

> <TPSA>
63.990

> <RotBonds>
2

> <ROCS_ShapeQuery>
x0446_0A_x1080_0A_x0929_0A_x0812_0A_x0719_0A_x1140_0A_x0528_0A_x0310_0A

> <ROCS_TanimotoCombo>
0.311 

> <ROCS_ShapeTanimoto>
0.167 

> <ROCS_ColorTanimoto>
0.143 

> <ROCS_RefTversky>
0.159 

> <ROCS_RefColorTversky>
0.152 

> <ROCS_RefTverskyCombo>
0.311 

> <ROCS_FitTversky>
1.418 

> <ROCS_FitColorTversky>
0.716 

> <ROCS_FitTverskyCombo>
2.134 

> <ROCS_ColorScore>
-5.413

> <ROCS_Overlap>
1881.320

> <ROCS_Rank>
277                 

$$$$
untitled-dbase-469_5
  -OEChem-02082415003D

 35 36  0     0  0  0  0  0  0999 V2000
    8.2743   12.2095   23.6094 C   0  0  0  0  0  0  0  0  0  0  0  0
    8.5267   11.0012   22.9372 C   0  0  0  0  0  0  0  0  0  0  0  0
    8.4053   11.8798   24.9324 C   0  0  0  0  0  0  0  0  0  0  0  0
   11.4591   15.4526   23.7564 C   0  0  0  0  0  0  0  0  0  0  0  0
   11.4759   14.7269   21.3483 C   0  0  0  0  0  0  0  0  0  0  0  0
   10.2441   14.5605   23.9972 C   0  0  0  0  0  0  0  0  0  0  0  0
   10.2609   13.8453   21.6250 C   0  0  0  0  0  0  0  0  0  0  0  0
   12.3378   14.9610   22.5972 C   0  0  0  0  0  0  0  0  0  0  0  0
    8.5250   10.7496   21.4863 C   0  0  0  0  0  0  0  0  0  0  0  0
    8.2833   12.6312   26.1886 C   0  0  0  0  0  0  0  0  0  0  0  0
   13.1389   13.7138   22.9787 C   0  0  0  0  0  0  0  0  0  0  0  0
    8.7938    9.9987   23.7789 N   0  0  0  0  0  0  0  0  0  0  0  0
    9.4576   14.4326   22.7362 N   0  0  0  0  0  0  0  0  0  0  0  0
    7.3065   13.5662   21.6104 O   0  0  0  0  0  0  0  0  0  0  0  0
    7.1757   14.5499   23.9262 O   0  0  0  0  0  0  0  0  0  0  0  0
    8.7153   10.5630   25.0465 O   0  0  0  0  0  0  0  0  0  0  0  0
    7.8807   13.7860   22.9199 S   0  0  0  0  0  0  0  0  0  0  0  0
   11.1191   16.4825   23.5579 H   0  0  0  0  0  0  0  0  0  0  0  0
   12.0606   15.5009   24.6811 H   0  0  0  0  0  0  0  0  0  0  0  0
   12.0901   14.2591   20.5590 H   0  0  0  0  0  0  0  0  0  0  0  0
   11.1370   15.6938   20.9408 H   0  0  0  0  0  0  0  0  0  0  0  0
   10.5881   13.5697   24.3140 H   0  0  0  0  0  0  0  0  0  0  0  0
    9.6097   14.9755   24.7890 H   0  0  0  0  0  0  0  0  0  0  0  0
    9.6382   13.7511   20.7279 H   0  0  0  0  0  0  0  0  0  0  0  0
   10.6056   12.8460   21.9127 H   0  0  0  0  0  0  0  0  0  0  0  0
   13.0668   15.7650   22.3602 H   0  0  0  0  0  0  0  0  0  0  0  0
    9.5254   10.9132   21.0500 H   0  0  0  0  0  0  0  0  0  0  0  0
    8.2213    9.7159   21.2424 H   0  0  0  0  0  0  0  0  0  0  0  0
    7.8170   11.4065   20.9497 H   0  0  0  0  0  0  0  0  0  0  0  0
    7.2488   12.6064   26.5758 H   0  0  0  0  0  0  0  0  0  0  0  0
    8.9417   12.2328   26.9831 H   0  0  0  0  0  0  0  0  0  0  0  0
    8.5658   13.6944   26.0722 H   0  0  0  0  0  0  0  0  0  0  0  0
   12.4596   12.8976   23.2197 H   0  0  0  0  0  0  0  0  0  0  0  0
   13.7626   13.9260   23.8458 H   0  0  0  0  0  0  0  0  0  0  0  0
   13.7748   13.4143   22.1470 H   0  0  0  0  0  0  0  0  0  0  0  0
  1  2  1  0  0  0  0
  1  3  2  0  0  0  0
  1 17  1  0  0  0  0
  2  9  1  0  0  0  0
  2 12  2  0  0  0  0
  3 10  1  0  0  0  0
  3 16  1  0  0  0  0
  4  6  1  0  0  0  0
  4  8  1  0  0  0  0
  5  7  1  0  0  0  0
  5  8  1  0  0  0  0
  6 13  1  0  0  0  0
  7 13  1  0  0  0  0
  8 11  1  0  0  0  0
 12 16  1  0  0  0  0
 13 17  1  0  0  0  0
 14 17  2  0  0  0  0
 15 17  2  0  0  0  0
  4 18  1  0  0  0  0
  4 19  1  0  0  0  0
  5 20  1  0  0  0  0
  5 21  1  0  0  0  0
  6 22  1  0  0  0  0
  6 23  1  0  0  0  0
  7 24  1  0  0  0  0
  7 25  1  0  0  0  0
  8 26  1  0  0  0  0
  9 27  1  0  0  0  0
  9 28  1  0  0  0  0
  9 29  1  0  0  0  0
 10 30  1  0  0  0  0
 10 31  1  0  0  0  0
 10 32  1  0  0  0  0
 11 33  1  0  0  0  0
 11 34  1  0  0  0  0
 11 35  1  0  0  0  0
M  END
> <Catalog ID>
Z45542221

> <PlateID>
1337959-R-11

> <Well>
C03

> <MW (desalted)>
258.337

> <CLogP>
1.842

> <HBD>
0

> <TPSA>
63.410

> <RotBonds>
1

> <ROCS_ShapeQuery>
x0446_0A_x1080_0A_x0929_0A_x0812_0A_x0719_0A_x1140_0A_x0528_0A_x0310_0A

> <ROCS_TanimotoCombo>
0.310 

> <ROCS_ShapeTanimoto>
0.199 

> <ROCS_ColorTanimoto>
0.111 

> <ROCS_RefTversky>
0.184 

> <ROCS_RefColorTversky>
0.119 

> <ROCS_RefTverskyCombo>
0.303 

> <ROCS_FitTversky>
1.667 

> <ROCS_FitColorTversky>
0.640 

> <ROCS_FitTverskyCombo>
2.307 

> <ROCS_ColorScore>
-4.229

> <ROCS_Overlap>
2175.932

> <ROCS_Rank>
278                 

$$$$
untitled-dbase-240_25
  -OEChem-02082415003D

 27 27  0     0  0  0  0  0  0999 V2000
    9.4424   10.3728   24.4010 C   0  0  0  0  0  0  0  0  0  0  0  0
    8.3236   10.3698   23.5681 C   0  0  0  0  0  0  0  0  0  0  0  0
   10.1814   11.5434   24.5721 C   0  0  0  0  0  0  0  0  0  0  0  0
    7.9438   11.5373   22.9061 C   0  0  0  0  0  0  0  0  0  0  0  0
    9.8016   12.7110   23.9101 C   0  0  0  0  0  0  0  0  0  0  0  0
    8.6828   12.7080   23.0771 C   0  0  0  0  0  0  0  0  0  0  0  0
    5.9804   14.0530   24.9612 C   0  0  0  0  0  0  0  0  0  0  0  0
   11.6230   14.0613   23.1926 C   0  0  0  0  0  0  0  0  0  0  0  0
    6.1968   15.0773   23.8997 C   0  0  0  0  0  0  0  0  0  0  0  0
    7.6114   15.1420   23.5057 N   0  0  0  0  0  0  0  0  0  0  0  0
    9.3673   14.7859   21.6546 O   0  0  0  0  0  0  0  0  0  0  0  0
    7.0683   13.8068   21.3714 O   0  0  0  0  0  0  0  0  0  0  0  0
   10.5380   13.8428   24.0920 O   0  0  0  0  0  0  0  0  0  0  0  0
    8.1877   14.1582   22.2334 S   0  0  0  0  0  0  0  0  0  0  0  0
    9.7379    9.4636   24.9162 H   0  0  0  0  0  0  0  0  0  0  0  0
    7.7483    9.4582   23.4353 H   0  0  0  0  0  0  0  0  0  0  0  0
   11.0517   11.5380   25.2228 H   0  0  0  0  0  0  0  0  0  0  0  0
    7.0703   11.5227   22.2598 H   0  0  0  0  0  0  0  0  0  0  0  0
    6.5836   14.3072   25.8452 H   0  0  0  0  0  0  0  0  0  0  0  0
    4.9159   14.0310   25.2377 H   0  0  0  0  0  0  0  0  0  0  0  0
    6.2816   13.0647   24.5837 H   0  0  0  0  0  0  0  0  0  0  0  0
   12.1260   14.9972   23.4479 H   0  0  0  0  0  0  0  0  0  0  0  0
   11.2449   14.1061   22.1681 H   0  0  0  0  0  0  0  0  0  0  0  0
   12.3308   13.2338   23.2818 H   0  0  0  0  0  0  0  0  0  0  0  0
    5.5906   14.8160   23.0198 H   0  0  0  0  0  0  0  0  0  0  0  0
    5.8849   16.0608   24.2809 H   0  0  0  0  0  0  0  0  0  0  0  0
    8.0944   16.0267   23.7041 H   0  0  0  0  0  0  0  0  0  0  0  0
  1  2  2  0  0  0  0
  1  3  1  0  0  0  0
  2  4  1  0  0  0  0
  3  5  2  0  0  0  0
  4  6  2  0  0  0  0
  5  6  1  0  0  0  0
  5 13  1  0  0  0  0
  6 14  1  0  0  0  0
  7  9  1  0  0  0  0
  8 13  1  0  0  0  0
  9 10  1  0  0  0  0
 10 14  1  0  0  0  0
 11 14  2  0  0  0  0
 12 14  2  0  0  0  0
  1 15  1  0  0  0  0
  2 16  1  0  0  0  0
  3 17  1  0  0  0  0
  4 18  1  0  0  0  0
  7 19  1  0  0  0  0
  7 20  1  0  0  0  0
  7 21  1  0  0  0  0
  8 22  1  0  0  0  0
  8 23  1  0  0  0  0
  8 24  1  0  0  0  0
  9 25  1  0  0  0  0
  9 26  1  0  0  0  0
 10 27  1  0  0  0  0
M  END
> <Catalog ID>
Z45528382

> <PlateID>
1337959-R-05

> <Well>
G07

> <MW (desalted)>
215.269

> <CLogP>
1.248

> <HBD>
1

> <TPSA>
55.400

> <RotBonds>
3

> <ROCS_ShapeQuery>
x0446_0A_x1080_0A_x0929_0A_x0812_0A_x0719_0A_x1140_0A_x0528_0A_x0310_0A

> <ROCS_TanimotoCombo>
0.310 

> <ROCS_ShapeTanimoto>
0.178 

> <ROCS_ColorTanimoto>
0.132 

> <ROCS_RefTversky>
0.166 

> <ROCS_RefColorTversky>
0.138 

> <ROCS_RefTverskyCombo>
0.305 

> <ROCS_FitTversky>
1.676 

> <ROCS_FitColorTversky>
0.744 

> <ROCS_FitTverskyCombo>
2.420 

> <ROCS_ColorScore>
-4.921

> <ROCS_Overlap>
1963.036

> <ROCS_Rank>
279                 

$$$$
untitled-dbase-286_0
  -OEChem-02082415003D

 22 23  0     1  0  0  0  0  0999 V2000
    8.3275   13.4199   22.2520 C   0  0  0  0  0  0  0  0  0  0  0  0
    9.3279   14.5462   22.2759 C   0  0  0  0  0  0  0  0  0  0  0  0
    9.6757   12.4675   23.9998 C   0  0  0  0  0  0  0  0  0  0  0  0
    8.7398   10.2989   24.0977 C   0  0  0  0  0  0  0  0  0  0  0  0
    7.8070   11.2268   23.3397 C   0  0  0  0  0  0  0  0  0  0  0  0
    9.6644   11.2414   24.8712 C   0  0  1  0  0  0  0  0  0  0  0  0
   11.3722   15.5071   23.2974 C   0  0  0  0  0  0  0  0  0  0  0  0
   10.5370   13.4211   24.0695 N   0  0  0  0  0  0  0  0  0  0  0  0
    8.6006   12.4180   23.1400 N   0  0  0  0  0  0  0  0  0  0  0  0
   10.3680   14.4626   23.1977 N   0  0  0  0  0  0  0  0  0  0  0  0
    7.3861   13.4895   21.4758 O   0  0  0  0  0  0  0  0  0  0  0  0
    9.1408   15.4552   21.4741 O   0  0  0  0  0  0  0  0  0  0  0  0
   10.9429   10.6752   25.0133 O   0  0  0  0  0  0  0  0  0  0  0  0
    8.1984    9.6236   24.7673 H   0  0  0  0  0  0  0  0  0  0  0  0
    9.3118    9.6760   23.3989 H   0  0  0  0  0  0  0  0  0  0  0  0
    7.4674   10.8173   22.3838 H   0  0  0  0  0  0  0  0  0  0  0  0
    6.9315   11.5014   23.9382 H   0  0  0  0  0  0  0  0  0  0  0  0
    9.2624   11.4951   25.8465 H   0  0  0  0  0  0  0  0  0  0  0  0
   11.0436   16.2642   24.0246 H   0  0  0  0  0  0  0  0  0  0  0  0
   12.3250   15.0691   23.6295 H   0  0  0  0  0  0  0  0  0  0  0  0
   11.5090   15.9792   22.3133 H   0  0  0  0  0  0  0  0  0  0  0  0
   10.8570    9.8907   25.5868 H   0  0  0  0  0  0  0  0  0  0  0  0
  1  2  1  0  0  0  0
  1  9  1  0  0  0  0
  1 11  2  0  0  0  0
  2 10  1  0  0  0  0
  2 12  2  0  0  0  0
  3  6  1  0  0  0  0
  3  8  2  0  0  0  0
  3  9  1  0  0  0  0
  4  5  1  0  0  0  0
  4  6  1  0  0  0  0
  5  9  1  0  0  0  0
  6 13  1  6  0  0  0
  7 10  1  0  0  0  0
  8 10  1  0  0  0  0
  4 14  1  0  0  0  0
  4 15  1  0  0  0  0
  5 16  1  0  0  0  0
  5 17  1  0  0  0  0
  6 18  1  0  0  0  0
  7 19  1  0  0  0  0
  7 20  1  0  0  0  0
  7 21  1  0  0  0  0
 13 22  1  0  0  0  0
M  END
> <Catalog ID>
Z4498499884

> <PlateID>
1337959-R-06

> <Well>
H11

> <MW (desalted)>
183.165

> <CLogP>
-2.110

> <HBD>
1

> <TPSA>
73.210

> <RotBonds>
0

> <ROCS_ShapeQuery>
x0446_0A_x1080_0A_x0929_0A_x0812_0A_x0719_0A_x1140_0A_x0528_0A_x0310_0A

> <ROCS_TanimotoCombo>
0.310 

> <ROCS_ShapeTanimoto>
0.165 

> <ROCS_ColorTanimoto>
0.146 

> <ROCS_RefTversky>
0.156 

> <ROCS_RefColorTversky>
0.157 

> <ROCS_RefTverskyCombo>
0.313 

> <ROCS_FitTversky>
1.544 

> <ROCS_FitColorTversky>
0.659 

> <ROCS_FitTverskyCombo>
2.203 

> <ROCS_ColorScore>
-5.618

> <ROCS_Overlap>
1837.870

> <ROCS_Rank>
280                 

$$$$
untitled-dbase-351_4
  -OEChem-02082415003D

 29 30  0     0  0  0  0  0  0999 V2000
    8.9018    9.9365   24.4020 C   0  0  0  0  0  0  0  0  0  0  0  0
    7.6954   10.6126   24.5911 C   0  0  0  0  0  0  0  0  0  0  0  0
    8.5844   12.5951   23.4920 C   0  0  0  0  0  0  0  0  0  0  0  0
    9.9239   10.6014   23.7485 C   0  0  0  0  0  0  0  0  0  0  0  0
    9.7675   11.9090   23.2818 C   0  0  0  0  0  0  0  0  0  0  0  0
    7.5388   11.9337   24.1423 C   0  0  0  0  0  0  0  0  0  0  0  0
   11.3170   10.1410   23.4687 C   0  0  0  0  0  0  0  0  0  0  0  0
   11.8302   11.2615   22.5387 C   0  0  0  0  0  0  0  0  0  0  0  0
    4.1809   14.3067   21.8598 C   0  0  0  0  0  0  0  0  0  0  0  0
    5.2217   13.2401   21.8195 C   0  0  0  0  0  0  0  0  0  0  0  0
   10.9385   12.4022   22.7092 N   0  0  0  0  0  0  0  0  0  0  0  0
    5.1376   12.3721   23.0028 N   0  0  0  0  0  0  0  0  0  0  0  0
    5.3605   12.1638   25.5608 O   0  0  0  0  0  0  0  0  0  0  0  0
    6.2956   14.1937   24.4077 O   0  0  0  0  0  0  0  0  0  0  0  0
    6.0240   12.7628   24.4105 S   0  0  0  0  0  0  0  0  0  0  0  0
    9.0323    8.9241   24.7681 H   0  0  0  0  0  0  0  0  0  0  0  0
    6.8796   10.1071   25.1021 H   0  0  0  0  0  0  0  0  0  0  0  0
    8.4725   13.6220   23.1578 H   0  0  0  0  0  0  0  0  0  0  0  0
   11.8962   10.1053   24.3968 H   0  0  0  0  0  0  0  0  0  0  0  0
   11.3358    9.1683   22.9693 H   0  0  0  0  0  0  0  0  0  0  0  0
   12.8662   11.5288   22.7701 H   0  0  0  0  0  0  0  0  0  0  0  0
   11.7939   10.9285   21.4940 H   0  0  0  0  0  0  0  0  0  0  0  0
    4.3199   14.9215   22.7613 H   0  0  0  0  0  0  0  0  0  0  0  0
    4.2716   14.9413   20.9659 H   0  0  0  0  0  0  0  0  0  0  0  0
    3.1830   13.8445   21.8816 H   0  0  0  0  0  0  0  0  0  0  0  0
    5.0760   12.6302   20.9158 H   0  0  0  0  0  0  0  0  0  0  0  0
    6.2160   13.7096   21.7886 H   0  0  0  0  0  0  0  0  0  0  0  0
   10.9364   13.2007   22.0901 H   0  0  0  0  0  0  0  0  0  0  0  0
    4.2746   11.8231   23.0985 H   0  0  0  0  0  0  0  0  0  0  0  0
  1  2  1  0  0  0  0
  1  4  2  0  0  0  0
  2  6  2  0  0  0  0
  3  5  2  0  0  0  0
  3  6  1  0  0  0  0
  4  5  1  0  0  0  0
  4  7  1  0  0  0  0
  5 11  1  0  0  0  0
  6 15  1  0  0  0  0
  7  8  1  0  0  0  0
  8 11  1  0  0  0  0
  9 10  1  0  0  0  0
 10 12  1  0  0  0  0
 12 15  1  0  0  0  0
 13 15  2  0  0  0  0
 14 15  2  0  0  0  0
  1 16  1  0  0  0  0
  2 17  1  0  0  0  0
  3 18  1  0  0  0  0
  7 19  1  0  0  0  0
  7 20  1  0  0  0  0
  8 21  1  0  0  0  0
  8 22  1  0  0  0  0
  9 23  1  0  0  0  0
  9 24  1  0  0  0  0
  9 25  1  0  0  0  0
 10 26  1  0  0  0  0
 10 27  1  0  0  0  0
 11 28  1  0  0  0  0
 12 29  1  0  0  0  0
M  END
> <Catalog ID>
Z1217169314

> <PlateID>
1337959-R-08

> <Well>
E10

> <MW (desalted)>
226.295

> <CLogP>
1.462

> <HBD>
2

> <TPSA>
58.200

> <RotBonds>
2

> <ROCS_ShapeQuery>
x0446_0A_x1080_0A_x0929_0A_x0812_0A_x0719_0A_x1140_0A_x0528_0A_x0310_0A

> <ROCS_TanimotoCombo>
0.310 

> <ROCS_ShapeTanimoto>
0.182 

> <ROCS_ColorTanimoto>
0.128 

> <ROCS_RefTversky>
0.170 

> <ROCS_RefColorTversky>
0.138 

> <ROCS_RefTverskyCombo>
0.308 

> <ROCS_FitTversky>
1.634 

> <ROCS_FitColorTversky>
0.647 

> <ROCS_FitTverskyCombo>
2.281 

> <ROCS_ColorScore>
-4.903

> <ROCS_Overlap>
2006.580

> <ROCS_Rank>
281                 

$$$$
untitled-dbase-527_47
  -OEChem-02082415003D

 31 32  0     1  0  0  0  0  0999 V2000
    8.6472   12.7634   23.5790 C   0  0  0  0  0  0  0  0  0  0  0  0
    8.0576   11.7019   24.2913 C   0  0  0  0  0  0  0  0  0  0  0  0
    9.6114   12.1644   22.8057 C   0  0  0  0  0  0  0  0  0  0  0  0
   12.1093   15.8355   23.0969 C   0  0  0  0  0  0  0  0  0  0  0  0
   12.6939   13.9553   21.6795 C   0  0  0  0  0  0  0  0  0  0  0  0
   13.1817   15.3188   22.1506 C   0  0  1  0  0  0  0  0  0  0  0  0
   10.8657   15.0269   22.7290 C   0  0  1  0  0  0  0  0  0  0  0  0
   10.3588    9.7814   22.5274 C   0  0  0  0  0  0  0  0  0  0  0  0
   10.5884   12.7432   21.8236 C   0  0  0  0  0  0  0  0  0  0  0  0
   10.0851   15.6721   21.5800 C   0  0  0  0  0  0  0  0  0  0  0  0
    8.6017   10.5182   23.9966 N   0  0  0  0  0  0  0  0  0  0  0  0
    9.5432   10.8323   23.0905 N   0  0  0  0  0  0  0  0  0  0  0  0
   11.4670   13.7198   22.4424 N   0  0  1  0  0  0  0  0  0  0  0  0
    8.7633   15.1633   21.5896 O   0  0  0  0  0  0  0  0  0  0  0  0
   13.2548   16.1495   21.0754 F   0  0  0  0  0  0  0  0  0  0  0  0
    8.4047   13.8152   23.6225 H   0  0  0  0  0  0  0  0  0  0  0  0
    7.2542   11.7417   25.0127 H   0  0  0  0  0  0  0  0  0  0  0  0
   12.3888   15.6261   24.1325 H   0  0  0  0  0  0  0  0  0  0  0  0
   11.9755   16.9124   22.9759 H   0  0  0  0  0  0  0  0  0  0  0  0
   12.4967   13.9527   20.5931 H   0  0  0  0  0  0  0  0  0  0  0  0
   13.4601   13.1861   21.8949 H   0  0  0  0  0  0  0  0  0  0  0  0
   14.1774   15.2817   22.6107 H   0  0  0  0  0  0  0  0  0  0  0  0
   10.2293   14.9743   23.6260 H   0  0  0  0  0  0  0  0  0  0  0  0
   11.2421    9.6640   23.1606 H   0  0  0  0  0  0  0  0  0  0  0  0
    9.7842    8.8515   22.4966 H   0  0  0  0  0  0  0  0  0  0  0  0
   10.6503   10.0561   21.5098 H   0  0  0  0  0  0  0  0  0  0  0  0
   11.2129   11.9546   21.3899 H   0  0  0  0  0  0  0  0  0  0  0  0
   10.0680   13.2377   20.9966 H   0  0  0  0  0  0  0  0  0  0  0  0
   10.5562   15.4306   20.6266 H   0  0  0  0  0  0  0  0  0  0  0  0
   10.0546   16.7544   21.7103 H   0  0  0  0  0  0  0  0  0  0  0  0
    8.2896   15.5866   20.8535 H   0  0  0  0  0  0  0  0  0  0  0  0
  1  2  1  0  0  0  0
  1  3  2  0  0  0  0
  2 11  2  0  0  0  0
  3  9  1  0  0  0  0
  3 12  1  0  0  0  0
  4  6  1  0  0  0  0
  4  7  1  0  0  0  0
  5  6  1  0  0  0  0
  5 13  1  0  0  0  0
  6 15  1  1  0  0  0
  7 10  1  1  0  0  0
  7 13  1  0  0  0  0
  8 12  1  0  0  0  0
  9 13  1  0  0  0  0
 10 14  1  0  0  0  0
 11 12  1  0  0  0  0
  1 16  1  0  0  0  0
  2 17  1  0  0  0  0
  4 18  1  0  0  0  0
  4 19  1  0  0  0  0
  5 20  1  0  0  0  0
  5 21  1  0  0  0  0
  6 22  1  0  0  0  0
  7 23  1  0  0  0  0
  8 24  1  0  0  0  0
  8 25  1  0  0  0  0
  8 26  1  0  0  0  0
  9 27  1  0  0  0  0
  9 28  1  0  0  0  0
 10 29  1  0  0  0  0
 10 30  1  0  0  0  0
 14 31  1  0  0  0  0
M  END
> <Catalog ID>
Z2054686403

> <PlateID>
1337959-R-12

> <Well>
D08

> <MW (desalted)>
213.252

> <CLogP>
0.083

> <HBD>
1

> <TPSA>
41.290

> <RotBonds>
3

> <ROCS_ShapeQuery>
x0446_0A_x1080_0A_x0929_0A_x0812_0A_x0719_0A_x1140_0A_x0528_0A_x0310_0A

> <ROCS_TanimotoCombo>
0.310 

> <ROCS_ShapeTanimoto>
0.197 

> <ROCS_ColorTanimoto>
0.113 

> <ROCS_RefTversky>
0.182 

> <ROCS_RefColorTversky>
0.123 

> <ROCS_RefTverskyCombo>
0.305 

> <ROCS_FitTversky>
1.721 

> <ROCS_FitColorTversky>
0.579 

> <ROCS_FitTverskyCombo>
2.299 

> <ROCS_ColorScore>
-4.375

> <ROCS_Overlap>
2151.018

> <ROCS_Rank>
282                 

$$$$
untitled-dbase-540_0
  -OEChem-02082415003D

 35 37  0     1  0  0  0  0  0999 V2000
    9.5385   10.4665   24.2013 C   0  0  0  0  0  0  0  0  0  0  0  0
    9.9051   11.1790   23.0596 C   0  0  0  0  0  0  0  0  0  0  0  0
    8.3976   10.8325   24.9155 C   0  0  0  0  0  0  0  0  0  0  0  0
    7.9900   12.6238   23.3465 C   0  0  0  0  0  0  0  0  0  0  0  0
    9.1309   12.2577   22.6322 C   0  0  0  0  0  0  0  0  0  0  0  0
    7.6234   11.9112   24.4881 C   0  0  0  0  0  0  0  0  0  0  0  0
    9.7970   14.4668   21.6344 C   0  0  0  0  0  0  0  0  0  0  0  0
    8.9053   12.6299   20.0922 C   0  0  0  0  0  0  0  0  0  0  0  0
   10.3423   12.3176   20.3575 C   0  0  0  0  0  0  0  0  0  0  0  0
   13.3405   14.7389   22.6923 C   0  0  0  0  0  0  0  0  0  0  0  0
   12.2387   13.8994   22.0576 C   0  0  0  0  0  0  0  0  0  0  0  0
   11.4964   16.1818   22.2361 C   0  0  0  0  0  0  0  0  0  0  0  0
   13.0200   16.1482   22.1926 C   0  0  1  0  0  0  0  0  0  0  0  0
    9.5205   13.0138   21.4202 C   0  0  0  0  0  0  0  0  0  0  0  0
   11.1027   14.8099   21.9443 N   0  0  0  0  0  0  0  0  0  0  0  0
   13.6321   17.1861   23.0016 N   0  0  0  0  0  0  0  0  0  0  0  0
    8.8673   15.2640   21.5485 O   0  0  0  0  0  0  0  0  0  0  0  0
    6.2159   12.3623   25.3698 Cl  0  0  0  0  0  0  0  0  0  0  0  0
   10.1414    9.6266   24.5340 H   0  0  0  0  0  0  0  0  0  0  0  0
   10.7958   10.8859   22.5100 H   0  0  0  0  0  0  0  0  0  0  0  0
    8.1242   10.2680   25.8032 H   0  0  0  0  0  0  0  0  0  0  0  0
    7.3892   13.4657   23.0095 H   0  0  0  0  0  0  0  0  0  0  0  0
    8.6848   13.4071   19.3692 H   0  0  0  0  0  0  0  0  0  0  0  0
    8.2065   11.8018   20.0702 H   0  0  0  0  0  0  0  0  0  0  0  0
   10.6105   11.2787   20.5141 H   0  0  0  0  0  0  0  0  0  0  0  0
   11.0890   12.8842   19.8130 H   0  0  0  0  0  0  0  0  0  0  0  0
   13.2668   14.6798   23.7857 H   0  0  0  0  0  0  0  0  0  0  0  0
   14.3401   14.4069   22.3960 H   0  0  0  0  0  0  0  0  0  0  0  0
   12.5140   13.5801   21.0465 H   0  0  0  0  0  0  0  0  0  0  0  0
   11.9786   13.0206   22.6541 H   0  0  0  0  0  0  0  0  0  0  0  0
   11.1072   16.4273   23.2315 H   0  0  0  0  0  0  0  0  0  0  0  0
   11.0584   16.8749   21.5108 H   0  0  0  0  0  0  0  0  0  0  0  0
   13.3594   16.2525   21.1586 H   0  0  0  0  0  0  0  0  0  0  0  0
   12.9121   17.7432   23.4031 H   0  0  0  0  0  0  0  0  0  0  0  0
   14.1733   16.7545   23.7163 H   0  0  0  0  0  0  0  0  0  0  0  0
  1  2  1  0  0  0  0
  1  3  2  0  0  0  0
  2  5  2  0  0  0  0
  3  6  1  0  0  0  0
  4  5  1  0  0  0  0
  4  6  2  0  0  0  0
  5 14  1  0  0  0  0
  6 18  1  0  0  0  0
  7 14  1  0  0  0  0
  7 15  1  0  0  0  0
  7 17  2  0  0  0  0
  8  9  1  0  0  0  0
  8 14  1  0  0  0  0
  9 14  1  0  0  0  0
 10 11  1  0  0  0  0
 10 13  1  0  0  0  0
 11 15  1  0  0  0  0
 12 13  1  0  0  0  0
 12 15  1  0  0  0  0
 13 16  1  1  0  0  0
  1 19  1  0  0  0  0
  2 20  1  0  0  0  0
  3 21  1  0  0  0  0
  4 22  1  0  0  0  0
  8 23  1  0  0  0  0
  8 24  1  0  0  0  0
  9 25  1  0  0  0  0
  9 26  1  0  0  0  0
 10 27  1  0  0  0  0
 10 28  1  0  0  0  0
 11 29  1  0  0  0  0
 11 30  1  0  0  0  0
 12 31  1  0  0  0  0
 12 32  1  0  0  0  0
 13 33  1  0  0  0  0
 16 34  1  0  0  0  0
 16 35  1  0  0  0  0
M  END
> <Catalog ID>
Z2242924759

> <PlateID>
1337959-R-12

> <Well>
G05

> <MW (desalted)>
264.751

> <CLogP>
1.781

> <HBD>
1

> <TPSA>
46.330

> <RotBonds>
2

> <ROCS_ShapeQuery>
x0446_0A_x1080_0A_x0929_0A_x0812_0A_x0719_0A_x1140_0A_x0528_0A_x0310_0A

> <ROCS_TanimotoCombo>
0.310 

> <ROCS_ShapeTanimoto>
0.201 

> <ROCS_ColorTanimoto>
0.110 

> <ROCS_RefTversky>
0.186 

> <ROCS_RefColorTversky>
0.117 

> <ROCS_RefTverskyCombo>
0.304 

> <ROCS_FitTversky>
1.602 

> <ROCS_FitColorTversky>
0.630 

> <ROCS_FitTverskyCombo>
2.232 

> <ROCS_ColorScore>
-4.165

> <ROCS_Overlap>
2201.054

> <ROCS_Rank>
283                 

$$$$
untitled-dbase-499_22
  -OEChem-02082415003D

 32 33  0     0  0  0  0  0  0999 V2000
    9.2135   10.3886   23.5842 C   0  0  0  0  0  0  0  0  0  0  0  0
    9.7277   11.3849   22.7544 C   0  0  0  0  0  0  0  0  0  0  0  0
    8.2337   12.9946   23.7615 C   0  0  0  0  0  0  0  0  0  0  0  0
    8.2094   10.6952   24.5027 C   0  0  0  0  0  0  0  0  0  0  0  0
    9.2378   12.6879   22.8431 C   0  0  0  0  0  0  0  0  0  0  0  0
    7.7195   11.9982   24.5913 C   0  0  0  0  0  0  0  0  0  0  0  0
   13.2566   14.4972   21.4473 C   0  0  0  0  0  0  0  0  0  0  0  0
   12.0786   16.5892   21.7590 C   0  0  0  0  0  0  0  0  0  0  0  0
   12.4926   13.8697   22.6114 C   0  0  0  0  0  0  0  0  0  0  0  0
   11.2944   15.9970   22.9283 C   0  0  0  0  0  0  0  0  0  0  0  0
   14.1540   16.5395   20.5333 C   0  0  0  0  0  0  0  0  0  0  0  0
   13.3963   15.9488   21.6355 N   0  0  0  0  0  0  0  0  0  0  0  0
   11.1649   14.5225   22.7729 N   0  0  0  0  0  0  0  0  0  0  0  0
   10.4439   13.3075   20.6217 O   0  0  0  0  0  0  0  0  0  0  0  0
    8.8877   14.9878   21.6716 O   0  0  0  0  0  0  0  0  0  0  0  0
    7.7236    9.7262   25.2917 F   0  0  0  0  0  0  0  0  0  0  0  0
    9.8886   13.9496   21.7938 S   0  0  0  0  0  0  0  0  0  0  0  0
    6.4816   12.3839   25.7237 Cl  0  0  0  0  0  0  0  0  0  0  0  0
    9.5935    9.3737   23.5142 H   0  0  0  0  0  0  0  0  0  0  0  0
   10.5098   11.1353   22.0424 H   0  0  0  0  0  0  0  0  0  0  0  0
    7.8549   14.0120   23.8278 H   0  0  0  0  0  0  0  0  0  0  0  0
   14.2428   14.0233   21.3537 H   0  0  0  0  0  0  0  0  0  0  0  0
   12.7040   14.2929   20.5226 H   0  0  0  0  0  0  0  0  0  0  0  0
   11.5006   16.4311   20.8408 H   0  0  0  0  0  0  0  0  0  0  0  0
   12.1864   17.6732   21.8982 H   0  0  0  0  0  0  0  0  0  0  0  0
   12.3566   12.7893   22.4499 H   0  0  0  0  0  0  0  0  0  0  0  0
   13.0767   14.0015   23.5336 H   0  0  0  0  0  0  0  0  0  0  0  0
   11.8282   16.2180   23.8638 H   0  0  0  0  0  0  0  0  0  0  0  0
   10.2940   16.4515   22.9953 H   0  0  0  0  0  0  0  0  0  0  0  0
   14.2478   17.6240   20.6918 H   0  0  0  0  0  0  0  0  0  0  0  0
   15.1559   16.0870   20.4932 H   0  0  0  0  0  0  0  0  0  0  0  0
   13.6287   16.3517   19.5852 H   0  0  0  0  0  0  0  0  0  0  0  0
  1  2  1  0  0  0  0
  1  4  2  0  0  0  0
  2  5  2  0  0  0  0
  3  5  1  0  0  0  0
  3  6  2  0  0  0  0
  4  6  1  0  0  0  0
  4 16  1  0  0  0  0
  5 17  1  0  0  0  0
  6 18  1  0  0  0  0
  7  9  1  0  0  0  0
  7 12  1  0  0  0  0
  8 10  1  0  0  0  0
  8 12  1  0  0  0  0
  9 13  1  0  0  0  0
 10 13  1  0  0  0  0
 11 12  1  0  0  0  0
 13 17  1  0  0  0  0
 14 17  2  0  0  0  0
 15 17  2  0  0  0  0
  1 19  1  0  0  0  0
  2 20  1  0  0  0  0
  3 21  1  0  0  0  0
  7 22  1  0  0  0  0
  7 23  1  0  0  0  0
  8 24  1  0  0  0  0
  8 25  1  0  0  0  0
  9 26  1  0  0  0  0
  9 27  1  0  0  0  0
 10 28  1  0  0  0  0
 10 29  1  0  0  0  0
 11 30  1  0  0  0  0
 11 31  1  0  0  0  0
 11 32  1  0  0  0  0
M  END
> <Catalog ID>
Z45507458

> <PlateID>
1337959-R-11

> <Well>
G11

> <MW (desalted)>
292.757

> <CLogP>
2.700

> <HBD>
0

> <TPSA>
40.620

> <RotBonds>
1

> <ROCS_ShapeQuery>
x0446_0A_x1080_0A_x0929_0A_x0812_0A_x0719_0A_x1140_0A_x0528_0A_x0310_0A

> <ROCS_TanimotoCombo>
0.310 

> <ROCS_ShapeTanimoto>
0.210 

> <ROCS_ColorTanimoto>
0.100 

> <ROCS_RefTversky>
0.194 

> <ROCS_RefColorTversky>
0.108 

> <ROCS_RefTverskyCombo>
0.301 

> <ROCS_FitTversky>
1.698 

> <ROCS_FitColorTversky>
0.579 

> <ROCS_FitTverskyCombo>
2.277 

> <ROCS_ColorScore>
-3.826

> <ROCS_Overlap>
2284.018

> <ROCS_Rank>
284                 

$$$$
untitled-dbase-350_4
  -OEChem-02082415003D

 31 32  0     1  0  0  0  0  0999 V2000
    8.5417    9.6972   24.3933 C   0  0  0  0  0  0  0  0  0  0  0  0
    8.0013   10.7724   25.0987 C   0  0  0  0  0  0  0  0  0  0  0  0
    9.5189   11.2314   22.8032 C   0  0  0  0  0  0  0  0  0  0  0  0
    8.9785   12.3066   23.5085 C   0  0  0  0  0  0  0  0  0  0  0  0
    9.3005    9.9267   23.2456 C   0  0  0  0  0  0  0  0  0  0  0  0
    8.2197   12.0771   24.6563 C   0  0  0  0  0  0  0  0  0  0  0  0
    9.2109   13.6772   23.0408 C   0  0  0  0  0  0  0  0  0  0  0  0
    7.2032   16.4065   21.8056 C   0  0  0  0  0  0  0  0  0  0  0  0
    8.4811   15.5872   21.6542 C   0  0  0  0  0  0  0  0  0  0  0  0
    7.1311   13.5294   21.5779 C   0  0  0  0  0  0  0  0  0  0  0  0
    5.8515   14.3657   21.7226 C   0  0  1  0  0  0  0  0  0  0  0  0
    5.3242   14.3526   23.1609 C   0  0  0  0  0  0  0  0  0  0  0  0
    6.0469   15.7310   21.2172 N   0  0  0  0  0  0  0  0  0  0  0  0
    8.2922   14.2249   22.1439 N   0  0  0  0  0  0  0  0  0  0  0  0
   10.2089   14.2418   23.4851 O   0  0  0  0  0  0  0  0  0  0  0  0
    9.8201    8.8944   22.5685 F   0  0  0  0  0  0  0  0  0  0  0  0
    7.6959   13.1028   25.3423 F   0  0  0  0  0  0  0  0  0  0  0  0
    8.3721    8.6811   24.7372 H   0  0  0  0  0  0  0  0  0  0  0  0
    7.4117   10.5935   25.9929 H   0  0  0  0  0  0  0  0  0  0  0  0
   10.1117   11.3979   21.9076 H   0  0  0  0  0  0  0  0  0  0  0  0
    7.0060   16.5825   22.8697 H   0  0  0  0  0  0  0  0  0  0  0  0
    7.3291   17.3949   21.3450 H   0  0  0  0  0  0  0  0  0  0  0  0
    8.7976   15.5992   20.6085 H   0  0  0  0  0  0  0  0  0  0  0  0
    9.2897   16.0312   22.2468 H   0  0  0  0  0  0  0  0  0  0  0  0
    7.0417   12.5773   22.1140 H   0  0  0  0  0  0  0  0  0  0  0  0
    7.3102   13.2938   20.5244 H   0  0  0  0  0  0  0  0  0  0  0  0
    5.0553   13.8778   21.0871 H   0  0  0  0  0  0  0  0  0  0  0  0
    6.0532   14.8131   23.8255 H   0  0  0  0  0  0  0  0  0  0  0  0
    5.1485   13.3266   23.4801 H   0  0  0  0  0  0  0  0  0  0  0  0
    4.3897   14.9085   23.2163 H   0  0  0  0  0  0  0  0  0  0  0  0
    5.2023   16.2852   21.4151 H   0  0  0  0  0  0  0  0  0  0  0  0
  1  2  1  0  0  0  0
  1  5  2  0  0  0  0
  2  6  2  0  0  0  0
  3  4  2  0  0  0  0
  3  5  1  0  0  0  0
  4  6  1  0  0  0  0
  4  7  1  0  0  0  0
  5 16  1  0  0  0  0
  6 17  1  0  0  0  0
  7 14  1  0  0  0  0
  7 15  2  0  0  0  0
  8  9  1  0  0  0  0
  8 13  1  0  0  0  0
  9 14  1  0  0  0  0
 10 11  1  0  0  0  0
 10 14  1  0  0  0  0
 11 12  1  6  0  0  0
 11 13  1  0  0  0  0
  1 18  1  0  0  0  0
  2 19  1  0  0  0  0
  3 20  1  0  0  0  0
  8 21  1  0  0  0  0
  8 22  1  0  0  0  0
  9 23  1  0  0  0  0
  9 24  1  0  0  0  0
 10 25  1  0  0  0  0
 10 26  1  0  0  0  0
 11 27  1  0  0  0  0
 12 28  1  0  0  0  0
 12 29  1  0  0  0  0
 12 30  1  0  0  0  0
 13 31  1  0  0  0  0
M  END
> <Catalog ID>
Z1766238052

> <PlateID>
1337959-R-08

> <Well>
E07

> <MW (desalted)>
240.249

> <CLogP>
1.665

> <HBD>
1

> <TPSA>
32.340

> <RotBonds>
1

> <ROCS_ShapeQuery>
x0446_0A_x1080_0A_x0929_0A_x0812_0A_x0719_0A_x1140_0A_x0528_0A_x0310_0A

> <ROCS_TanimotoCombo>
0.310 

> <ROCS_ShapeTanimoto>
0.211 

> <ROCS_ColorTanimoto>
0.099 

> <ROCS_RefTversky>
0.194 

> <ROCS_RefColorTversky>
0.107 

> <ROCS_RefTverskyCombo>
0.301 

> <ROCS_FitTversky>
1.712 

> <ROCS_FitColorTversky>
0.575 

> <ROCS_FitTverskyCombo>
2.288 

> <ROCS_ColorScore>
-3.802

> <ROCS_Overlap>
2287.937

> <ROCS_Rank>
285                 

$$$$
untitled-dbase-99_1
  -OEChem-02082415003D

 22 23  0     0  0  0  0  0  0999 V2000
   11.7484   11.2332   23.1757 C   0  0  0  0  0  0  0  0  0  0  0  0
   10.8136   10.2069   23.0396 C   0  0  0  0  0  0  0  0  0  0  0  0
   11.3661   12.4562   23.7268 C   0  0  0  0  0  0  0  0  0  0  0  0
    9.1142   11.6267   24.0058 C   0  0  0  0  0  0  0  0  0  0  0  0
    9.4965   10.4037   23.4547 C   0  0  0  0  0  0  0  0  0  0  0  0
   10.0491   12.6530   24.1419 C   0  0  0  0  0  0  0  0  0  0  0  0
    7.7405   11.8316   24.4396 C   0  0  0  0  0  0  0  0  0  0  0  0
    6.8984   12.7533   23.9814 C   0  0  0  0  0  0  0  0  0  0  0  0
    7.1098   13.7684   22.9673 C   0  0  0  0  0  0  0  0  0  0  0  0
    5.6420   12.5552   24.7367 C   0  0  0  0  0  0  0  0  0  0  0  0
    7.1662   11.0384   25.4012 N   0  0  0  0  0  0  0  0  0  0  0  0
    5.9752   11.4048   25.6135 N   0  0  0  0  0  0  0  0  0  0  0  0
    7.4096   13.5460   21.7995 O   0  0  0  0  0  0  0  0  0  0  0  0
    6.9285   15.0021   23.4962 O   0  0  0  0  0  0  0  0  0  0  0  0
    8.6098    9.4070   23.3172 F   0  0  0  0  0  0  0  0  0  0  0  0
    9.6972   13.8347   24.6693 F   0  0  0  0  0  0  0  0  0  0  0  0
   12.7739   11.0804   22.8525 H   0  0  0  0  0  0  0  0  0  0  0  0
   11.1115    9.2547   22.6105 H   0  0  0  0  0  0  0  0  0  0  0  0
   12.0942   13.2554   23.8315 H   0  0  0  0  0  0  0  0  0  0  0  0
    5.3843   13.4268   25.3460 H   0  0  0  0  0  0  0  0  0  0  0  0
    4.8047   12.2957   24.0825 H   0  0  0  0  0  0  0  0  0  0  0  0
    7.0636   15.7170   22.8383 H   0  0  0  0  0  0  0  0  0  0  0  0
  1  2  2  0  0  0  0
  1  3  1  0  0  0  0
  2  5  1  0  0  0  0
  3  6  2  0  0  0  0
  4  5  2  0  0  0  0
  4  6  1  0  0  0  0
  4  7  1  0  0  0  0
  5 15  1  0  0  0  0
  6 16  1  0  0  0  0
  7  8  2  0  0  0  0
  7 11  1  0  0  0  0
  8  9  1  0  0  0  0
  8 10  1  0  0  0  0
  9 13  2  0  0  0  0
  9 14  1  0  0  0  0
 10 12  1  0  0  0  0
 11 12  2  0  0  0  0
  1 17  1  0  0  0  0
  2 18  1  0  0  0  0
  3 19  1  0  0  0  0
 10 20  1  0  0  0  0
 10 21  1  0  0  0  0
 14 22  1  0  0  0  0
M  END
> <Catalog ID>
Z362114752

> <PlateID>
1337959-R-02

> <Well>
G11

> <MW (desalted)>
224.164

> <CLogP>
2.145

> <HBD>
2

> <TPSA>
65.980

> <RotBonds>
1

> <ROCS_ShapeQuery>
x0446_0A_x1080_0A_x0929_0A_x0812_0A_x0719_0A_x1140_0A_x0528_0A_x0310_0A

> <ROCS_TanimotoCombo>
0.310 

> <ROCS_ShapeTanimoto>
0.221 

> <ROCS_ColorTanimoto>
0.088 

> <ROCS_RefTversky>
0.202 

> <ROCS_RefColorTversky>
0.096 

> <ROCS_RefTverskyCombo>
0.298 

> <ROCS_FitTversky>
1.802 

> <ROCS_FitColorTversky>
0.518 

> <ROCS_FitTverskyCombo>
2.319 

> <ROCS_ColorScore>
-3.426

> <ROCS_Overlap>
2379.017

> <ROCS_Rank>
286                 

$$$$
untitled-dbase-642_12
  -OEChem-02082415003D

 33 33  0     0  0  0  0  0  0999 V2000
    9.2105   10.6065   24.7943 C   0  0  0  0  0  0  0  0  0  0  0  0
   10.0816   11.6797   24.6073 C   0  0  0  0  0  0  0  0  0  0  0  0
    7.5863   11.6747   23.3598 C   0  0  0  0  0  0  0  0  0  0  0  0
    7.9629   10.6040   24.1705 C   0  0  0  0  0  0  0  0  0  0  0  0
    9.7051   12.7505   23.7966 C   0  0  0  0  0  0  0  0  0  0  0  0
    8.4574   12.7480   23.1728 C   0  0  0  0  0  0  0  0  0  0  0  0
    6.1089    9.6606   25.5703 C   0  0  0  0  0  0  0  0  0  0  0  0
    5.5279   14.0350   23.4341 C   0  0  0  0  0  0  0  0  0  0  0  0
    7.1369   15.7382   24.1896 C   0  0  0  0  0  0  0  0  0  0  0  0
   11.4887   13.6984   22.5412 C   0  0  0  0  0  0  0  0  0  0  0  0
    7.0319    9.4564   24.3717 C   0  0  0  0  0  0  0  0  0  0  0  0
    6.7182   14.8480   23.0771 N   0  0  0  0  0  0  0  0  0  0  0  0
    9.0881   14.9958   22.0245 O   0  0  0  0  0  0  0  0  0  0  0  0
    7.3726   13.5248   20.9396 O   0  0  0  0  0  0  0  0  0  0  0  0
   10.5712   13.7886   23.6294 O   0  0  0  0  0  0  0  0  0  0  0  0
    7.9552   14.0961   22.1398 S   0  0  0  0  0  0  0  0  0  0  0  0
    9.5120    9.7766   25.4278 H   0  0  0  0  0  0  0  0  0  0  0  0
   11.0519   11.6756   25.0965 H   0  0  0  0  0  0  0  0  0  0  0  0
    6.6130   11.6692   22.8746 H   0  0  0  0  0  0  0  0  0  0  0  0
    6.6857    9.8238   26.4870 H   0  0  0  0  0  0  0  0  0  0  0  0
    5.4716    8.7839   25.7224 H   0  0  0  0  0  0  0  0  0  0  0  0
    5.4598   10.5303   25.4224 H   0  0  0  0  0  0  0  0  0  0  0  0
    5.2536   13.3927   22.5842 H   0  0  0  0  0  0  0  0  0  0  0  0
    5.7607   13.4079   24.3073 H   0  0  0  0  0  0  0  0  0  0  0  0
    4.6873   14.7022   23.6755 H   0  0  0  0  0  0  0  0  0  0  0  0
    8.0187   16.3197   23.8826 H   0  0  0  0  0  0  0  0  0  0  0  0
    6.3142   16.4244   24.4394 H   0  0  0  0  0  0  0  0  0  0  0  0
    7.3876   15.1301   25.0713 H   0  0  0  0  0  0  0  0  0  0  0  0
   12.1207   14.5896   22.5216 H   0  0  0  0  0  0  0  0  0  0  0  0
   10.9351   13.6106   21.6030 H   0  0  0  0  0  0  0  0  0  0  0  0
   12.1149   12.8134   22.6767 H   0  0  0  0  0  0  0  0  0  0  0  0
    6.4200    9.2955   23.4696 H   0  0  0  0  0  0  0  0  0  0  0  0
    7.5988    8.5215   24.5093 H   0  0  0  0  0  0  0  0  0  0  0  0
  1  2  1  0  0  0  0
  1  4  2  0  0  0  0
  2  5  2  0  0  0  0
  3  4  1  0  0  0  0
  3  6  2  0  0  0  0
  4 11  1  0  0  0  0
  5  6  1  0  0  0  0
  5 15  1  0  0  0  0
  6 16  1  0  0  0  0
  7 11  1  0  0  0  0
  8 12  1  0  0  0  0
  9 12  1  0  0  0  0
 10 15  1  0  0  0  0
 12 16  1  0  0  0  0
 13 16  2  0  0  0  0
 14 16  2  0  0  0  0
  1 17  1  0  0  0  0
  2 18  1  0  0  0  0
  3 19  1  0  0  0  0
  7 20  1  0  0  0  0
  7 21  1  0  0  0  0
  7 22  1  0  0  0  0
  8 23  1  0  0  0  0
  8 24  1  0  0  0  0
  8 25  1  0  0  0  0
  9 26  1  0  0  0  0
  9 27  1  0  0  0  0
  9 28  1  0  0  0  0
 10 29  1  0  0  0  0
 10 30  1  0  0  0  0
 10 31  1  0  0  0  0
 11 32  1  0  0  0  0
 11 33  1  0  0  0  0
M  END
> <Catalog ID>
Z285128322

> <PlateID>
1337959-R-15

> <Well>
A11

> <MW (desalted)>
243.323

> <CLogP>
2.054

> <HBD>
0

> <TPSA>
46.610

> <RotBonds>
3

> <ROCS_ShapeQuery>
x0446_0A_x1080_0A_x0929_0A_x0812_0A_x0719_0A_x1140_0A_x0528_0A_x0310_0A

> <ROCS_TanimotoCombo>
0.310 

> <ROCS_ShapeTanimoto>
0.185 

> <ROCS_ColorTanimoto>
0.125 

> <ROCS_RefTversky>
0.173 

> <ROCS_RefColorTversky>
0.132 

> <ROCS_RefTverskyCombo>
0.304 

> <ROCS_FitTversky>
1.628 

> <ROCS_FitColorTversky>
0.708 

> <ROCS_FitTverskyCombo>
2.335 

> <ROCS_ColorScore>
-4.681

> <ROCS_Overlap>
2035.872

> <ROCS_Rank>
287                 

$$$$
untitled-dbase-462_7
  -OEChem-02082415003D

 32 33  0     0  0  0  0  0  0999 V2000
    9.7523   15.3900   21.6461 C   0  0  0  0  0  0  0  0  0  0  0  0
    8.2621    9.4530   24.5393 C   0  0  0  0  0  0  0  0  0  0  0  0
    9.4435   10.0150   25.0101 C   0  0  0  0  0  0  0  0  0  0  0  0
    7.6575   10.0406   23.4398 C   0  0  0  0  0  0  0  0  0  0  0  0
    9.9766   11.1317   24.3761 C   0  0  0  0  0  0  0  0  0  0  0  0
    9.2953   11.6441   23.2838 C   0  0  0  0  0  0  0  0  0  0  0  0
   10.6044   13.7903   23.2192 C   0  0  0  0  0  0  0  0  0  0  0  0
   13.9811   14.8611   22.1280 C   0  0  0  0  0  0  0  0  0  0  0  0
   13.2000   13.7138   21.4985 C   0  0  0  0  0  0  0  0  0  0  0  0
   13.2175   15.4851   23.2899 C   0  0  0  0  0  0  0  0  0  0  0  0
   11.8017   14.1537   21.0621 C   0  0  0  0  0  0  0  0  0  0  0  0
   11.8192   15.9399   22.8689 C   0  0  0  0  0  0  0  0  0  0  0  0
   11.0014   14.8233   22.1942 C   0  0  0  0  0  0  0  0  0  0  0  0
    8.7711   15.8350   21.2154 N   0  0  0  0  0  0  0  0  0  0  0  0
    8.1454   11.1255   22.7976 N   0  0  0  0  0  0  0  0  0  0  0  0
    9.8432   12.7810   22.6436 N   0  0  0  0  0  0  0  0  0  0  0  0
   10.9536   13.9007   24.3900 O   0  0  0  0  0  0  0  0  0  0  0  0
   11.1138   11.6831   24.8187 F   0  0  0  0  0  0  0  0  0  0  0  0
    7.8286    8.5823   25.0176 H   0  0  0  0  0  0  0  0  0  0  0  0
    9.9482    9.5836   25.8693 H   0  0  0  0  0  0  0  0  0  0  0  0
    6.7344    9.6403   23.0336 H   0  0  0  0  0  0  0  0  0  0  0  0
   14.9532   14.4968   22.4788 H   0  0  0  0  0  0  0  0  0  0  0  0
   14.1821   15.6270   21.3688 H   0  0  0  0  0  0  0  0  0  0  0  0
   13.7488   13.3292   20.6311 H   0  0  0  0  0  0  0  0  0  0  0  0
   13.1224   12.8866   22.2144 H   0  0  0  0  0  0  0  0  0  0  0  0
   13.1408   14.7609   24.1099 H   0  0  0  0  0  0  0  0  0  0  0  0
   13.7784   16.3427   23.6787 H   0  0  0  0  0  0  0  0  0  0  0  0
   11.9059   14.8528   20.2204 H   0  0  0  0  0  0  0  0  0  0  0  0
   11.2629   13.2817   20.6681 H   0  0  0  0  0  0  0  0  0  0  0  0
   11.2929   16.3292   23.7506 H   0  0  0  0  0  0  0  0  0  0  0  0
   11.9249   16.7886   22.1787 H   0  0  0  0  0  0  0  0  0  0  0  0
    9.6507   12.8551   21.6469 H   0  0  0  0  0  0  0  0  0  0  0  0
  1 13  1  0  0  0  0
  1 14  3  0  0  0  0
  2  3  1  0  0  0  0
  2  4  2  0  0  0  0
  3  5  2  0  0  0  0
  4 15  1  0  0  0  0
  5  6  1  0  0  0  0
  5 18  1  0  0  0  0
  6 15  2  0  0  0  0
  6 16  1  0  0  0  0
  7 13  1  0  0  0  0
  7 16  1  0  0  0  0
  7 17  2  0  0  0  0
  8  9  1  0  0  0  0
  8 10  1  0  0  0  0
  9 11  1  0  0  0  0
 10 12  1  0  0  0  0
 11 13  1  0  0  0  0
 12 13  1  0  0  0  0
  2 19  1  0  0  0  0
  3 20  1  0  0  0  0
  4 21  1  0  0  0  0
  8 22  1  0  0  0  0
  8 23  1  0  0  0  0
  9 24  1  0  0  0  0
  9 25  1  0  0  0  0
 10 26  1  0  0  0  0
 10 27  1  0  0  0  0
 11 28  1  0  0  0  0
 11 29  1  0  0  0  0
 12 30  1  0  0  0  0
 12 31  1  0  0  0  0
 16 32  1  0  0  0  0
M  END
> <Catalog ID>
Z1666803620

> <PlateID>
1337959-R-11

> <Well>
A09

> <MW (desalted)>
247.268

> <CLogP>
1.354

> <HBD>
1

> <TPSA>
65.780

> <RotBonds>
2

> <ROCS_ShapeQuery>
x0446_0A_x1080_0A_x0929_0A_x0812_0A_x0719_0A_x1140_0A_x0528_0A_x0310_0A

> <ROCS_TanimotoCombo>
0.310 

> <ROCS_ShapeTanimoto>
0.184 

> <ROCS_ColorTanimoto>
0.126 

> <ROCS_RefTversky>
0.174 

> <ROCS_RefColorTversky>
0.135 

> <ROCS_RefTverskyCombo>
0.309 

> <ROCS_FitTversky>
1.484 

> <ROCS_FitColorTversky>
0.637 

> <ROCS_FitTverskyCombo>
2.121 

> <ROCS_ColorScore>
-4.819

> <ROCS_Overlap>
2048.866

> <ROCS_Rank>
288                 

$$$$
untitled-dbase-675_1
  -OEChem-02082415003D

 23 25  0     0  0  0  0  0  0999 V2000
    8.4128   12.0258   24.6472 C   0  0  0  0  0  0  0  0  0  0  0  0
    8.3707   11.5226   22.5799 C   0  0  0  0  0  0  0  0  0  0  0  0
   10.1169   11.1358   23.7345 C   0  0  0  0  0  0  0  0  0  0  0  0
    9.6220   14.1526   21.6077 C   0  0  0  0  0  0  0  0  0  0  0  0
   11.3329   13.7732   22.7382 C   0  0  0  0  0  0  0  0  0  0  0  0
    9.8368   13.8057   23.0898 C   0  0  0  0  0  0  0  0  0  0  0  0
    9.2940   12.4053   23.4417 C   0  0  0  0  0  0  0  0  0  0  0  0
    8.6300   10.6921   23.8720 C   0  0  0  0  0  0  0  0  0  0  0  0
   10.9629   13.6050   21.3182 N   0  0  0  0  0  0  0  0  0  0  0  0
    8.1339    9.4193   24.1958 O   0  0  0  0  0  0  0  0  0  0  0  0
    8.8618   12.1051   25.6424 H   0  0  0  0  0  0  0  0  0  0  0  0
    7.3957   12.4298   24.6728 H   0  0  0  0  0  0  0  0  0  0  0  0
    7.3496   11.8794   22.4114 H   0  0  0  0  0  0  0  0  0  0  0  0
    8.7811   11.1314   21.6436 H   0  0  0  0  0  0  0  0  0  0  0  0
   10.6915   10.7082   22.9067 H   0  0  0  0  0  0  0  0  0  0  0  0
   10.7261   11.1316   24.6441 H   0  0  0  0  0  0  0  0  0  0  0  0
    8.8087   13.6077   21.1027 H   0  0  0  0  0  0  0  0  0  0  0  0
    9.5076   15.2219   21.3848 H   0  0  0  0  0  0  0  0  0  0  0  0
   11.8901   14.6937   22.9593 H   0  0  0  0  0  0  0  0  0  0  0  0
   11.9009   12.9220   23.1457 H   0  0  0  0  0  0  0  0  0  0  0  0
    9.5361   14.5709   23.8007 H   0  0  0  0  0  0  0  0  0  0  0  0
   10.9695   12.6382   20.9834 H   0  0  0  0  0  0  0  0  0  0  0  0
    8.4471    8.7955   23.5135 H   0  0  0  0  0  0  0  0  0  0  0  0
  1  7  1  0  0  0  0
  1  8  1  0  0  0  0
  2  7  1  0  0  0  0
  2  8  1  0  0  0  0
  3  7  1  0  0  0  0
  3  8  1  0  0  0  0
  4  6  1  0  0  0  0
  4  9  1  0  0  0  0
  5  6  1  0  0  0  0
  5  9  1  0  0  0  0
  6  7  1  0  0  0  0
  8 10  1  0  0  0  0
  1 11  1  0  0  0  0
  1 12  1  0  0  0  0
  2 13  1  0  0  0  0
  2 14  1  0  0  0  0
  3 15  1  0  0  0  0
  3 16  1  0  0  0  0
  4 17  1  0  0  0  0
  4 18  1  0  0  0  0
  5 19  1  0  0  0  0
  5 20  1  0  0  0  0
  6 21  1  0  0  0  0
  9 22  1  0  0  0  0
 10 23  1  0  0  0  0
M  END
> <Catalog ID>
Z4910938544

> <PlateID>
1337959-R-15

> <Well>
G07

> <MW (desalted)>
139.195

> <CLogP>
-1.083

> <HBD>
2

> <TPSA>
32.260

> <RotBonds>
1

> <ROCS_ShapeQuery>
x0446_0A_x1080_0A_x0929_0A_x0812_0A_x0719_0A_x1140_0A_x0528_0A_x0310_0A

> <ROCS_TanimotoCombo>
0.309 

> <ROCS_ShapeTanimoto>
0.162 

> <ROCS_ColorTanimoto>
0.148 

> <ROCS_RefTversky>
0.151 

> <ROCS_RefColorTversky>
0.178 

> <ROCS_RefTverskyCombo>
0.329 

> <ROCS_FitTversky>
1.716 

> <ROCS_FitColorTversky>
0.465 

> <ROCS_FitTverskyCombo>
2.181 

> <ROCS_ColorScore>
-6.396

> <ROCS_Overlap>
1784.824

> <ROCS_Rank>
289                 

$$$$
untitled-dbase-118_1
  -OEChem-02082415003D

 30 31  0     0  0  0  0  0  0999 V2000
    5.3244   12.5255   25.3158 C   0  0  0  0  0  0  0  0  0  0  0  0
    6.5711   12.6308   26.1868 C   0  0  0  0  0  0  0  0  0  0  0  0
    5.5825   11.7267   24.0427 C   0  0  0  0  0  0  0  0  0  0  0  0
    7.7690   13.1683   25.4039 C   0  0  0  0  0  0  0  0  0  0  0  0
    6.7735   12.2849   23.2643 C   0  0  0  0  0  0  0  0  0  0  0  0
   10.1778   10.7310   22.5911 C   0  0  0  0  0  0  0  0  0  0  0  0
    8.6445   10.9678   24.4676 C   0  0  0  0  0  0  0  0  0  0  0  0
    9.8473   12.0710   21.9529 C   0  0  0  0  0  0  0  0  0  0  0  0
    8.0672   12.3667   24.1127 C   0  0  0  0  0  0  0  0  0  0  0  0
    9.0477   10.1532   23.3169 N   0  0  0  0  0  0  0  0  0  0  0  0
   10.5007   13.4848   24.0485 O   0  0  0  0  0  0  0  0  0  0  0  0
    8.7560   14.3875   22.4770 O   0  0  0  0  0  0  0  0  0  0  0  0
    9.3615   13.2701   23.1754 S   0  0  0  0  0  0  0  0  0  0  0  0
    4.5134   12.0584   25.8863 H   0  0  0  0  0  0  0  0  0  0  0  0
    4.9833   13.5334   25.0476 H   0  0  0  0  0  0  0  0  0  0  0  0
    6.3649   13.2952   27.0358 H   0  0  0  0  0  0  0  0  0  0  0  0
    6.8091   11.6489   26.6152 H   0  0  0  0  0  0  0  0  0  0  0  0
    5.7566   10.6761   24.2947 H   0  0  0  0  0  0  0  0  0  0  0  0
    4.6900   11.7542   23.4095 H   0  0  0  0  0  0  0  0  0  0  0  0
    7.5575   14.2158   25.1488 H   0  0  0  0  0  0  0  0  0  0  0  0
    8.6439   13.1973   26.0644 H   0  0  0  0  0  0  0  0  0  0  0  0
    6.9385   11.6713   22.3722 H   0  0  0  0  0  0  0  0  0  0  0  0
    6.5112   13.2862   22.9024 H   0  0  0  0  0  0  0  0  0  0  0  0
   10.5417   10.0215   21.8357 H   0  0  0  0  0  0  0  0  0  0  0  0
   11.0021   10.8795   23.3001 H   0  0  0  0  0  0  0  0  0  0  0  0
    9.5315   11.0821   25.1074 H   0  0  0  0  0  0  0  0  0  0  0  0
    7.9224   10.4006   25.0784 H   0  0  0  0  0  0  0  0  0  0  0  0
   10.7043   12.4770   21.4080 H   0  0  0  0  0  0  0  0  0  0  0  0
    9.0133   11.9700   21.2526 H   0  0  0  0  0  0  0  0  0  0  0  0
    8.2551   10.0796   22.6773 H   0  0  0  0  0  0  0  0  0  0  0  0
  1  2  1  0  0  0  0
  1  3  1  0  0  0  0
  2  4  1  0  0  0  0
  3  5  1  0  0  0  0
  4  9  1  0  0  0  0
  5  9  1  0  0  0  0
  6  8  1  0  0  0  0
  6 10  1  0  0  0  0
  7  9  1  0  0  0  0
  7 10  1  0  0  0  0
  8 13  1  0  0  0  0
  9 13  1  0  0  0  0
 11 13  2  0  0  0  0
 12 13  2  0  0  0  0
  1 14  1  0  0  0  0
  1 15  1  0  0  0  0
  2 16  1  0  0  0  0
  2 17  1  0  0  0  0
  3 18  1  0  0  0  0
  3 19  1  0  0  0  0
  4 20  1  0  0  0  0
  4 21  1  0  0  0  0
  5 22  1  0  0  0  0
  5 23  1  0  0  0  0
  6 24  1  0  0  0  0
  6 25  1  0  0  0  0
  7 26  1  0  0  0  0
  7 27  1  0  0  0  0
  8 28  1  0  0  0  0
  8 29  1  0  0  0  0
 10 30  1  0  0  0  0
M  END
> <Catalog ID>
Z1365534259

> <PlateID>
1337959-R-03

> <Well>
C05

> <MW (desalted)>
203.302

> <CLogP>
0.617

> <HBD>
1

> <TPSA>
46.170

> <RotBonds>
0

> <ROCS_ShapeQuery>
x0446_0A_x1080_0A_x0929_0A_x0812_0A_x0719_0A_x1140_0A_x0528_0A_x0310_0A

> <ROCS_TanimotoCombo>
0.309 

> <ROCS_ShapeTanimoto>
0.181 

> <ROCS_ColorTanimoto>
0.129 

> <ROCS_RefTversky>
0.168 

> <ROCS_RefColorTversky>
0.138 

> <ROCS_RefTverskyCombo>
0.306 

> <ROCS_FitTversky>
1.759 

> <ROCS_FitColorTversky>
0.651 

> <ROCS_FitTverskyCombo>
2.410 

> <ROCS_ColorScore>
-4.921

> <ROCS_Overlap>
1975.585

> <ROCS_Rank>
290                 

$$$$
untitled-dbase-238_0
  -OEChem-02082415003D

 25 26  0     0  0  0  0  0  0999 V2000
    7.7469   10.5137   24.6936 C   0  0  0  0  0  0  0  0  0  0  0  0
    8.5549    9.7577   23.8444 C   0  0  0  0  0  0  0  0  0  0  0  0
    7.9747   11.8823   24.8375 C   0  0  0  0  0  0  0  0  0  0  0  0
    9.5909   10.3703   23.1392 C   0  0  0  0  0  0  0  0  0  0  0  0
    9.0106   12.4949   24.1324 C   0  0  0  0  0  0  0  0  0  0  0  0
    9.8187   11.7389   23.2832 C   0  0  0  0  0  0  0  0  0  0  0  0
    8.2344   14.6074   22.0390 C   0  0  0  0  0  0  0  0  0  0  0  0
    6.9530   15.1346   24.1864 C   0  0  0  0  0  0  0  0  0  0  0  0
    7.9869   16.2057   24.0168 C   0  0  0  0  0  0  0  0  0  0  0  0
    8.2673   14.8067   23.5082 C   0  0  0  0  0  0  0  0  0  0  0  0
    9.2542   13.9778   24.2909 C   0  0  0  0  0  0  0  0  0  0  0  0
    7.5763   13.7553   21.4608 O   0  0  0  0  0  0  0  0  0  0  0  0
    9.0403   15.5019   21.4164 O   0  0  0  0  0  0  0  0  0  0  0  0
   10.8164   12.3186   22.6013 F   0  0  0  0  0  0  0  0  0  0  0  0
    6.9405   10.0366   25.2433 H   0  0  0  0  0  0  0  0  0  0  0  0
    8.3779    8.6920   23.7328 H   0  0  0  0  0  0  0  0  0  0  0  0
    7.3405   12.4631   25.5020 H   0  0  0  0  0  0  0  0  0  0  0  0
   10.2200    9.7819   22.4776 H   0  0  0  0  0  0  0  0  0  0  0  0
    6.7763   14.7589   25.1874 H   0  0  0  0  0  0  0  0  0  0  0  0
    6.0572   15.1992   23.5796 H   0  0  0  0  0  0  0  0  0  0  0  0
    7.7845   16.9900   23.2965 H   0  0  0  0  0  0  0  0  0  0  0  0
    8.5064   16.5499   24.9033 H   0  0  0  0  0  0  0  0  0  0  0  0
    9.2101   14.2375   25.3602 H   0  0  0  0  0  0  0  0  0  0  0  0
   10.2840   14.2090   23.9761 H   0  0  0  0  0  0  0  0  0  0  0  0
    9.0338   15.3851   20.4424 H   0  0  0  0  0  0  0  0  0  0  0  0
  1  2  2  0  0  0  0
  1  3  1  0  0  0  0
  2  4  1  0  0  0  0
  3  5  2  0  0  0  0
  4  6  2  0  0  0  0
  5  6  1  0  0  0  0
  5 11  1  0  0  0  0
  6 14  1  0  0  0  0
  7 10  1  0  0  0  0
  7 12  2  0  0  0  0
  7 13  1  0  0  0  0
  8  9  1  0  0  0  0
  8 10  1  0  0  0  0
  9 10  1  0  0  0  0
 10 11  1  0  0  0  0
  1 15  1  0  0  0  0
  2 16  1  0  0  0  0
  3 17  1  0  0  0  0
  4 18  1  0  0  0  0
  8 19  1  0  0  0  0
  8 20  1  0  0  0  0
  9 21  1  0  0  0  0
  9 22  1  0  0  0  0
 11 23  1  0  0  0  0
 11 24  1  0  0  0  0
 13 25  1  0  0  0  0
M  END
> <Catalog ID>
Z1251360027

> <PlateID>
1337959-R-05

> <Well>
G04

> <MW (desalted)>
194.202

> <CLogP>
2.390

> <HBD>
1

> <TPSA>
37.300

> <RotBonds>
3

> <ROCS_ShapeQuery>
x0446_0A_x1080_0A_x0929_0A_x0812_0A_x0719_0A_x1140_0A_x0528_0A_x0310_0A

> <ROCS_TanimotoCombo>
0.309 

> <ROCS_ShapeTanimoto>
0.193 

> <ROCS_ColorTanimoto>
0.116 

> <ROCS_RefTversky>
0.178 

> <ROCS_RefColorTversky>
0.121 

> <ROCS_RefTverskyCombo>
0.299 

> <ROCS_FitTversky>
1.742 

> <ROCS_FitColorTversky>
0.758 

> <ROCS_FitTverskyCombo>
2.500 

> <ROCS_ColorScore>
-4.297

> <ROCS_Overlap>
2098.504

> <ROCS_Rank>
291                 

$$$$
untitled-dbase-115_5
  -OEChem-02082415003D

 29 30  0     1  0  0  0  0  0999 V2000
    6.8974   12.4513   23.5081 C   0  0  0  0  0  0  0  0  0  0  0  0
    8.1566   10.3598   24.3074 C   0  0  0  0  0  0  0  0  0  0  0  0
    9.7235   11.2044   22.6370 C   0  0  0  0  0  0  0  0  0  0  0  0
    5.5460   12.0803   24.0843 C   0  0  0  0  0  0  0  0  0  0  0  0
    7.1053   12.0967   25.8069 C   0  0  0  0  0  0  0  0  0  0  0  0
    7.8796   11.8579   24.5107 C   0  0  2  0  0  0  0  0  0  0  0  0
   10.1754   12.1604   23.7543 C   0  0  0  0  0  0  0  0  0  0  0  0
   10.7855   13.4209   23.1256 C   0  0  0  0  0  0  0  0  0  0  0  0
   11.2284   11.5184   24.6695 C   0  0  0  0  0  0  0  0  0  0  0  0
    8.9308   10.0682   23.1004 N   0  0  0  0  0  0  0  0  0  0  0  0
    5.7127   11.9573   25.5017 O   0  0  0  0  0  0  0  0  0  0  0  0
    9.0880   12.6118   24.5740 O   0  0  0  0  0  0  0  0  0  0  0  0
    7.0167   11.9642   22.5283 H   0  0  0  0  0  0  0  0  0  0  0  0
    6.9632   13.5283   23.3421 H   0  0  0  0  0  0  0  0  0  0  0  0
    8.6958    9.9544   25.1854 H   0  0  0  0  0  0  0  0  0  0  0  0
    7.2046    9.8000   24.2647 H   0  0  0  0  0  0  0  0  0  0  0  0
    9.1369   11.7644   21.8761 H   0  0  0  0  0  0  0  0  0  0  0  0
   10.6077   10.8172   22.0812 H   0  0  0  0  0  0  0  0  0  0  0  0
    4.8026   12.8656   23.9000 H   0  0  0  0  0  0  0  0  0  0  0  0
    5.1611   11.1391   23.6766 H   0  0  0  0  0  0  0  0  0  0  0  0
    7.3450   11.3496   26.5756 H   0  0  0  0  0  0  0  0  0  0  0  0
    7.2694   13.0966   26.2277 H   0  0  0  0  0  0  0  0  0  0  0  0
   11.1058   14.0983   23.9119 H   0  0  0  0  0  0  0  0  0  0  0  0
   10.0414   13.9117   22.5050 H   0  0  0  0  0  0  0  0  0  0  0  0
   11.6404   13.1431   22.5157 H   0  0  0  0  0  0  0  0  0  0  0  0
   11.5157   12.2275   25.4395 H   0  0  0  0  0  0  0  0  0  0  0  0
   12.0991   11.2475   24.0806 H   0  0  0  0  0  0  0  0  0  0  0  0
   10.8096   10.6294   25.1308 H   0  0  0  0  0  0  0  0  0  0  0  0
    9.5701    9.2735   23.2998 H   0  0  0  0  0  0  0  0  0  0  0  0
  1  4  1  0  0  0  0
  1  6  1  0  0  0  0
  2  6  1  0  0  0  0
  2 10  1  0  0  0  0
  3  7  1  0  0  0  0
  3 10  1  0  0  0  0
  4 11  1  0  0  0  0
  5  6  1  0  0  0  0
  5 11  1  0  0  0  0
  6 12  1  0  0  0  0
  7  8  1  0  0  0  0
  7  9  1  0  0  0  0
  7 12  1  0  0  0  0
  1 13  1  0  0  0  0
  1 14  1  0  0  0  0
  2 15  1  0  0  0  0
  2 16  1  0  0  0  0
  3 17  1  0  0  0  0
  3 18  1  0  0  0  0
  4 19  1  0  0  0  0
  4 20  1  0  0  0  0
  5 21  1  0  0  0  0
  5 22  1  0  0  0  0
  8 23  1  0  0  0  0
  8 24  1  0  0  0  0
  8 25  1  0  0  0  0
  9 26  1  0  0  0  0
  9 27  1  0  0  0  0
  9 28  1  0  0  0  0
 10 29  1  0  0  0  0
M  END
> <Catalog ID>
Z1258763475

> <PlateID>
1337959-R-03

> <Well>
B10

> <MW (desalted)>
171.237

> <CLogP>
0.318

> <HBD>
1

> <TPSA>
30.490

> <RotBonds>
0

> <ROCS_ShapeQuery>
x0446_0A_x1080_0A_x0929_0A_x0812_0A_x0719_0A_x1140_0A_x0528_0A_x0310_0A

> <ROCS_TanimotoCombo>
0.309 

> <ROCS_ShapeTanimoto>
0.179 

> <ROCS_ColorTanimoto>
0.130 

> <ROCS_RefTversky>
0.167 

> <ROCS_RefColorTversky>
0.142 

> <ROCS_RefTverskyCombo>
0.309 

> <ROCS_FitTversky>
1.755 

> <ROCS_FitColorTversky>
0.596 

> <ROCS_FitTverskyCombo>
2.351 

> <ROCS_ColorScore>
-5.069

> <ROCS_Overlap>
1963.007

> <ROCS_Rank>
292                 

$$$$
untitled-dbase-405_1
  -OEChem-02082415003D

 28 30  0     0  0  0  0  0  0999 V2000
   11.5872   12.8793   24.2167 C   0  0  0  0  0  0  0  0  0  0  0  0
   10.2480   12.9618   24.6020 C   0  0  0  0  0  0  0  0  0  0  0  0
   12.0370   11.8131   23.4243 C   0  0  0  0  0  0  0  0  0  0  0  0
    9.3812   11.9600   24.1936 C   0  0  0  0  0  0  0  0  0  0  0  0
    9.8341   10.8842   23.4231 C   0  0  0  0  0  0  0  0  0  0  0  0
   11.1550   10.8114   23.0132 C   0  0  0  0  0  0  0  0  0  0  0  0
    5.7089   12.8568   24.3337 C   0  0  0  0  0  0  0  0  0  0  0  0
    5.9154   12.2156   25.7066 C   0  0  0  0  0  0  0  0  0  0  0  0
    7.0750   12.8562   23.6459 C   0  0  0  0  0  0  0  0  0  0  0  0
    7.4207   12.0235   25.8526 C   0  0  0  0  0  0  0  0  0  0  0  0
    7.6548   10.3683   23.8985 C   0  0  0  0  0  0  0  0  0  0  0  0
    7.9036   11.8207   24.4160 C   0  0  0  0  0  0  0  0  0  0  0  0
    8.8042   10.0134   23.0742 N   0  0  0  0  0  0  0  0  0  0  0  0
   11.5868    9.8002   22.2493 F   0  0  0  0  0  0  0  0  0  0  0  0
   12.2861   13.6521   24.5238 H   0  0  0  0  0  0  0  0  0  0  0  0
    9.9093   13.8001   25.1979 H   0  0  0  0  0  0  0  0  0  0  0  0
   13.0812   11.7679   23.1263 H   0  0  0  0  0  0  0  0  0  0  0  0
    4.9609   12.3174   23.7409 H   0  0  0  0  0  0  0  0  0  0  0  0
    5.3420   13.8843   24.4498 H   0  0  0  0  0  0  0  0  0  0  0  0
    5.5187   12.8625   26.4911 H   0  0  0  0  0  0  0  0  0  0  0  0
    5.3964   11.2575   25.7745 H   0  0  0  0  0  0  0  0  0  0  0  0
    6.9387   12.5410   22.6028 H   0  0  0  0  0  0  0  0  0  0  0  0
    7.5183   13.8584   23.6340 H   0  0  0  0  0  0  0  0  0  0  0  0
    7.8908   12.8646   26.3549 H   0  0  0  0  0  0  0  0  0  0  0  0
    7.6019   11.1244   26.4415 H   0  0  0  0  0  0  0  0  0  0  0  0
    7.6005    9.6660   24.7387 H   0  0  0  0  0  0  0  0  0  0  0  0
    6.7264   10.2792   23.3280 H   0  0  0  0  0  0  0  0  0  0  0  0
    8.9945    9.0605   22.7825 H   0  0  0  0  0  0  0  0  0  0  0  0
  1  2  2  0  0  0  0
  1  3  1  0  0  0  0
  2  4  1  0  0  0  0
  3  6  2  0  0  0  0
  4  5  2  0  0  0  0
  4 12  1  0  0  0  0
  5  6  1  0  0  0  0
  5 13  1  0  0  0  0
  6 14  1  0  0  0  0
  7  8  1  0  0  0  0
  7  9  1  0  0  0  0
  8 10  1  0  0  0  0
  9 12  1  0  0  0  0
 10 12  1  0  0  0  0
 11 12  1  0  0  0  0
 11 13  1  0  0  0  0
  1 15  1  0  0  0  0
  2 16  1  0  0  0  0
  3 17  1  0  0  0  0
  7 18  1  0  0  0  0
  7 19  1  0  0  0  0
  8 20  1  0  0  0  0
  8 21  1  0  0  0  0
  9 22  1  0  0  0  0
  9 23  1  0  0  0  0
 10 24  1  0  0  0  0
 10 25  1  0  0  0  0
 11 26  1  0  0  0  0
 11 27  1  0  0  0  0
 13 28  1  0  0  0  0
M  END
> <Catalog ID>
Z1416190753

> <PlateID>
1337959-R-09

> <Well>
F04

> <MW (desalted)>
191.245

> <CLogP>
3.653

> <HBD>
1

> <TPSA>
12.030

> <RotBonds>
0

> <ROCS_ShapeQuery>
x0446_0A_x1080_0A_x0929_0A_x0812_0A_x0719_0A_x1140_0A_x0528_0A_x0310_0A

> <ROCS_TanimotoCombo>
0.309 

> <ROCS_ShapeTanimoto>
0.188 

> <ROCS_ColorTanimoto>
0.120 

> <ROCS_RefTversky>
0.175 

> <ROCS_RefColorTversky>
0.125 

> <ROCS_RefTverskyCombo>
0.300 

> <ROCS_FitTversky>
1.683 

> <ROCS_FitColorTversky>
0.780 

> <ROCS_FitTverskyCombo>
2.463 

> <ROCS_ColorScore>
-4.432

> <ROCS_Overlap>
2064.490

> <ROCS_Rank>
293                 

$$$$
untitled-dbase-251_0
  -OEChem-02082415003D

 25 27  0     1  0  0  0  0  0999 V2000
    7.7014   10.5653   25.0439 C   0  0  0  0  0  0  0  0  0  0  0  0
    8.2608    9.7538   23.8634 C   0  0  0  0  0  0  0  0  0  0  0  0
   11.2870   10.6538   23.7586 C   0  0  0  0  0  0  0  0  0  0  0  0
    7.7023   11.9387   23.0997 C   0  0  0  0  0  0  0  0  0  0  0  0
    9.4449   12.3430   24.6901 C   0  0  0  0  0  0  0  0  0  0  0  0
   12.0322   11.8871   23.2287 C   0  0  0  0  0  0  0  0  0  0  0  0
    7.9333   12.0231   24.6092 C   0  0  2  0  0  0  0  0  0  0  0  0
    8.7590   10.8453   22.8991 C   0  0  1  0  0  0  0  0  0  0  0  0
   10.0031   11.4929   23.5296 C   0  0  2  0  0  0  0  0  0  0  0  0
   10.7868   12.2897   22.5432 N   0  0  0  0  0  0  0  0  0  0  0  0
    6.6321   10.3606   25.1666 H   0  0  0  0  0  0  0  0  0  0  0  0
    8.2056   10.3227   25.9846 H   0  0  0  0  0  0  0  0  0  0  0  0
    9.0508    9.0672   24.1822 H   0  0  0  0  0  0  0  0  0  0  0  0
    7.4603    9.1641   23.4019 H   0  0  0  0  0  0  0  0  0  0  0  0
   11.3746    9.7731   23.1112 H   0  0  0  0  0  0  0  0  0  0  0  0
   11.5105   10.3655   24.7887 H   0  0  0  0  0  0  0  0  0  0  0  0
    6.6911   11.6136   22.8337 H   0  0  0  0  0  0  0  0  0  0  0  0
    7.9374   12.8741   22.5812 H   0  0  0  0  0  0  0  0  0  0  0  0
    9.6123   13.4156   24.5388 H   0  0  0  0  0  0  0  0  0  0  0  0
    9.8659   12.0563   25.6593 H   0  0  0  0  0  0  0  0  0  0  0  0
   12.3536   12.5872   24.0087 H   0  0  0  0  0  0  0  0  0  0  0  0
   12.8761   11.6812   22.5652 H   0  0  0  0  0  0  0  0  0  0  0  0
    7.3093   12.7415   25.1444 H   0  0  0  0  0  0  0  0  0  0  0  0
    8.8913   10.4975   21.8718 H   0  0  0  0  0  0  0  0  0  0  0  0
   10.6053   13.2916   22.5364 H   0  0  0  0  0  0  0  0  0  0  0  0
  1  2  1  0  0  0  0
  1  7  1  0  0  0  0
  2  8  1  0  0  0  0
  3  6  1  0  0  0  0
  3  9  1  0  0  0  0
  4  7  1  0  0  0  0
  4  8  1  0  0  0  0
  5  7  1  0  0  0  0
  5  9  1  0  0  0  0
  6 10  1  0  0  0  0
  8  9  1  0  0  0  0
  9 10  1  0  0  0  0
  1 11  1  0  0  0  0
  1 12  1  0  0  0  0
  2 13  1  0  0  0  0
  2 14  1  0  0  0  0
  3 15  1  0  0  0  0
  3 16  1  0  0  0  0
  4 17  1  0  0  0  0
  4 18  1  0  0  0  0
  5 19  1  0  0  0  0
  5 20  1  0  0  0  0
  6 21  1  0  0  0  0
  6 22  1  0  0  0  0
  7 23  1  0  0  0  0
  8 24  1  0  0  0  0
 10 25  1  0  0  0  0
M  END
> <Catalog ID>
Z1460827678

> <PlateID>
1337959-R-06

> <Well>
A02

> <MW (desalted)>
137.222

> <CLogP>
1.563

> <HBD>
1

> <TPSA>
12.030

> <RotBonds>
0

> <ROCS_ShapeQuery>
x0446_0A_x1080_0A_x0929_0A_x0812_0A_x0719_0A_x1140_0A_x0528_0A_x0310_0A

> <ROCS_TanimotoCombo>
0.309 

> <ROCS_ShapeTanimoto>
0.159 

> <ROCS_ColorTanimoto>
0.150 

> <ROCS_RefTversky>
0.149 

> <ROCS_RefColorTversky>
0.169 

> <ROCS_RefTverskyCombo>
0.319 

> <ROCS_FitTversky>
1.683 

> <ROCS_FitColorTversky>
0.565 

> <ROCS_FitTverskyCombo>
2.248 

> <ROCS_ColorScore>
-6.059

> <ROCS_Overlap>
1761.822

> <ROCS_Rank>
294                 

$$$$
untitled-dbase-104_1
  -OEChem-02082415003D

 28 30  0     0  0  0  0  0  0999 V2000
   12.0359   11.8148   23.4205 C   0  0  0  0  0  0  0  0  0  0  0  0
   11.1556   10.8101   23.0131 C   0  0  0  0  0  0  0  0  0  0  0  0
   11.5841   12.8833   24.2087 C   0  0  0  0  0  0  0  0  0  0  0  0
    9.3797   11.9601   24.1890 C   0  0  0  0  0  0  0  0  0  0  0  0
    9.8345   10.8822   23.4226 C   0  0  0  0  0  0  0  0  0  0  0  0
   10.2447   12.9650   24.5936 C   0  0  0  0  0  0  0  0  0  0  0  0
    5.7058   12.8512   24.3252 C   0  0  0  0  0  0  0  0  0  0  0  0
    5.9133   12.2157   25.7006 C   0  0  0  0  0  0  0  0  0  0  0  0
    7.0720   12.8503   23.6376 C   0  0  0  0  0  0  0  0  0  0  0  0
    7.4189   12.0267   25.8475 C   0  0  0  0  0  0  0  0  0  0  0  0
    7.6560   10.3644   23.8998 C   0  0  0  0  0  0  0  0  0  0  0  0
    7.9023   11.8192   24.4117 C   0  0  0  0  0  0  0  0  0  0  0  0
    8.8062   10.0083   23.0769 N   0  0  0  0  0  0  0  0  0  0  0  0
    9.8391   14.0003   25.3336 F   0  0  0  0  0  0  0  0  0  0  0  0
   13.0803   11.7703   23.1232 H   0  0  0  0  0  0  0  0  0  0  0  0
   11.5093    9.9893   22.3974 H   0  0  0  0  0  0  0  0  0  0  0  0
   12.2818   13.6574   24.5146 H   0  0  0  0  0  0  0  0  0  0  0  0
    4.9610   12.3054   23.7342 H   0  0  0  0  0  0  0  0  0  0  0  0
    5.3330   13.8771   24.4327 H   0  0  0  0  0  0  0  0  0  0  0  0
    5.5031   12.8479   26.4889 H   0  0  0  0  0  0  0  0  0  0  0  0
    5.4024   11.2525   25.7622 H   0  0  0  0  0  0  0  0  0  0  0  0
    6.9368   12.5313   22.5956 H   0  0  0  0  0  0  0  0  0  0  0  0
    7.5137   13.8532   23.6220 H   0  0  0  0  0  0  0  0  0  0  0  0
    7.8868   12.8717   26.3453 H   0  0  0  0  0  0  0  0  0  0  0  0
    7.6025   11.1309   26.4406 H   0  0  0  0  0  0  0  0  0  0  0  0
    7.6025    9.6652   24.7427 H   0  0  0  0  0  0  0  0  0  0  0  0
    6.7277   10.2715   23.3298 H   0  0  0  0  0  0  0  0  0  0  0  0
    8.9980    9.0544   22.7894 H   0  0  0  0  0  0  0  0  0  0  0  0
  1  2  2  0  0  0  0
  1  3  1  0  0  0  0
  2  5  1  0  0  0  0
  3  6  2  0  0  0  0
  4  5  2  0  0  0  0
  4  6  1  0  0  0  0
  4 12  1  0  0  0  0
  5 13  1  0  0  0  0
  6 14  1  0  0  0  0
  7  8  1  0  0  0  0
  7  9  1  0  0  0  0
  8 10  1  0  0  0  0
  9 12  1  0  0  0  0
 10 12  1  0  0  0  0
 11 12  1  0  0  0  0
 11 13  1  0  0  0  0
  1 15  1  0  0  0  0
  2 16  1  0  0  0  0
  3 17  1  0  0  0  0
  7 18  1  0  0  0  0
  7 19  1  0  0  0  0
  8 20  1  0  0  0  0
  8 21  1  0  0  0  0
  9 22  1  0  0  0  0
  9 23  1  0  0  0  0
 10 24  1  0  0  0  0
 10 25  1  0  0  0  0
 11 26  1  0  0  0  0
 11 27  1  0  0  0  0
 13 28  1  0  0  0  0
M  END
> <Catalog ID>
Z970077630

> <PlateID>
1337959-R-02

> <Well>
H10

> <MW (desalted)>
191.245

> <CLogP>
3.653

> <HBD>
1

> <TPSA>
12.030

> <RotBonds>
0

> <ROCS_ShapeQuery>
x0446_0A_x1080_0A_x0929_0A_x0812_0A_x0719_0A_x1140_0A_x0528_0A_x0310_0A

> <ROCS_TanimotoCombo>
0.309 

> <ROCS_ShapeTanimoto>
0.188 

> <ROCS_ColorTanimoto>
0.120 

> <ROCS_RefTversky>
0.175 

> <ROCS_RefColorTversky>
0.125 

> <ROCS_RefTverskyCombo>
0.300 

> <ROCS_FitTversky>
1.679 

> <ROCS_FitColorTversky>
0.780 

> <ROCS_FitTverskyCombo>
2.459 

> <ROCS_ColorScore>
-4.432

> <ROCS_Overlap>
2063.836

> <ROCS_Rank>
295                 

$$$$
untitled-dbase-636_0
  -OEChem-02082415003D

 25 27  0     1  0  0  0  0  0999 V2000
   11.7102   12.6176   24.2794 C   0  0  0  0  0  0  0  0  0  0  0  0
   10.3317   12.5828   24.5044 C   0  0  0  0  0  0  0  0  0  0  0  0
   12.2917   11.8282   23.2767 C   0  0  0  0  0  0  0  0  0  0  0  0
    9.5506   11.7424   23.7245 C   0  0  0  0  0  0  0  0  0  0  0  0
   10.1379   10.9572   22.7219 C   0  0  0  0  0  0  0  0  0  0  0  0
   11.5025   10.9945   22.4836 C   0  0  0  0  0  0  0  0  0  0  0  0
    6.0675   12.1091   24.8676 C   0  0  0  0  0  0  0  0  0  0  0  0
    7.2987   12.6517   23.0670 C   0  0  0  0  0  0  0  0  0  0  0  0
    9.1066   10.1785   21.9681 C   0  0  0  0  0  0  0  0  0  0  0  0
    7.3987   11.4756   25.1113 C   0  0  0  0  0  0  0  0  0  0  0  0
    7.9168   10.2307   22.9401 C   0  0  0  0  0  0  0  0  0  0  0  0
    8.0615   11.5460   23.7469 C   0  0  2  0  0  0  0  0  0  0  0  0
    5.1012   12.0409   25.6110 O   0  0  0  0  0  0  0  0  0  0  0  0
    7.6357   13.2631   22.0649 O   0  0  0  0  0  0  0  0  0  0  0  0
    6.1134   12.8358   23.7171 O   0  0  0  0  0  0  0  0  0  0  0  0
   12.3154    9.9724   21.1188 Br  0  0  0  0  0  0  0  0  0  0  0  0
   12.3382   13.2679   24.8823 H   0  0  0  0  0  0  0  0  0  0  0  0
    9.8927   13.2113   25.2717 H   0  0  0  0  0  0  0  0  0  0  0  0
   13.3671   11.8866   23.1257 H   0  0  0  0  0  0  0  0  0  0  0  0
    8.8675   10.6793   21.0242 H   0  0  0  0  0  0  0  0  0  0  0  0
    9.4015    9.1423   21.7797 H   0  0  0  0  0  0  0  0  0  0  0  0
    7.9145   12.0651   25.8750 H   0  0  0  0  0  0  0  0  0  0  0  0
    7.2691   10.4504   25.4692 H   0  0  0  0  0  0  0  0  0  0  0  0
    6.9643   10.1500   22.4044 H   0  0  0  0  0  0  0  0  0  0  0  0
    7.9844    9.3640   23.6130 H   0  0  0  0  0  0  0  0  0  0  0  0
  1  2  2  0  0  0  0
  1  3  1  0  0  0  0
  2  4  1  0  0  0  0
  3  6  2  0  0  0  0
  4  5  2  0  0  0  0
  4 12  1  0  0  0  0
  5  6  1  0  0  0  0
  5  9  1  0  0  0  0
  6 16  1  0  0  0  0
  7 10  1  0  0  0  0
  7 13  2  0  0  0  0
  7 15  1  0  0  0  0
  8 12  1  0  0  0  0
  8 14  2  0  0  0  0
  8 15  1  0  0  0  0
  9 11  1  0  0  0  0
 10 12  1  0  0  0  0
 11 12  1  0  0  0  0
  1 17  1  0  0  0  0
  2 18  1  0  0  0  0
  3 19  1  0  0  0  0
  9 20  1  0  0  0  0
  9 21  1  0  0  0  0
 10 22  1  0  0  0  0
 10 23  1  0  0  0  0
 11 24  1  0  0  0  0
 11 25  1  0  0  0  0
M  END
> <Catalog ID>
Z1954187794

> <PlateID>
1337959-R-15

> <Well>
A04

> <MW (desalted)>
281.102

> <CLogP>
2.538

> <HBD>
0

> <TPSA>
43.370

> <RotBonds>
0

> <ROCS_ShapeQuery>
x0446_0A_x1080_0A_x0929_0A_x0812_0A_x0719_0A_x1140_0A_x0528_0A_x0310_0A

> <ROCS_TanimotoCombo>
0.309 

> <ROCS_ShapeTanimoto>
0.193 

> <ROCS_ColorTanimoto>
0.116 

> <ROCS_RefTversky>
0.180 

> <ROCS_RefColorTversky>
0.126 

> <ROCS_RefTverskyCombo>
0.305 

> <ROCS_FitTversky>
1.612 

> <ROCS_FitColorTversky>
0.592 

> <ROCS_FitTverskyCombo>
2.204 

> <ROCS_ColorScore>
-4.484

> <ROCS_Overlap>
2119.469

> <ROCS_Rank>
296                 

$$$$
untitled-dbase-546_60
  -OEChem-02082415003D

 35 36  0     1  0  0  0  0  0999 V2000
   14.2450   16.0116   19.7571 C   0  0  0  0  0  0  0  0  0  0  0  0
   13.3258   16.5797   20.6390 C   0  0  0  0  0  0  0  0  0  0  0  0
   14.0737   14.6974   19.3221 C   0  0  0  0  0  0  0  0  0  0  0  0
   12.2352   15.8337   21.0860 C   0  0  0  0  0  0  0  0  0  0  0  0
   12.9832   13.9513   19.7691 C   0  0  0  0  0  0  0  0  0  0  0  0
   12.0639   14.5194   20.6510 C   0  0  0  0  0  0  0  0  0  0  0  0
    7.7914   10.7212   23.5925 C   0  0  0  0  0  0  0  0  0  0  0  0
    9.7001   14.2674   21.4838 C   0  0  0  0  0  0  0  0  0  0  0  0
    7.7929   12.1966   23.9329 C   0  0  0  0  0  0  0  0  0  0  0  0
   10.2683   10.8362   23.2635 C   0  0  0  0  0  0  0  0  0  0  0  0
   10.1896   12.2787   23.7364 C   0  0  0  0  0  0  0  0  0  0  0  0
   12.8249   12.5459   19.2865 C   0  0  0  0  0  0  0  0  0  0  0  0
    8.7960   13.1325   21.9244 C   0  0  0  0  0  0  0  0  0  0  0  0
    9.0165   10.1220   23.4070 N   0  0  0  0  0  0  0  0  0  0  0  0
    8.9296   12.9201   23.3630 N   0  0  1  0  0  0  0  0  0  0  0  0
   10.9511   13.7790   21.1162 N   0  0  0  0  0  0  0  0  0  0  0  0
    6.7364   10.0841   23.5727 O   0  0  0  0  0  0  0  0  0  0  0  0
    9.3223   15.4345   21.4644 O   0  0  0  0  0  0  0  0  0  0  0  0
   15.0944   16.5919   19.4094 H   0  0  0  0  0  0  0  0  0  0  0  0
   13.4596   17.6029   20.9783 H   0  0  0  0  0  0  0  0  0  0  0  0
   14.7957   14.2638   18.6352 H   0  0  0  0  0  0  0  0  0  0  0  0
   11.5257   16.2879   21.7728 H   0  0  0  0  0  0  0  0  0  0  0  0
    6.8517   12.6197   23.5394 H   0  0  0  0  0  0  0  0  0  0  0  0
    7.7597   12.2871   25.0343 H   0  0  0  0  0  0  0  0  0  0  0  0
   10.5278   10.7957   22.1993 H   0  0  0  0  0  0  0  0  0  0  0  0
   11.0355   10.2850   23.8163 H   0  0  0  0  0  0  0  0  0  0  0  0
   10.3490   12.3259   24.8388 H   0  0  0  0  0  0  0  0  0  0  0  0
   11.0499   12.8299   23.2958 H   0  0  0  0  0  0  0  0  0  0  0  0
   13.3413   11.8533   19.9607 H   0  0  0  0  0  0  0  0  0  0  0  0
   11.7669   12.2619   19.2357 H   0  0  0  0  0  0  0  0  0  0  0  0
   13.2374   12.4255   18.2774 H   0  0  0  0  0  0  0  0  0  0  0  0
    9.0678   12.2153   21.3925 H   0  0  0  0  0  0  0  0  0  0  0  0
    7.7599   13.3879   21.6811 H   0  0  0  0  0  0  0  0  0  0  0  0
    9.0449    9.1055   23.3679 H   0  0  0  0  0  0  0  0  0  0  0  0
   11.0962   12.7739   21.1847 H   0  0  0  0  0  0  0  0  0  0  0  0
  1  2  2  0  0  0  0
  1  3  1  0  0  0  0
  2  4  1  0  0  0  0
  3  5  2  0  0  0  0
  4  6  2  0  0  0  0
  5  6  1  0  0  0  0
  5 12  1  0  0  0  0
  6 16  1  0  0  0  0
  7  9  1  0  0  0  0
  7 14  1  0  0  0  0
  7 17  2  0  0  0  0
  8 13  1  0  0  0  0
  8 16  1  0  0  0  0
  8 18  2  0  0  0  0
  9 15  1  0  0  0  0
 10 11  1  0  0  0  0
 10 14  1  0  0  0  0
 11 15  1  0  0  0  0
 13 15  1  0  0  0  0
  1 19  1  0  0  0  0
  2 20  1  0  0  0  0
  3 21  1  0  0  0  0
  4 22  1  0  0  0  0
  9 23  1  0  0  0  0
  9 24  1  0  0  0  0
 10 25  1  0  0  0  0
 10 26  1  0  0  0  0
 11 27  1  0  0  0  0
 11 28  1  0  0  0  0
 12 29  1  0  0  0  0
 12 30  1  0  0  0  0
 12 31  1  0  0  0  0
 13 32  1  0  0  0  0
 13 33  1  0  0  0  0
 14 34  1  0  0  0  0
 16 35  1  0  0  0  0
M  END
> <Catalog ID>
Z46334819

> <PlateID>
1337959-R-12

> <Well>
H05

> <MW (desalted)>
247.293

> <CLogP>
0.824

> <HBD>
2

> <TPSA>
61.440

> <RotBonds>
3

> <ROCS_ShapeQuery>
x0446_0A_x1080_0A_x0929_0A_x0812_0A_x0719_0A_x1140_0A_x0528_0A_x0310_0A

> <ROCS_TanimotoCombo>
0.309 

> <ROCS_ShapeTanimoto>
0.176 

> <ROCS_ColorTanimoto>
0.133 

> <ROCS_RefTversky>
0.167 

> <ROCS_RefColorTversky>
0.145 

> <ROCS_RefTverskyCombo>
0.312 

> <ROCS_FitTversky>
1.433 

> <ROCS_FitColorTversky>
0.608 

> <ROCS_FitTverskyCombo>
2.041 

> <ROCS_ColorScore>
-5.177

> <ROCS_Overlap>
1970.291

> <ROCS_Rank>
297                 

$$$$
untitled-dbase-655_8
  -OEChem-02082415003D

 20 21  0     0  0  0  0  0  0999 V2000
    9.4357   12.0806   23.7933 C   0  0  0  0  0  0  0  0  0  0  0  0
    8.1484   11.7052   24.1217 C   0  0  0  0  0  0  0  0  0  0  0  0
   10.0666   13.3532   23.7204 C   0  0  0  0  0  0  0  0  0  0  0  0
    5.4657   12.0211   25.8285 C   0  0  0  0  0  0  0  0  0  0  0  0
    5.5347   12.3172   24.3198 C   0  0  0  0  0  0  0  0  0  0  0  0
    6.6458   12.9922   26.0137 C   0  0  0  0  0  0  0  0  0  0  0  0
    7.0139   12.7543   24.5227 C   0  0  0  0  0  0  0  0  0  0  0  0
    7.8953   10.3431   24.0823 N   0  0  0  0  0  0  0  0  0  0  0  0
    8.9716    9.6595   23.7272 N   0  0  0  0  0  0  0  0  0  0  0  0
   11.0623   13.7335   24.3814 O   0  0  0  0  0  0  0  0  0  0  0  0
    9.4830   14.2083   22.8172 O   0  0  0  0  0  0  0  0  0  0  0  0
   10.2980   10.6405   23.4368 S   0  0  0  0  0  0  0  0  0  0  0  0
    4.5350   12.3601   26.3041 H   0  0  0  0  0  0  0  0  0  0  0  0
    5.6509   10.9814   26.1211 H   0  0  0  0  0  0  0  0  0  0  0  0
    5.3956   11.4249   23.6913 H   0  0  0  0  0  0  0  0  0  0  0  0
    4.8525   13.0994   23.9645 H   0  0  0  0  0  0  0  0  0  0  0  0
    6.3687   14.0205   26.2776 H   0  0  0  0  0  0  0  0  0  0  0  0
    7.3930   12.6386   26.7403 H   0  0  0  0  0  0  0  0  0  0  0  0
    7.2229   13.7424   23.9778 H   0  0  0  0  0  0  0  0  0  0  0  0
    9.9115   15.0888   22.7587 H   0  0  0  0  0  0  0  0  0  0  0  0
  1  2  2  0  0  0  0
  1  3  1  0  0  0  0
  1 12  1  0  0  0  0
  2  7  1  0  0  0  0
  2  8  1  0  0  0  0
  3 10  2  0  0  0  0
  3 11  1  0  0  0  0
  4  5  1  0  0  0  0
  4  6  1  0  0  0  0
  5  7  1  0  0  0  0
  6  7  1  0  0  0  0
  8  9  2  0  0  0  0
  9 12  1  0  0  0  0
  4 13  1  0  0  0  0
  4 14  1  0  0  0  0
  5 15  1  0  0  0  0
  5 16  1  0  0  0  0
  6 17  1  0  0  0  0
  6 18  1  0  0  0  0
  7 19  1  0  0  0  0
 11 20  1  0  0  0  0
M  END
> <Catalog ID>
Z1262554666

> <PlateID>
1337959-R-15

> <Well>
C08

> <MW (desalted)>
184.216

> <CLogP>
0.319

> <HBD>
1

> <TPSA>
63.080

> <RotBonds>
2

> <ROCS_ShapeQuery>
x0446_0A_x1080_0A_x0929_0A_x0812_0A_x0719_0A_x1140_0A_x0528_0A_x0310_0A

> <ROCS_TanimotoCombo>
0.308 

> <ROCS_ShapeTanimoto>
0.173 

> <ROCS_ColorTanimoto>
0.135 

> <ROCS_RefTversky>
0.161 

> <ROCS_RefColorTversky>
0.149 

> <ROCS_RefTverskyCombo>
0.310 

> <ROCS_FitTversky>
1.724 

> <ROCS_FitColorTversky>
0.600 

> <ROCS_FitTverskyCombo>
2.324 

> <ROCS_ColorScore>
-5.306

> <ROCS_Overlap>
1903.831

> <ROCS_Rank>
298                 

$$$$
untitled-dbase-239_0
  -OEChem-02082415003D

 24 25  0     1  0  0  0  0  0999 V2000
    7.6806   11.8054   24.4129 C   0  0  0  0  0  0  0  0  0  0  0  0
    8.0066   10.4585   24.5718 C   0  0  0  0  0  0  0  0  0  0  0  0
   10.1515   10.8552   23.5329 C   0  0  0  0  0  0  0  0  0  0  0  0
    8.5900   12.6772   23.8140 C   0  0  0  0  0  0  0  0  0  0  0  0
    9.8254   12.2020   23.3740 C   0  0  0  0  0  0  0  0  0  0  0  0
    9.2420    9.9834   24.1319 C   0  0  0  0  0  0  0  0  0  0  0  0
    7.1236   16.1546   24.0421 C   0  0  0  0  0  0  0  0  0  0  0  0
    7.3376   14.7568   24.6176 C   0  0  0  0  0  0  0  0  0  0  0  0
    6.8533   15.9610   22.5594 C   0  0  0  0  0  0  0  0  0  0  0  0
    8.2480   14.0789   23.6501 N   0  0  2  0  0  0  0  0  0  0  0  0
    9.2040   15.2968   21.5538 O   0  0  0  0  0  0  0  0  0  0  0  0
    7.2408   13.7200   21.2507 O   0  0  0  0  0  0  0  0  0  0  0  0
   10.7065   13.0318   22.7970 F   0  0  0  0  0  0  0  0  0  0  0  0
    7.9852   14.6820   22.0385 S   0  0  0  0  0  0  0  0  0  0  0  0
    9.6838    8.1584   24.3473 Br  0  0  0  0  0  0  0  0  0  0  0  0
    6.7153   12.1657   24.7590 H   0  0  0  0  0  0  0  0  0  0  0  0
    7.2870    9.7923   25.0405 H   0  0  0  0  0  0  0  0  0  0  0  0
   11.1181   10.5010   23.1846 H   0  0  0  0  0  0  0  0  0  0  0  0
    6.3054   16.6812   24.5419 H   0  0  0  0  0  0  0  0  0  0  0  0
    8.0365   16.7488   24.1738 H   0  0  0  0  0  0  0  0  0  0  0  0
    7.8067   14.8120   25.6046 H   0  0  0  0  0  0  0  0  0  0  0  0
    6.3853   14.2199   24.6973 H   0  0  0  0  0  0  0  0  0  0  0  0
    5.8352   15.5975   22.3914 H   0  0  0  0  0  0  0  0  0  0  0  0
    7.0295   16.8676   21.9772 H   0  0  0  0  0  0  0  0  0  0  0  0
  1  2  1  0  0  0  0
  1  4  2  0  0  0  0
  2  6  2  0  0  0  0
  3  5  2  0  0  0  0
  3  6  1  0  0  0  0
  4  5  1  0  0  0  0
  4 10  1  0  0  0  0
  5 13  1  0  0  0  0
  6 15  1  0  0  0  0
  7  8  1  0  0  0  0
  7  9  1  0  0  0  0
  8 10  1  0  0  0  0
  9 14  1  0  0  0  0
 10 14  1  0  0  0  0
 11 14  2  0  0  0  0
 12 14  2  0  0  0  0
  1 16  1  0  0  0  0
  2 17  1  0  0  0  0
  3 18  1  0  0  0  0
  7 19  1  0  0  0  0
  7 20  1  0  0  0  0
  8 21  1  0  0  0  0
  8 22  1  0  0  0  0
  9 23  1  0  0  0  0
  9 24  1  0  0  0  0
M  END
> <Catalog ID>
Z118437284

> <PlateID>
1337959-R-05

> <Well>
G06

> <MW (desalted)>
294.141

> <CLogP>
1.919

> <HBD>
0

> <TPSA>
37.380

> <RotBonds>
1

> <ROCS_ShapeQuery>
x0446_0A_x1080_0A_x0929_0A_x0812_0A_x0719_0A_x1140_0A_x0528_0A_x0310_0A

> <ROCS_TanimotoCombo>
0.308 

> <ROCS_ShapeTanimoto>
0.199 

> <ROCS_ColorTanimoto>
0.110 

> <ROCS_RefTversky>
0.183 

> <ROCS_RefColorTversky>
0.120 

> <ROCS_RefTverskyCombo>
0.303 

> <ROCS_FitTversky>
1.768 

> <ROCS_FitColorTversky>
0.564 

> <ROCS_FitTverskyCombo>
2.332 

> <ROCS_ColorScore>
-4.265

> <ROCS_Overlap>
2159.437

> <ROCS_Rank>
299                 

$$$$
untitled-dbase-423_20
  -OEChem-02082415003D

 37 38  0     1  0  0  0  0  0999 V2000
    9.7527   14.0862   22.2149 C   0  0  0  0  0  0  0  0  0  0  0  0
    6.1183   12.7633   25.9312 C   0  0  0  0  0  0  0  0  0  0  0  0
    5.2675   12.0077   24.9104 C   0  0  0  0  0  0  0  0  0  0  0  0
    7.5706   12.3768   25.6505 C   0  0  0  0  0  0  0  0  0  0  0  0
    6.2307   11.0948   24.1604 C   0  0  0  0  0  0  0  0  0  0  0  0
    8.7788   10.9626   23.8904 C   0  0  0  0  0  0  0  0  0  0  0  0
    9.8513   11.9767   23.5227 C   0  0  0  0  0  0  0  0  0  0  0  0
    7.6826   12.9629   23.1746 C   0  0  0  0  0  0  0  0  0  0  0  0
    7.5634   11.8355   24.2138 C   0  0  0  0  0  0  0  0  0  0  0  0
   13.4475   15.1160   22.5456 C   0  0  0  0  0  0  0  0  0  0  0  0
   11.9314   15.2027   22.6513 C   0  0  0  0  0  0  0  0  0  0  0  0
   11.2508   13.9582   22.1034 C   0  0  2  0  0  0  0  0  0  0  0  0
    9.1183   13.0804   22.9216 N   0  0  0  0  0  0  0  0  0  0  0  0
   11.4859   13.7665   20.7019 N   0  0  0  0  0  0  0  0  0  0  0  0
    9.1673   15.0360   21.6921 O   0  0  0  0  0  0  0  0  0  0  0  0
    5.9741   13.8434   25.8150 H   0  0  0  0  0  0  0  0  0  0  0  0
    5.8382   12.5055   26.9579 H   0  0  0  0  0  0  0  0  0  0  0  0
    4.4623   11.4407   25.3876 H   0  0  0  0  0  0  0  0  0  0  0  0
    4.8024   12.7188   24.2176 H   0  0  0  0  0  0  0  0  0  0  0  0
    8.2477   13.2252   25.7955 H   0  0  0  0  0  0  0  0  0  0  0  0
    7.8731   11.5912   26.3545 H   0  0  0  0  0  0  0  0  0  0  0  0
    6.3068   10.1332   24.6836 H   0  0  0  0  0  0  0  0  0  0  0  0
    5.8880   10.8913   23.1410 H   0  0  0  0  0  0  0  0  0  0  0  0
    8.5682   10.3175   23.0281 H   0  0  0  0  0  0  0  0  0  0  0  0
    9.0879   10.3244   24.7238 H   0  0  0  0  0  0  0  0  0  0  0  0
   10.3678   12.3609   24.4091 H   0  0  0  0  0  0  0  0  0  0  0  0
   10.5964   11.5791   22.8268 H   0  0  0  0  0  0  0  0  0  0  0  0
    7.2086   12.6942   22.2237 H   0  0  0  0  0  0  0  0  0  0  0  0
    7.2757   13.9212   23.5108 H   0  0  0  0  0  0  0  0  0  0  0  0
   13.8286   14.2440   23.0866 H   0  0  0  0  0  0  0  0  0  0  0  0
   13.7473   15.0215   21.4969 H   0  0  0  0  0  0  0  0  0  0  0  0
   13.9273   16.0115   22.9528 H   0  0  0  0  0  0  0  0  0  0  0  0
   11.5909   16.0868   22.0980 H   0  0  0  0  0  0  0  0  0  0  0  0
   11.6548   15.3653   23.7009 H   0  0  0  0  0  0  0  0  0  0  0  0
   11.5497   13.0539   22.6343 H   0  0  0  0  0  0  0  0  0  0  0  0
   10.6242   13.8562   20.2002 H   0  0  0  0  0  0  0  0  0  0  0  0
   12.1337   14.4547   20.3721 H   0  0  0  0  0  0  0  0  0  0  0  0
  1 12  1  0  0  0  0
  1 13  1  0  0  0  0
  1 15  2  0  0  0  0
  2  3  1  0  0  0  0
  2  4  1  0  0  0  0
  3  5  1  0  0  0  0
  4  9  1  0  0  0  0
  5  9  1  0  0  0  0
  6  7  1  0  0  0  0
  6  9  1  0  0  0  0
  7 13  1  0  0  0  0
  8  9  1  0  0  0  0
  8 13  1  0  0  0  0
 10 11  1  0  0  0  0
 11 12  1  0  0  0  0
 12 14  1  6  0  0  0
  2 16  1  0  0  0  0
  2 17  1  0  0  0  0
  3 18  1  0  0  0  0
  3 19  1  0  0  0  0
  4 20  1  0  0  0  0
  4 21  1  0  0  0  0
  5 22  1  0  0  0  0
  5 23  1  0  0  0  0
  6 24  1  0  0  0  0
  6 25  1  0  0  0  0
  7 26  1  0  0  0  0
  7 27  1  0  0  0  0
  8 28  1  0  0  0  0
  8 29  1  0  0  0  0
 10 30  1  0  0  0  0
 10 31  1  0  0  0  0
 10 32  1  0  0  0  0
 11 33  1  0  0  0  0
 11 34  1  0  0  0  0
 12 35  1  0  0  0  0
 14 36  1  0  0  0  0
 14 37  1  0  0  0  0
M  END
> <Catalog ID>
Z1450337397

> <PlateID>
1337959-R-10

> <Well>
A02

> <MW (desalted)>
210.316

> <CLogP>
1.450

> <HBD>
1

> <TPSA>
46.330

> <RotBonds>
2

> <ROCS_ShapeQuery>
x0446_0A_x1080_0A_x0929_0A_x0812_0A_x0719_0A_x1140_0A_x0528_0A_x0310_0A

> <ROCS_TanimotoCombo>
0.308 

> <ROCS_ShapeTanimoto>
0.190 

> <ROCS_ColorTanimoto>
0.118 

> <ROCS_RefTversky>
0.176 

> <ROCS_RefColorTversky>
0.128 

> <ROCS_RefTverskyCombo>
0.305 

> <ROCS_FitTversky>
1.686 

> <ROCS_FitColorTversky>
0.605 

> <ROCS_FitTverskyCombo>
2.291 

> <ROCS_ColorScore>
-4.574

> <ROCS_Overlap>
2079.196

> <ROCS_Rank>
300                 

$$$$
untitled-dbase-348_6
  -OEChem-02082415003D

 34 34  0     0  0  0  0  0  0999 V2000
    8.6101   12.9270   24.6130 C   0  0  0  0  0  0  0  0  0  0  0  0
    8.4453   10.5142   23.9326 C   0  0  0  0  0  0  0  0  0  0  0  0
   10.0805   11.9588   23.1588 C   0  0  0  0  0  0  0  0  0  0  0  0
    7.7859   11.6784   24.6149 C   0  0  0  0  0  0  0  0  0  0  0  0
    6.8292   13.7152   26.1422 C   0  0  0  0  0  0  0  0  0  0  0  0
    7.9006   15.3065   24.5252 C   0  0  0  0  0  0  0  0  0  0  0  0
    9.2038   14.4491   26.4848 C   0  0  0  0  0  0  0  0  0  0  0  0
   11.6275   10.9596   21.4974 C   0  0  0  0  0  0  0  0  0  0  0  0
   12.4543   12.6608   23.1600 C   0  0  0  0  0  0  0  0  0  0  0  0
    8.1391   14.0927   25.4362 C   0  0  0  0  0  0  0  0  0  0  0  0
   11.2805   12.2179   22.2902 C   0  0  0  0  0  0  0  0  0  0  0  0
    9.6903   13.0357   23.9129 N   0  0  0  0  0  0  0  0  0  0  0  0
    9.5359   10.7843   23.1436 N   0  0  0  0  0  0  0  0  0  0  0  0
   10.8948   13.3022   21.3903 N   0  0  0  0  0  0  0  0  0  0  0  0
    7.9776    9.3839   24.0603 O   0  0  0  0  0  0  0  0  0  0  0  0
    7.5812   11.4011   25.6541 H   0  0  0  0  0  0  0  0  0  0  0  0
    6.8389   11.8888   24.1078 H   0  0  0  0  0  0  0  0  0  0  0  0
    6.4527   14.5430   26.7547 H   0  0  0  0  0  0  0  0  0  0  0  0
    6.0483   13.4576   25.4175 H   0  0  0  0  0  0  0  0  0  0  0  0
    6.9663   12.8508   26.8026 H   0  0  0  0  0  0  0  0  0  0  0  0
    7.5554   16.1753   25.0981 H   0  0  0  0  0  0  0  0  0  0  0  0
    7.1426   15.0900   23.7631 H   0  0  0  0  0  0  0  0  0  0  0  0
    8.8202   15.5986   24.0051 H   0  0  0  0  0  0  0  0  0  0  0  0
    8.8869   15.2983   27.1018 H   0  0  0  0  0  0  0  0  0  0  0  0
   10.1557   14.7200   26.0127 H   0  0  0  0  0  0  0  0  0  0  0  0
    9.3972   13.6048   27.1564 H   0  0  0  0  0  0  0  0  0  0  0  0
   12.5006   11.1161   20.8524 H   0  0  0  0  0  0  0  0  0  0  0  0
   11.8482   10.1167   22.1622 H   0  0  0  0  0  0  0  0  0  0  0  0
   10.7971   10.6651   20.8452 H   0  0  0  0  0  0  0  0  0  0  0  0
   13.3477   12.8585   22.5565 H   0  0  0  0  0  0  0  0  0  0  0  0
   12.2195   13.5732   23.7214 H   0  0  0  0  0  0  0  0  0  0  0  0
   12.7105   11.8897   23.8960 H   0  0  0  0  0  0  0  0  0  0  0  0
   11.5133   14.0638   21.5394 H   0  0  0  0  0  0  0  0  0  0  0  0
   10.9651   12.9703   20.4577 H   0  0  0  0  0  0  0  0  0  0  0  0
  1  4  1  0  0  0  0
  1 10  1  0  0  0  0
  1 12  2  0  0  0  0
  2  4  1  0  0  0  0
  2 13  1  0  0  0  0
  2 15  2  0  0  0  0
  3 11  1  0  0  0  0
  3 12  1  0  0  0  0
  3 13  2  0  0  0  0
  5 10  1  0  0  0  0
  6 10  1  0  0  0  0
  7 10  1  0  0  0  0
  8 11  1  0  0  0  0
  9 11  1  0  0  0  0
 11 14  1  0  0  0  0
  4 16  1  0  0  0  0
  4 17  1  0  0  0  0
  5 18  1  0  0  0  0
  5 19  1  0  0  0  0
  5 20  1  0  0  0  0
  6 21  1  0  0  0  0
  6 22  1  0  0  0  0
  6 23  1  0  0  0  0
  7 24  1  0  0  0  0
  7 25  1  0  0  0  0
  7 26  1  0  0  0  0
  8 27  1  0  0  0  0
  8 28  1  0  0  0  0
  8 29  1  0  0  0  0
  9 30  1  0  0  0  0
  9 31  1  0  0  0  0
  9 32  1  0  0  0  0
 14 33  1  0  0  0  0
 14 34  1  0  0  0  0
M  END
> <Catalog ID>
Z1258850794

> <PlateID>
1337959-R-08

> <Well>
E04

> <MW (desalted)>
209.288

> <CLogP>
0.197

> <HBD>
2

> <TPSA>
67.480

> <RotBonds>
2

> <ROCS_ShapeQuery>
x0446_0A_x1080_0A_x0929_0A_x0812_0A_x0719_0A_x1140_0A_x0528_0A_x0310_0A

> <ROCS_TanimotoCombo>
0.308 

> <ROCS_ShapeTanimoto>
0.186 

> <ROCS_ColorTanimoto>
0.122 

> <ROCS_RefTversky>
0.173 

> <ROCS_RefColorTversky>
0.137 

> <ROCS_RefTverskyCombo>
0.311 

> <ROCS_FitTversky>
1.654 

> <ROCS_FitColorTversky>
0.519 

> <ROCS_FitTverskyCombo>
2.173 

> <ROCS_ColorScore>
-4.912

> <ROCS_Overlap>
2045.739

> <ROCS_Rank>
301                 

$$$$
untitled-dbase-271_9
  -OEChem-02082415003D

 28 29  0     0  0  0  0  0  0999 V2000
    9.5103   10.2532   23.7792 C   0  0  0  0  0  0  0  0  0  0  0  0
    8.3252   12.0568   23.3582 C   0  0  0  0  0  0  0  0  0  0  0  0
    9.5823   11.5297   23.1902 C   0  0  0  0  0  0  0  0  0  0  0  0
   10.3176   14.4979   23.0682 C   0  0  0  0  0  0  0  0  0  0  0  0
    9.6131   13.5241   20.8648 C   0  0  0  0  0  0  0  0  0  0  0  0
   10.1506   15.8728   22.4338 C   0  0  0  0  0  0  0  0  0  0  0  0
    9.4872   14.9535   20.3533 C   0  0  0  0  0  0  0  0  0  0  0  0
   10.6314   13.4466   22.0033 C   0  0  0  0  0  0  0  0  0  0  0  0
    6.2219   11.1959   24.4147 C   0  0  0  0  0  0  0  0  0  0  0  0
    8.3030    9.9855   24.2839 N   0  0  0  0  0  0  0  0  0  0  0  0
    7.6048   11.1013   24.0126 N   0  0  0  0  0  0  0  0  0  0  0  0
   10.6689   12.1255   22.5792 N   0  0  0  0  0  0  0  0  0  0  0  0
    9.1492   15.8433   21.4169 O   0  0  0  0  0  0  0  0  0  0  0  0
   10.2849    9.5039   23.8631 H   0  0  0  0  0  0  0  0  0  0  0  0
    7.8915   13.0068   23.0761 H   0  0  0  0  0  0  0  0  0  0  0  0
   11.1622   14.5367   23.7630 H   0  0  0  0  0  0  0  0  0  0  0  0
    9.4309   14.2280   23.6454 H   0  0  0  0  0  0  0  0  0  0  0  0
    8.6412   13.1354   21.1717 H   0  0  0  0  0  0  0  0  0  0  0  0
    9.9758   12.8953   20.0471 H   0  0  0  0  0  0  0  0  0  0  0  0
    9.8936   16.6357   23.1785 H   0  0  0  0  0  0  0  0  0  0  0  0
   11.0907   16.1797   21.9634 H   0  0  0  0  0  0  0  0  0  0  0  0
   10.4439   15.2835   19.9362 H   0  0  0  0  0  0  0  0  0  0  0  0
    8.7374   15.0339   19.5581 H   0  0  0  0  0  0  0  0  0  0  0  0
   11.6408   13.6568   21.5884 H   0  0  0  0  0  0  0  0  0  0  0  0
    5.6058   10.8142   23.5963 H   0  0  0  0  0  0  0  0  0  0  0  0
    6.0646   10.6034   25.3202 H   0  0  0  0  0  0  0  0  0  0  0  0
    5.9771   12.2411   24.6236 H   0  0  0  0  0  0  0  0  0  0  0  0
   11.5393   11.6149   22.5277 H   0  0  0  0  0  0  0  0  0  0  0  0
  1  3  1  0  0  0  0
  1 10  2  0  0  0  0
  2  3  2  0  0  0  0
  2 11  1  0  0  0  0
  3 12  1  0  0  0  0
  4  6  1  0  0  0  0
  4  8  1  0  0  0  0
  5  7  1  0  0  0  0
  5  8  1  0  0  0  0
  6 13  1  0  0  0  0
  7 13  1  0  0  0  0
  8 12  1  0  0  0  0
  9 11  1  0  0  0  0
 10 11  1  0  0  0  0
  1 14  1  0  0  0  0
  2 15  1  0  0  0  0
  4 16  1  0  0  0  0
  4 17  1  0  0  0  0
  5 18  1  0  0  0  0
  5 19  1  0  0  0  0
  6 20  1  0  0  0  0
  6 21  1  0  0  0  0
  7 22  1  0  0  0  0
  7 23  1  0  0  0  0
  8 24  1  0  0  0  0
  9 25  1  0  0  0  0
  9 26  1  0  0  0  0
  9 27  1  0  0  0  0
 12 28  1  0  0  0  0
M  END
> <Catalog ID>
Z440604314

> <PlateID>
1337959-R-06

> <Well>
F03

> <MW (desalted)>
181.235

> <CLogP>
-0.135

> <HBD>
1

> <TPSA>
39.080

> <RotBonds>
2

> <ROCS_ShapeQuery>
x0446_0A_x1080_0A_x0929_0A_x0812_0A_x0719_0A_x1140_0A_x0528_0A_x0310_0A

> <ROCS_TanimotoCombo>
0.308 

> <ROCS_ShapeTanimoto>
0.174 

> <ROCS_ColorTanimoto>
0.134 

> <ROCS_RefTversky>
0.163 

> <ROCS_RefColorTversky>
0.140 

> <ROCS_RefTverskyCombo>
0.303 

> <ROCS_FitTversky>
1.649 

> <ROCS_FitColorTversky>
0.755 

> <ROCS_FitTverskyCombo>
2.404 

> <ROCS_ColorScore>
-4.989

> <ROCS_Overlap>
1920.582

> <ROCS_Rank>
302                 

$$$$
untitled-dbase-25_5
  -OEChem-02082415003D

 22 22  0     0  0  0  0  0  0999 V2000
    8.7988   10.0237   23.9549 C   0  0  0  0  0  0  0  0  0  0  0  0
    9.4484   11.0675   23.2962 C   0  0  0  0  0  0  0  0  0  0  0  0
    7.6346   10.2745   24.6812 C   0  0  0  0  0  0  0  0  0  0  0  0
    8.9339   12.3623   23.3638 C   0  0  0  0  0  0  0  0  0  0  0  0
    7.1201   11.5692   24.7488 C   0  0  0  0  0  0  0  0  0  0  0  0
    7.7697   12.6131   24.0901 C   0  0  0  0  0  0  0  0  0  0  0  0
    8.7054   14.1666   21.6877 C   0  0  0  0  0  0  0  0  0  0  0  0
    4.7458   11.7050   24.7560 C   0  0  0  0  0  0  0  0  0  0  0  0
    9.6303   13.4766   22.6584 C   0  0  0  0  0  0  0  0  0  0  0  0
    7.8293   13.5930   21.0528 O   0  0  0  0  0  0  0  0  0  0  0  0
    8.9666   15.4921   21.5639 O   0  0  0  0  0  0  0  0  0  0  0  0
    5.9837   11.8120   25.4573 O   0  0  0  0  0  0  0  0  0  0  0  0
    7.2726   13.8569   24.1562 F   0  0  0  0  0  0  0  0  0  0  0  0
    9.1994    9.0155   23.9022 H   0  0  0  0  0  0  0  0  0  0  0  0
   10.3548   10.8627   22.7331 H   0  0  0  0  0  0  0  0  0  0  0  0
    7.1334    9.4570   25.1921 H   0  0  0  0  0  0  0  0  0  0  0  0
    3.9200   11.9235   25.4375 H   0  0  0  0  0  0  0  0  0  0  0  0
    4.6412   10.6950   24.3517 H   0  0  0  0  0  0  0  0  0  0  0  0
    4.7386   12.4264   23.9355 H   0  0  0  0  0  0  0  0  0  0  0  0
   10.5277   13.1300   22.1310 H   0  0  0  0  0  0  0  0  0  0  0  0
    9.9916   14.2308   23.3695 H   0  0  0  0  0  0  0  0  0  0  0  0
    8.4009   15.9732   20.9229 H   0  0  0  0  0  0  0  0  0  0  0  0
  1  2  2  0  0  0  0
  1  3  1  0  0  0  0
  2  4  1  0  0  0  0
  3  5  2  0  0  0  0
  4  6  2  0  0  0  0
  4  9  1  0  0  0  0
  5  6  1  0  0  0  0
  5 12  1  0  0  0  0
  6 13  1  0  0  0  0
  7  9  1  0  0  0  0
  7 10  2  0  0  0  0
  7 11  1  0  0  0  0
  8 12  1  0  0  0  0
  1 14  1  0  0  0  0
  2 15  1  0  0  0  0
  3 16  1  0  0  0  0
  8 17  1  0  0  0  0
  8 18  1  0  0  0  0
  8 19  1  0  0  0  0
  9 20  1  0  0  0  0
  9 21  1  0  0  0  0
 11 22  1  0  0  0  0
M  END
> <Catalog ID>
Z1255379726

> <PlateID>
1337959-R-01

> <Well>
D05

> <MW (desalted)>
184.164

> <CLogP>
1.416

> <HBD>
1

> <TPSA>
46.530

> <RotBonds>
3

> <ROCS_ShapeQuery>
x0446_0A_x1080_0A_x0929_0A_x0812_0A_x0719_0A_x1140_0A_x0528_0A_x0310_0A

> <ROCS_TanimotoCombo>
0.308 

> <ROCS_ShapeTanimoto>
0.185 

> <ROCS_ColorTanimoto>
0.123 

> <ROCS_RefTversky>
0.172 

> <ROCS_RefColorTversky>
0.130 

> <ROCS_RefTverskyCombo>
0.301 

> <ROCS_FitTversky>
1.746 

> <ROCS_FitColorTversky>
0.697 

> <ROCS_FitTverskyCombo>
2.443 

> <ROCS_ColorScore>
-4.612

> <ROCS_Overlap>
2025.343

> <ROCS_Rank>
303                 

$$$$
untitled-dbase-46_6
  -OEChem-02082415003D

 23 23  0     0  0  0  0  0  0999 V2000
    7.6438   10.9901   24.6766 C   0  0  0  0  0  0  0  0  0  0  0  0
    8.4535    9.9464   24.2287 C   0  0  0  0  0  0  0  0  0  0  0  0
    7.9942   12.3120   24.4019 C   0  0  0  0  0  0  0  0  0  0  0  0
    9.9643   11.5466   23.2315 C   0  0  0  0  0  0  0  0  0  0  0  0
    9.6138   10.2247   23.5062 C   0  0  0  0  0  0  0  0  0  0  0  0
    9.1545   12.5902   23.6794 C   0  0  0  0  0  0  0  0  0  0  0  0
   10.4783    9.1081   23.0264 C   0  0  0  0  0  0  0  0  0  0  0  0
    9.5295   14.0039   23.3864 C   0  0  0  0  0  0  0  0  0  0  0  0
   10.5942   13.5988   20.9877 N   0  0  0  0  0  0  0  0  0  0  0  0
    8.0408   13.5321   21.2915 O   0  0  0  0  0  0  0  0  0  0  0  0
    9.2529   15.7432   21.4561 O   0  0  0  0  0  0  0  0  0  0  0  0
    9.2064   14.3081   21.6794 S   0  0  0  0  0  0  0  0  0  0  0  0
    6.7402   10.7734   25.2391 H   0  0  0  0  0  0  0  0  0  0  0  0
    8.1721    8.9195   24.4470 H   0  0  0  0  0  0  0  0  0  0  0  0
    7.3577   13.1189   24.7555 H   0  0  0  0  0  0  0  0  0  0  0  0
   10.8682   11.7641   22.6675 H   0  0  0  0  0  0  0  0  0  0  0  0
   10.1633    8.7834   22.0271 H   0  0  0  0  0  0  0  0  0  0  0  0
   11.5318    9.4127   22.9772 H   0  0  0  0  0  0  0  0  0  0  0  0
   10.4283    8.2460   23.7043 H   0  0  0  0  0  0  0  0  0  0  0  0
   10.5925   14.1984   23.5683 H   0  0  0  0  0  0  0  0  0  0  0  0
    8.9430   14.7199   23.9733 H   0  0  0  0  0  0  0  0  0  0  0  0
   11.4926   14.0799   21.1183 H   0  0  0  0  0  0  0  0  0  0  0  0
   10.6668   12.5741   21.0061 H   0  0  0  0  0  0  0  0  0  0  0  0
  1  2  1  0  0  0  0
  1  3  2  0  0  0  0
  2  5  2  0  0  0  0
  3  6  1  0  0  0  0
  4  5  1  0  0  0  0
  4  6  2  0  0  0  0
  5  7  1  0  0  0  0
  6  8  1  0  0  0  0
  8 12  1  0  0  0  0
  9 12  1  0  0  0  0
 10 12  2  0  0  0  0
 11 12  2  0  0  0  0
  1 13  1  0  0  0  0
  2 14  1  0  0  0  0
  3 15  1  0  0  0  0
  4 16  1  0  0  0  0
  7 17  1  0  0  0  0
  7 18  1  0  0  0  0
  7 19  1  0  0  0  0
  8 20  1  0  0  0  0
  8 21  1  0  0  0  0
  9 22  1  0  0  0  0
  9 23  1  0  0  0  0
M  END
> <Catalog ID>
Z274590020

> <PlateID>
1337959-R-01

> <Well>
G08

> <MW (desalted)>
185.243

> <CLogP>
0.773

> <HBD>
1

> <TPSA>
60.160

> <RotBonds>
2

> <ROCS_ShapeQuery>
x0446_0A_x1080_0A_x0929_0A_x0812_0A_x0719_0A_x1140_0A_x0528_0A_x0310_0A

> <ROCS_TanimotoCombo>
0.308 

> <ROCS_ShapeTanimoto>
0.179 

> <ROCS_ColorTanimoto>
0.129 

> <ROCS_RefTversky>
0.166 

> <ROCS_RefColorTversky>
0.132 

> <ROCS_RefTverskyCombo>
0.298 

> <ROCS_FitTversky>
1.800 

> <ROCS_FitColorTversky>
0.829 

> <ROCS_FitTverskyCombo>
2.630 

> <ROCS_ColorScore>
-4.697

> <ROCS_Overlap>
1957.894

> <ROCS_Rank>
304                 

$$$$
untitled-dbase-542_20
  -OEChem-02082415003D

 37 38  0     1  0  0  0  0  0999 V2000
    8.3877   10.5061   24.9330 C   0  0  0  0  0  0  0  0  0  0  0  0
    9.5932   10.1827   24.3104 C   0  0  0  0  0  0  0  0  0  0  0  0
    8.1749   12.4484   23.5119 C   0  0  0  0  0  0  0  0  0  0  0  0
    7.6785   11.6390   24.5337 C   0  0  0  0  0  0  0  0  0  0  0  0
   10.0896   10.9921   23.2885 C   0  0  0  0  0  0  0  0  0  0  0  0
    9.3805   12.1249   22.8893 C   0  0  0  0  0  0  0  0  0  0  0  0
   12.5813   15.5225   21.7466 C   0  0  0  0  0  0  0  0  0  0  0  0
   11.9465   15.7601   23.1126 C   0  0  0  0  0  0  0  0  0  0  0  0
   11.8099   14.3575   21.1374 C   0  0  0  0  0  0  0  0  0  0  0  0
   10.6264   14.9933   23.0730 C   0  0  1  0  0  0  0  0  0  0  0  0
    6.3899   11.9849   25.1999 C   0  0  0  0  0  0  0  0  0  0  0  0
   11.3831   10.6262   22.6375 C   0  0  0  0  0  0  0  0  0  0  0  0
    9.8952   13.0111   21.7921 C   0  0  0  0  0  0  0  0  0  0  0  0
    9.4856   15.8687   22.5448 C   0  0  0  0  0  0  0  0  0  0  0  0
   10.9973   13.8448   22.2388 N   0  0  1  0  0  0  0  0  0  0  0  0
    9.8150   16.3011   21.2366 O   0  0  0  0  0  0  0  0  0  0  0  0
    8.0088    9.8700   25.7286 H   0  0  0  0  0  0  0  0  0  0  0  0
   10.1387    9.2982   24.6292 H   0  0  0  0  0  0  0  0  0  0  0  0
    7.6210   13.3310   23.2007 H   0  0  0  0  0  0  0  0  0  0  0  0
   12.4750   16.4215   21.1271 H   0  0  0  0  0  0  0  0  0  0  0  0
   13.6502   15.2973   21.8268 H   0  0  0  0  0  0  0  0  0  0  0  0
   12.5919   15.3948   23.9171 H   0  0  0  0  0  0  0  0  0  0  0  0
   11.7979   16.8348   23.2650 H   0  0  0  0  0  0  0  0  0  0  0  0
   11.1952   14.6870   20.2881 H   0  0  0  0  0  0  0  0  0  0  0  0
   12.5204   13.6004   20.7684 H   0  0  0  0  0  0  0  0  0  0  0  0
   10.3921   14.6678   24.1006 H   0  0  0  0  0  0  0  0  0  0  0  0
    6.5692   12.6367   26.0636 H   0  0  0  0  0  0  0  0  0  0  0  0
    5.7103   12.5013   24.5095 H   0  0  0  0  0  0  0  0  0  0  0  0
    5.8661   11.0843   25.5464 H   0  0  0  0  0  0  0  0  0  0  0  0
   11.2035    9.9695   21.7784 H   0  0  0  0  0  0  0  0  0  0  0  0
   11.9181   11.5185   22.2898 H   0  0  0  0  0  0  0  0  0  0  0  0
   12.0480   10.1089   23.3402 H   0  0  0  0  0  0  0  0  0  0  0  0
   10.2473   12.4121   20.9451 H   0  0  0  0  0  0  0  0  0  0  0  0
    9.1062   13.6717   21.4176 H   0  0  0  0  0  0  0  0  0  0  0  0
    9.3537   16.7396   23.1881 H   0  0  0  0  0  0  0  0  0  0  0  0
    8.5585   15.2950   22.5104 H   0  0  0  0  0  0  0  0  0  0  0  0
    9.0777   16.8529   20.9250 H   0  0  0  0  0  0  0  0  0  0  0  0
  1  2  1  0  0  0  0
  1  4  2  0  0  0  0
  2  5  2  0  0  0  0
  3  4  1  0  0  0  0
  3  6  2  0  0  0  0
  4 11  1  0  0  0  0
  5  6  1  0  0  0  0
  5 12  1  0  0  0  0
  6 13  1  0  0  0  0
  7  8  1  0  0  0  0
  7  9  1  0  0  0  0
  8 10  1  0  0  0  0
  9 15  1  0  0  0  0
 10 14  1  1  0  0  0
 10 15  1  0  0  0  0
 13 15  1  0  0  0  0
 14 16  1  0  0  0  0
  1 17  1  0  0  0  0
  2 18  1  0  0  0  0
  3 19  1  0  0  0  0
  7 20  1  0  0  0  0
  7 21  1  0  0  0  0
  8 22  1  0  0  0  0
  8 23  1  0  0  0  0
  9 24  1  0  0  0  0
  9 25  1  0  0  0  0
 10 26  1  0  0  0  0
 11 27  1  0  0  0  0
 11 28  1  0  0  0  0
 11 29  1  0  0  0  0
 12 30  1  0  0  0  0
 12 31  1  0  0  0  0
 12 32  1  0  0  0  0
 13 33  1  0  0  0  0
 13 34  1  0  0  0  0
 14 35  1  0  0  0  0
 14 36  1  0  0  0  0
 16 37  1  0  0  0  0
M  END
> <Catalog ID>
Z1130245890

> <PlateID>
1337959-R-12

> <Well>
G07

> <MW (desalted)>
219.323

> <CLogP>
2.923

> <HBD>
1

> <TPSA>
23.470

> <RotBonds>
3

> <ROCS_ShapeQuery>
x0446_0A_x1080_0A_x0929_0A_x0812_0A_x0719_0A_x1140_0A_x0528_0A_x0310_0A

> <ROCS_TanimotoCombo>
0.308 

> <ROCS_ShapeTanimoto>
0.206 

> <ROCS_ColorTanimoto>
0.102 

> <ROCS_RefTversky>
0.189 

> <ROCS_RefColorTversky>
0.110 

> <ROCS_RefTverskyCombo>
0.299 

> <ROCS_FitTversky>
1.750 

> <ROCS_FitColorTversky>
0.590 

> <ROCS_FitTverskyCombo>
2.341 

> <ROCS_ColorScore>
-3.902

> <ROCS_Overlap>
2234.030

> <ROCS_Rank>
305                 

$$$$
untitled-dbase-234_3
  -OEChem-02082415003D

 21 22  0     0  0  0  0  0  0999 V2000
    7.6259   11.3132   25.2334 C   0  0  0  0  0  0  0  0  0  0  0  0
    8.1702   12.4792   24.7065 C   0  0  0  0  0  0  0  0  0  0  0  0
    7.9378   10.1140   24.6132 C   0  0  0  0  0  0  0  0  0  0  0  0
    9.2485   11.1630   23.0448 C   0  0  0  0  0  0  0  0  0  0  0  0
    8.9979   12.4113   23.5914 C   0  0  0  0  0  0  0  0  0  0  0  0
    8.7999   14.3103   21.9565 C   0  0  0  0  0  0  0  0  0  0  0  0
   11.1106   13.6982   22.8690 C   0  0  0  0  0  0  0  0  0  0  0  0
   10.4348   14.5274   23.9125 C   0  0  0  0  0  0  0  0  0  0  0  0
    9.5958   13.6398   23.0044 C   0  0  0  0  0  0  0  0  0  0  0  0
    8.7379   10.0085   23.5286 N   0  0  0  0  0  0  0  0  0  0  0  0
    9.1323   15.3270   21.3654 O   0  0  0  0  0  0  0  0  0  0  0  0
    7.6400   13.6444   21.7366 O   0  0  0  0  0  0  0  0  0  0  0  0
    6.9778   11.3420   26.1017 H   0  0  0  0  0  0  0  0  0  0  0  0
    7.9437   13.4353   25.1706 H   0  0  0  0  0  0  0  0  0  0  0  0
    7.5385    9.1761   24.9854 H   0  0  0  0  0  0  0  0  0  0  0  0
    9.8867   11.0478   22.1739 H   0  0  0  0  0  0  0  0  0  0  0  0
   11.5344   14.2129   22.0143 H   0  0  0  0  0  0  0  0  0  0  0  0
   11.6967   12.8497   23.2027 H   0  0  0  0  0  0  0  0  0  0  0  0
   10.5663   14.2366   24.9488 H   0  0  0  0  0  0  0  0  0  0  0  0
   10.4041   15.6002   23.7602 H   0  0  0  0  0  0  0  0  0  0  0  0
    7.0954   14.0758   21.0441 H   0  0  0  0  0  0  0  0  0  0  0  0
  1  2  1  0  0  0  0
  1  3  2  0  0  0  0
  2  5  2  0  0  0  0
  3 10  1  0  0  0  0
  4  5  1  0  0  0  0
  4 10  2  0  0  0  0
  5  9  1  0  0  0  0
  6  9  1  0  0  0  0
  6 11  2  0  0  0  0
  6 12  1  0  0  0  0
  7  8  1  0  0  0  0
  7  9  1  0  0  0  0
  8  9  1  0  0  0  0
  1 13  1  0  0  0  0
  2 14  1  0  0  0  0
  3 15  1  0  0  0  0
  4 16  1  0  0  0  0
  7 17  1  0  0  0  0
  7 18  1  0  0  0  0
  8 19  1  0  0  0  0
  8 20  1  0  0  0  0
 12 21  1  0  0  0  0
M  END
> <Catalog ID>
Z1966486321

> <PlateID>
1337959-R-05

> <Well>
F09

> <MW (desalted)>
163.173

> <CLogP>
0.261

> <HBD>
1

> <TPSA>
50.190

> <RotBonds>
2

> <ROCS_ShapeQuery>
x0446_0A_x1080_0A_x0929_0A_x0812_0A_x0719_0A_x1140_0A_x0528_0A_x0310_0A

> <ROCS_TanimotoCombo>
0.308 

> <ROCS_ShapeTanimoto>
0.181 

> <ROCS_ColorTanimoto>
0.127 

> <ROCS_RefTversky>
0.168 

> <ROCS_RefColorTversky>
0.133 

> <ROCS_RefTverskyCombo>
0.301 

> <ROCS_FitTversky>
1.760 

> <ROCS_FitColorTversky>
0.717 

> <ROCS_FitTverskyCombo>
2.477 

> <ROCS_ColorScore>
-4.744

> <ROCS_Overlap>
1981.444

> <ROCS_Rank>
306                 

$$$$
untitled-dbase-165_0
  -OEChem-02082415003D

 32 34  0     0  0  0  0  0  0999 V2000
    5.3472   12.1219   24.8376 C   0  0  0  0  0  0  0  0  0  0  0  0
    5.5553   13.0434   23.8173 C   0  0  0  0  0  0  0  0  0  0  0  0
    6.4019   11.3262   25.2778 C   0  0  0  0  0  0  0  0  0  0  0  0
    6.8203   13.1762   23.2421 C   0  0  0  0  0  0  0  0  0  0  0  0
    7.6726   11.4437   24.6953 C   0  0  0  0  0  0  0  0  0  0  0  0
    7.9019   12.3909   23.6785 C   0  0  0  0  0  0  0  0  0  0  0  0
    8.7993   10.5849   25.1980 C   0  0  0  0  0  0  0  0  0  0  0  0
    9.2787   12.1281   21.5589 C   0  0  0  0  0  0  0  0  0  0  0  0
    9.7995   13.9947   23.1521 C   0  0  0  0  0  0  0  0  0  0  0  0
   10.6295   12.3864   20.8854 C   0  0  0  0  0  0  0  0  0  0  0  0
   11.1295   14.1915   22.4159 C   0  0  0  0  0  0  0  0  0  0  0  0
    9.8677   10.4508   24.1298 C   0  0  0  0  0  0  0  0  0  0  0  0
    9.2911   12.5353   23.0520 C   0  0  0  0  0  0  0  0  0  0  0  0
   11.0297   13.7870   21.0144 N   0  0  0  0  0  0  0  0  0  0  0  0
   10.2921   11.7521   23.7425 O   0  0  0  0  0  0  0  0  0  0  0  0
    4.3646   12.0214   25.2888 H   0  0  0  0  0  0  0  0  0  0  0  0
    4.7336   13.6619   23.4680 H   0  0  0  0  0  0  0  0  0  0  0  0
    6.2289   10.6094   26.0766 H   0  0  0  0  0  0  0  0  0  0  0  0
    6.9495   13.9031   22.4442 H   0  0  0  0  0  0  0  0  0  0  0  0
    9.2179   11.0665   26.0899 H   0  0  0  0  0  0  0  0  0  0  0  0
    8.4357    9.5902   25.4786 H   0  0  0  0  0  0  0  0  0  0  0  0
    8.5042   12.6836   21.0140 H   0  0  0  0  0  0  0  0  0  0  0  0
    9.0315   11.0663   21.4446 H   0  0  0  0  0  0  0  0  0  0  0  0
    9.9433   14.2685   24.2056 H   0  0  0  0  0  0  0  0  0  0  0  0
    9.0692   14.7000   22.7370 H   0  0  0  0  0  0  0  0  0  0  0  0
   11.4024   11.7299   21.3029 H   0  0  0  0  0  0  0  0  0  0  0  0
   10.5476   12.1413   19.8206 H   0  0  0  0  0  0  0  0  0  0  0  0
   11.4042   15.2511   22.4576 H   0  0  0  0  0  0  0  0  0  0  0  0
   11.9343   13.6374   22.9137 H   0  0  0  0  0  0  0  0  0  0  0  0
   10.7357    9.9225   24.5377 H   0  0  0  0  0  0  0  0  0  0  0  0
    9.5169    9.8825   23.2617 H   0  0  0  0  0  0  0  0  0  0  0  0
   11.9316   13.9234   20.5589 H   0  0  0  0  0  0  0  0  0  0  0  0
  1  2  2  0  0  0  0
  1  3  1  0  0  0  0
  2  4  1  0  0  0  0
  3  5  2  0  0  0  0
  4  6  2  0  0  0  0
  5  6  1  0  0  0  0
  5  7  1  0  0  0  0
  6 13  1  0  0  0  0
  7 12  1  0  0  0  0
  8 10  1  0  0  0  0
  8 13  1  0  0  0  0
  9 11  1  0  0  0  0
  9 13  1  0  0  0  0
 10 14  1  0  0  0  0
 11 14  1  0  0  0  0
 12 15  1  0  0  0  0
 13 15  1  0  0  0  0
  1 16  1  0  0  0  0
  2 17  1  0  0  0  0
  3 18  1  0  0  0  0
  4 19  1  0  0  0  0
  7 20  1  0  0  0  0
  7 21  1  0  0  0  0
  8 22  1  0  0  0  0
  8 23  1  0  0  0  0
  9 24  1  0  0  0  0
  9 25  1  0  0  0  0
 10 26  1  0  0  0  0
 10 27  1  0  0  0  0
 11 28  1  0  0  0  0
 11 29  1  0  0  0  0
 12 30  1  0  0  0  0
 12 31  1  0  0  0  0
 14 32  1  0  0  0  0
M  END
> <Catalog ID>
Z1509150727

> <PlateID>
1337959-R-04

> <Well>
D03

> <MW (desalted)>
203.280

> <CLogP>
1.187

> <HBD>
1

> <TPSA>
21.260

> <RotBonds>
0

> <ROCS_ShapeQuery>
x0446_0A_x1080_0A_x0929_0A_x0812_0A_x0719_0A_x1140_0A_x0528_0A_x0310_0A

> <ROCS_TanimotoCombo>
0.308 

> <ROCS_ShapeTanimoto>
0.197 

> <ROCS_ColorTanimoto>
0.110 

> <ROCS_RefTversky>
0.182 

> <ROCS_RefColorTversky>
0.121 

> <ROCS_RefTverskyCombo>
0.303 

> <ROCS_FitTversky>
1.708 

> <ROCS_FitColorTversky>
0.568 

> <ROCS_FitTverskyCombo>
2.276 

> <ROCS_ColorScore>
-4.296

> <ROCS_Overlap>
2151.739

> <ROCS_Rank>
307                 

$$$$
untitled-dbase-472_13
  -OEChem-02082415003D

 31 31  0     0  0  0  0  0  0999 V2000
    7.5382   13.6589   23.0977 C   0  0  0  0  0  0  0  0  0  0  0  0
    9.8402   15.4966   22.5908 C   0  0  0  0  0  0  0  0  0  0  0  0
    7.6954   10.6063   24.2674 C   0  0  0  0  0  0  0  0  0  0  0  0
    8.9246   10.2244   23.4548 C   0  0  0  0  0  0  0  0  0  0  0  0
    7.9184   11.6858   25.3193 C   0  0  0  0  0  0  0  0  0  0  0  0
    9.1463   11.1485   22.2619 C   0  0  0  0  0  0  0  0  0  0  0  0
    8.9280   12.7931   25.0158 C   0  0  0  0  0  0  0  0  0  0  0  0
    9.7170   12.5248   22.5967 C   0  0  0  0  0  0  0  0  0  0  0  0
    8.9533   13.3972   23.6058 C   0  0  0  0  0  0  0  0  0  0  0  0
   10.5671   16.7623   22.9038 C   0  0  0  0  0  0  0  0  0  0  0  0
    9.6428   14.6808   23.6854 N   0  0  0  0  0  0  0  0  0  0  0  0
    7.1968   13.6282   21.9247 O   0  0  0  0  0  0  0  0  0  0  0  0
    9.4817   15.2745   21.4402 O   0  0  0  0  0  0  0  0  0  0  0  0
    6.7028   13.9352   24.1287 O   0  0  0  0  0  0  0  0  0  0  0  0
    6.8911   10.9162   23.5858 H   0  0  0  0  0  0  0  0  0  0  0  0
    7.3285    9.7018   24.7720 H   0  0  0  0  0  0  0  0  0  0  0  0
    9.8014   10.2195   24.0947 H   0  0  0  0  0  0  0  0  0  0  0  0
    8.7817    9.2123   23.0855 H   0  0  0  0  0  0  0  0  0  0  0  0
    6.9271   12.1797   25.4909 H   0  0  0  0  0  0  0  0  0  0  0  0
    8.1410   11.2133   26.3140 H   0  0  0  0  0  0  0  0  0  0  0  0
    9.8724   10.6444   21.5935 H   0  0  0  0  0  0  0  0  0  0  0  0
    8.2221   11.2390   21.6567 H   0  0  0  0  0  0  0  0  0  0  0  0
    8.8195   13.6071   25.7760 H   0  0  0  0  0  0  0  0  0  0  0  0
    9.9485   12.3979   25.2479 H   0  0  0  0  0  0  0  0  0  0  0  0
   10.7574   12.3840   22.9476 H   0  0  0  0  0  0  0  0  0  0  0  0
    9.8248   13.0833   21.6470 H   0  0  0  0  0  0  0  0  0  0  0  0
   11.6594   16.6550   22.8063 H   0  0  0  0  0  0  0  0  0  0  0  0
   10.2933   17.5839   22.2226 H   0  0  0  0  0  0  0  0  0  0  0  0
   10.4044   17.1607   23.9181 H   0  0  0  0  0  0  0  0  0  0  0  0
    9.9927   14.9868   24.5861 H   0  0  0  0  0  0  0  0  0  0  0  0
    5.7872   14.1085   23.8221 H   0  0  0  0  0  0  0  0  0  0  0  0
  1  9  1  0  0  0  0
  1 12  2  0  0  0  0
  1 14  1  0  0  0  0
  2 10  1  0  0  0  0
  2 11  1  0  0  0  0
  2 13  2  0  0  0  0
  3  4  1  0  0  0  0
  3  5  1  0  0  0  0
  4  6  1  0  0  0  0
  5  7  1  0  0  0  0
  6  8  1  0  0  0  0
  7  9  1  0  0  0  0
  8  9  1  0  0  0  0
  9 11  1  0  0  0  0
  3 15  1  0  0  0  0
  3 16  1  0  0  0  0
  4 17  1  0  0  0  0
  4 18  1  0  0  0  0
  5 19  1  0  0  0  0
  5 20  1  0  0  0  0
  6 21  1  0  0  0  0
  6 22  1  0  0  0  0
  7 23  1  0  0  0  0
  7 24  1  0  0  0  0
  8 25  1  0  0  0  0
  8 26  1  0  0  0  0
 10 27  1  0  0  0  0
 10 28  1  0  0  0  0
 10 29  1  0  0  0  0
 11 30  1  0  0  0  0
 14 31  1  0  0  0  0
M  END
> <Catalog ID>
Z278082098

> <PlateID>
1337959-R-11

> <Well>
C09

> <MW (desalted)>
199.247

> <CLogP>
1.583

> <HBD>
2

> <TPSA>
66.400

> <RotBonds>
2

> <ROCS_ShapeQuery>
x0446_0A_x1080_0A_x0929_0A_x0812_0A_x0719_0A_x1140_0A_x0528_0A_x0310_0A

> <ROCS_TanimotoCombo>
0.307 

> <ROCS_ShapeTanimoto>
0.183 

> <ROCS_ColorTanimoto>
0.124 

> <ROCS_RefTversky>
0.170 

> <ROCS_RefColorTversky>
0.134 

> <ROCS_RefTverskyCombo>
0.304 

> <ROCS_FitTversky>
1.698 

> <ROCS_FitColorTversky>
0.630 

> <ROCS_FitTverskyCombo>
2.328 

> <ROCS_ColorScore>
-4.769

> <ROCS_Overlap>
2009.146

> <ROCS_Rank>
308                 

$$$$
untitled-dbase-443_14
  -OEChem-02082415003D

 31 32  0     1  0  0  0  0  0999 V2000
   10.3195   16.0966   22.1561 C   0  0  0  0  0  0  0  0  0  0  0  0
   10.3075   15.4504   23.4067 C   0  0  0  0  0  0  0  0  0  0  0  0
    9.1941   14.6471   23.3674 C   0  0  0  0  0  0  0  0  0  0  0  0
    9.4130   10.1332   23.9567 C   0  0  0  0  0  0  0  0  0  0  0  0
    7.5748   11.5321   24.6297 C   0  0  0  0  0  0  0  0  0  0  0  0
    7.9070   10.1312   24.1624 C   0  0  1  0  0  0  0  0  0  0  0  0
    9.8151   11.6156   23.9549 C   0  0  1  0  0  0  0  0  0  0  0  0
    7.4323   14.2325   21.6238 C   0  0  0  0  0  0  0  0  0  0  0  0
    8.6140   13.7024   24.3799 C   0  0  0  0  0  0  0  0  0  0  0  0
   10.7444   11.9495   22.7938 C   0  0  0  0  0  0  0  0  0  0  0  0
    9.2951   15.7351   21.3790 N   0  0  0  0  0  0  0  0  0  0  0  0
    8.6290   14.8528   22.1433 N   0  0  0  0  0  0  0  0  0  0  0  0
    8.5372   12.3382   23.8718 N   0  0  2  0  0  0  0  0  0  0  0  0
   10.0783   11.6484   21.5806 O   0  0  0  0  0  0  0  0  0  0  0  0
    7.3025    9.9195   22.9602 F   0  0  0  0  0  0  0  0  0  0  0  0
   11.5578   15.6810   24.7683 Br  0  0  0  0  0  0  0  0  0  0  0  0
   11.0293   16.8166   21.7735 H   0  0  0  0  0  0  0  0  0  0  0  0
    9.9094    9.6241   24.7907 H   0  0  0  0  0  0  0  0  0  0  0  0
    9.6768    9.6171   23.0275 H   0  0  0  0  0  0  0  0  0  0  0  0
    6.5445   11.8082   24.3860 H   0  0  0  0  0  0  0  0  0  0  0  0
    7.7363   11.6219   25.7110 H   0  0  0  0  0  0  0  0  0  0  0  0
    7.5686    9.3523   24.8508 H   0  0  0  0  0  0  0  0  0  0  0  0
   10.3273   11.8353   24.9017 H   0  0  0  0  0  0  0  0  0  0  0  0
    6.5808   14.8613   21.8966 H   0  0  0  0  0  0  0  0  0  0  0  0
    7.5102   14.1449   20.5365 H   0  0  0  0  0  0  0  0  0  0  0  0
    7.3259   13.2339   22.0567 H   0  0  0  0  0  0  0  0  0  0  0  0
    9.2238   13.6896   25.2899 H   0  0  0  0  0  0  0  0  0  0  0  0
    7.6035   14.0090   24.6698 H   0  0  0  0  0  0  0  0  0  0  0  0
   11.6552   11.3537   22.8612 H   0  0  0  0  0  0  0  0  0  0  0  0
   10.9977   13.0101   22.8111 H   0  0  0  0  0  0  0  0  0  0  0  0
   10.6895   11.8693   20.8574 H   0  0  0  0  0  0  0  0  0  0  0  0
  1  2  1  0  0  0  0
  1 11  2  0  0  0  0
  2  3  2  0  0  0  0
  2 16  1  0  0  0  0
  3  9  1  0  0  0  0
  3 12  1  0  0  0  0
  4  6  1  0  0  0  0
  4  7  1  0  0  0  0
  5  6  1  0  0  0  0
  5 13  1  0  0  0  0
  6 15  1  1  0  0  0
  7 10  1  1  0  0  0
  7 13  1  0  0  0  0
  8 12  1  0  0  0  0
  9 13  1  0  0  0  0
 10 14  1  0  0  0  0
 11 12  1  0  0  0  0
  1 17  1  0  0  0  0
  4 18  1  0  0  0  0
  4 19  1  0  0  0  0
  5 20  1  0  0  0  0
  5 21  1  0  0  0  0
  6 22  1  0  0  0  0
  7 23  1  0  0  0  0
  8 24  1  0  0  0  0
  8 25  1  0  0  0  0
  8 26  1  0  0  0  0
  9 27  1  0  0  0  0
  9 28  1  0  0  0  0
 10 29  1  0  0  0  0
 10 30  1  0  0  0  0
 14 31  1  0  0  0  0
M  END
> <Catalog ID>
Z2054687790

> <PlateID>
1337959-R-10

> <Well>
E03

> <MW (desalted)>
292.148

> <CLogP>
1.038

> <HBD>
1

> <TPSA>
41.290

> <RotBonds>
3

> <ROCS_ShapeQuery>
x0446_0A_x1080_0A_x0929_0A_x0812_0A_x0719_0A_x1140_0A_x0528_0A_x0310_0A

> <ROCS_TanimotoCombo>
0.307 

> <ROCS_ShapeTanimoto>
0.196 

> <ROCS_ColorTanimoto>
0.111 

> <ROCS_RefTversky>
0.181 

> <ROCS_RefColorTversky>
0.124 

> <ROCS_RefTverskyCombo>
0.305 

> <ROCS_FitTversky>
1.670 

> <ROCS_FitColorTversky>
0.521 

> <ROCS_FitTverskyCombo>
2.191 

> <ROCS_ColorScore>
-4.431

> <ROCS_Overlap>
2138.758

> <ROCS_Rank>
309                 

$$$$
untitled-dbase-458_17
  -OEChem-02082415003D

 40 41  0     0  0  0  0  0  0999 V2000
    8.8999   12.2272   23.9935 C   0  0  0  0  0  0  0  0  0  0  0  0
    7.9622   11.2724   24.4232 C   0  0  0  0  0  0  0  0  0  0  0  0
    9.8397   11.4846   23.3290 C   0  0  0  0  0  0  0  0  0  0  0  0
    7.6400   14.3964   23.6473 C   0  0  0  0  0  0  0  0  0  0  0  0
    3.7183   14.5266   20.9027 C   0  0  0  0  0  0  0  0  0  0  0  0
    4.7651   13.5697   20.3392 C   0  0  0  0  0  0  0  0  0  0  0  0
    4.2931   15.9227   21.1251 C   0  0  0  0  0  0  0  0  0  0  0  0
    6.0183   13.5279   21.2120 C   0  0  0  0  0  0  0  0  0  0  0  0
    5.5453   15.8835   21.9994 C   0  0  0  0  0  0  0  0  0  0  0  0
    6.5985   14.9307   21.4235 C   0  0  0  0  0  0  0  0  0  0  0  0
    6.7268   11.4956   25.1931 C   0  0  0  0  0  0  0  0  0  0  0  0
   11.0878   11.8113   22.6271 C   0  0  0  0  0  0  0  0  0  0  0  0
    9.0258   15.3072   21.7548 C   0  0  0  0  0  0  0  0  0  0  0  0
    8.8816   13.7204   24.2101 C   0  0  0  0  0  0  0  0  0  0  0  0
    8.2948   10.0324   24.0535 N   0  0  0  0  0  0  0  0  0  0  0  0
    7.7500   14.8618   22.3211 N   0  0  0  0  0  0  0  0  0  0  0  0
    6.6207   14.5129   24.3333 O   0  0  0  0  0  0  0  0  0  0  0  0
    9.4897   10.1732   23.3579 O   0  0  0  0  0  0  0  0  0  0  0  0
    2.8647   14.5840   20.2179 H   0  0  0  0  0  0  0  0  0  0  0  0
    3.3394   14.1329   21.8539 H   0  0  0  0  0  0  0  0  0  0  0  0
    4.3389   12.5634   20.2584 H   0  0  0  0  0  0  0  0  0  0  0  0
    5.0382   13.8839   19.3243 H   0  0  0  0  0  0  0  0  0  0  0  0
    4.5390   16.3748   20.1564 H   0  0  0  0  0  0  0  0  0  0  0  0
    3.5366   16.5623   21.5936 H   0  0  0  0  0  0  0  0  0  0  0  0
    5.7664   13.0762   22.1803 H   0  0  0  0  0  0  0  0  0  0  0  0
    6.7644   12.8791   20.7378 H   0  0  0  0  0  0  0  0  0  0  0  0
    5.9578   16.8964   22.0813 H   0  0  0  0  0  0  0  0  0  0  0  0
    5.2659   15.5658   23.0124 H   0  0  0  0  0  0  0  0  0  0  0  0
    6.9745   15.3208   20.4823 H   0  0  0  0  0  0  0  0  0  0  0  0
    5.8664   11.6770   24.5263 H   0  0  0  0  0  0  0  0  0  0  0  0
    6.4736   10.6330   25.8350 H   0  0  0  0  0  0  0  0  0  0  0  0
    6.8095   12.3630   25.8722 H   0  0  0  0  0  0  0  0  0  0  0  0
   11.9560   11.7807   23.3100 H   0  0  0  0  0  0  0  0  0  0  0  0
   11.2986   11.1128   21.7957 H   0  0  0  0  0  0  0  0  0  0  0  0
   11.0631   12.8189   22.1712 H   0  0  0  0  0  0  0  0  0  0  0  0
    9.5395   14.4527   21.2900 H   0  0  0  0  0  0  0  0  0  0  0  0
    8.8396   16.0804   20.9950 H   0  0  0  0  0  0  0  0  0  0  0  0
    9.6564   15.7231   22.5544 H   0  0  0  0  0  0  0  0  0  0  0  0
    9.7697   14.1579   23.7389 H   0  0  0  0  0  0  0  0  0  0  0  0
    8.9422   13.9222   25.2863 H   0  0  0  0  0  0  0  0  0  0  0  0
  1  2  1  0  0  0  0
  1  3  2  0  0  0  0
  1 14  1  0  0  0  0
  2 11  1  0  0  0  0
  2 15  2  0  0  0  0
  3 12  1  0  0  0  0
  3 18  1  0  0  0  0
  4 14  1  0  0  0  0
  4 16  1  0  0  0  0
  4 17  2  0  0  0  0
  5  6  1  0  0  0  0
  5  7  1  0  0  0  0
  6  8  1  0  0  0  0
  7  9  1  0  0  0  0
  8 10  1  0  0  0  0
  9 10  1  0  0  0  0
 10 16  1  0  0  0  0
 13 16  1  0  0  0  0
 15 18  1  0  0  0  0
  5 19  1  0  0  0  0
  5 20  1  0  0  0  0
  6 21  1  0  0  0  0
  6 22  1  0  0  0  0
  7 23  1  0  0  0  0
  7 24  1  0  0  0  0
  8 25  1  0  0  0  0
  8 26  1  0  0  0  0
  9 27  1  0  0  0  0
  9 28  1  0  0  0  0
 10 29  1  0  0  0  0
 11 30  1  0  0  0  0
 11 31  1  0  0  0  0
 11 32  1  0  0  0  0
 12 33  1  0  0  0  0
 12 34  1  0  0  0  0
 12 35  1  0  0  0  0
 13 36  1  0  0  0  0
 13 37  1  0  0  0  0
 13 38  1  0  0  0  0
 14 39  1  0  0  0  0
 14 40  1  0  0  0  0
M  END
> <Catalog ID>
Z79409640

> <PlateID>
1337959-R-10

> <Well>
H08

> <MW (desalted)>
250.337

> <CLogP>
1.414

> <HBD>
0

> <TPSA>
46.340

> <RotBonds>
3

> <ROCS_ShapeQuery>
x0446_0A_x1080_0A_x0929_0A_x0812_0A_x0719_0A_x1140_0A_x0528_0A_x0310_0A

> <ROCS_TanimotoCombo>
0.307 

> <ROCS_ShapeTanimoto>
0.213 

> <ROCS_ColorTanimoto>
0.094 

> <ROCS_RefTversky>
0.196 

> <ROCS_RefColorTversky>
0.100 

> <ROCS_RefTverskyCombo>
0.295 

> <ROCS_FitTversky>
1.698 

> <ROCS_FitColorTversky>
0.626 

> <ROCS_FitTverskyCombo>
2.323 

> <ROCS_ColorScore>
-3.540

> <ROCS_Overlap>
2310.575

> <ROCS_Rank>
310                 

$$$$
untitled-dbase-410_1
  -OEChem-02082415003D

 28 29  0     0  0  0  0  0  0999 V2000
    8.4619    9.7083   24.3282 C   0  0  0  0  0  0  0  0  0  0  0  0
    9.2056    9.9500   23.1732 C   0  0  0  0  0  0  0  0  0  0  0  0
    7.9839   10.7771   25.0864 C   0  0  0  0  0  0  0  0  0  0  0  0
    8.9937   12.3294   23.5348 C   0  0  0  0  0  0  0  0  0  0  0  0
    9.4716   11.2606   22.7765 C   0  0  0  0  0  0  0  0  0  0  0  0
    8.2499   12.0877   24.6897 C   0  0  0  0  0  0  0  0  0  0  0  0
    9.2735   13.7097   23.1169 C   0  0  0  0  0  0  0  0  0  0  0  0
    7.1457   16.4512   21.8632 C   0  0  0  0  0  0  0  0  0  0  0  0
    5.9293   14.3727   21.8595 C   0  0  0  0  0  0  0  0  0  0  0  0
    8.4778   15.7104   21.7545 C   0  0  0  0  0  0  0  0  0  0  0  0
    7.2282   13.5821   21.7359 C   0  0  0  0  0  0  0  0  0  0  0  0
    6.0582   15.6936   21.2410 N   0  0  0  0  0  0  0  0  0  0  0  0
    8.3629   14.3383   22.2640 N   0  0  0  0  0  0  0  0  0  0  0  0
   10.3022   14.2153   23.5637 O   0  0  0  0  0  0  0  0  0  0  0  0
   10.1875   11.4818   21.6648 F   0  0  0  0  0  0  0  0  0  0  0  0
    7.7858   13.1076   25.4258 F   0  0  0  0  0  0  0  0  0  0  0  0
    8.2546    8.6878   24.6368 H   0  0  0  0  0  0  0  0  0  0  0  0
    9.5780    9.1180   22.5828 H   0  0  0  0  0  0  0  0  0  0  0  0
    7.4050   10.5892   25.9858 H   0  0  0  0  0  0  0  0  0  0  0  0
    6.9101   16.6550   22.9150 H   0  0  0  0  0  0  0  0  0  0  0  0
    7.2328   17.4205   21.3606 H   0  0  0  0  0  0  0  0  0  0  0  0
    5.1259   13.8239   21.3563 H   0  0  0  0  0  0  0  0  0  0  0  0
    5.6407   14.4718   22.9132 H   0  0  0  0  0  0  0  0  0  0  0  0
    8.7900   15.6357   20.7055 H   0  0  0  0  0  0  0  0  0  0  0  0
    9.2514   16.2712   22.2856 H   0  0  0  0  0  0  0  0  0  0  0  0
    7.1325   12.6228   22.2552 H   0  0  0  0  0  0  0  0  0  0  0  0
    7.4477   13.3646   20.6833 H   0  0  0  0  0  0  0  0  0  0  0  0
    5.1840   16.2060   21.3538 H   0  0  0  0  0  0  0  0  0  0  0  0
  1  2  1  0  0  0  0
  1  3  2  0  0  0  0
  2  5  2  0  0  0  0
  3  6  1  0  0  0  0
  4  5  1  0  0  0  0
  4  6  2  0  0  0  0
  4  7  1  0  0  0  0
  5 15  1  0  0  0  0
  6 16  1  0  0  0  0
  7 13  1  0  0  0  0
  7 14  2  0  0  0  0
  8 10  1  0  0  0  0
  8 12  1  0  0  0  0
  9 11  1  0  0  0  0
  9 12  1  0  0  0  0
 10 13  1  0  0  0  0
 11 13  1  0  0  0  0
  1 17  1  0  0  0  0
  2 18  1  0  0  0  0
  3 19  1  0  0  0  0
  8 20  1  0  0  0  0
  8 21  1  0  0  0  0
  9 22  1  0  0  0  0
  9 23  1  0  0  0  0
 10 24  1  0  0  0  0
 10 25  1  0  0  0  0
 11 26  1  0  0  0  0
 11 27  1  0  0  0  0
 12 28  1  0  0  0  0
M  END
> <Catalog ID>
Z285189104

> <PlateID>
1337959-R-09

> <Well>
F10

> <MW (desalted)>
226.223

> <CLogP>
1.146

> <HBD>
1

> <TPSA>
32.340

> <RotBonds>
1

> <ROCS_ShapeQuery>
x0446_0A_x1080_0A_x0929_0A_x0812_0A_x0719_0A_x1140_0A_x0528_0A_x0310_0A

> <ROCS_TanimotoCombo>
0.307 

> <ROCS_ShapeTanimoto>
0.207 

> <ROCS_ColorTanimoto>
0.100 

> <ROCS_RefTversky>
0.190 

> <ROCS_RefColorTversky>
0.108 

> <ROCS_RefTverskyCombo>
0.298 

> <ROCS_FitTversky>
1.729 

> <ROCS_FitColorTversky>
0.579 

> <ROCS_FitTverskyCombo>
2.308 

> <ROCS_ColorScore>
-3.827

> <ROCS_Overlap>
2246.161

> <ROCS_Rank>
311                 

$$$$
untitled-dbase-27_0
  -OEChem-02082415003D

 25 27  0     0  0  0  0  0  0999 V2000
   10.5162   13.5863   22.7968 C   0  0  0  0  0  0  0  0  0  0  0  0
    8.9751   12.4614   23.7041 C   0  0  0  0  0  0  0  0  0  0  0  0
    9.7914   11.5383   23.1016 C   0  0  0  0  0  0  0  0  0  0  0  0
    9.6127   10.0712   23.1106 C   0  0  0  0  0  0  0  0  0  0  0  0
    5.8817   12.6447   25.3401 C   0  0  0  0  0  0  0  0  0  0  0  0
    6.3563   12.4123   23.8893 C   0  0  0  0  0  0  0  0  0  0  0  0
    7.3663   12.7242   25.7562 C   0  0  0  0  0  0  0  0  0  0  0  0
    8.1564    9.7618   23.5224 C   0  0  0  0  0  0  0  0  0  0  0  0
    7.7267   11.9798   24.4517 C   0  0  0  0  0  0  0  0  0  0  0  0
    9.4188   13.7360   23.5126 N   0  0  0  0  0  0  0  0  0  0  0  0
   10.7853   12.2675   22.5223 N   0  0  0  0  0  0  0  0  0  0  0  0
    7.7232   10.5184   24.7192 N   0  0  0  0  0  0  0  0  0  0  0  0
   11.1577   14.3820   22.4456 H   0  0  0  0  0  0  0  0  0  0  0  0
    9.8201    9.6416   22.1248 H   0  0  0  0  0  0  0  0  0  0  0  0
   10.3071    9.6230   23.8308 H   0  0  0  0  0  0  0  0  0  0  0  0
    5.2975   13.5540   25.5041 H   0  0  0  0  0  0  0  0  0  0  0  0
    5.3418   11.7958   25.7742 H   0  0  0  0  0  0  0  0  0  0  0  0
    5.7816   11.6726   23.3231 H   0  0  0  0  0  0  0  0  0  0  0  0
    6.3846   13.3383   23.3007 H   0  0  0  0  0  0  0  0  0  0  0  0
    7.7341   13.7567   25.8083 H   0  0  0  0  0  0  0  0  0  0  0  0
    7.6161   12.2308   26.7007 H   0  0  0  0  0  0  0  0  0  0  0  0
    7.4752    9.9661   22.6866 H   0  0  0  0  0  0  0  0  0  0  0  0
    8.0770    8.6903   23.7384 H   0  0  0  0  0  0  0  0  0  0  0  0
   11.5697   11.9124   21.9913 H   0  0  0  0  0  0  0  0  0  0  0  0
    6.8274   10.1469   25.0341 H   0  0  0  0  0  0  0  0  0  0  0  0
  1 10  2  0  0  0  0
  1 11  1  0  0  0  0
  2  3  2  0  0  0  0
  2  9  1  0  0  0  0
  2 10  1  0  0  0  0
  3  4  1  0  0  0  0
  3 11  1  0  0  0  0
  4  8  1  0  0  0  0
  5  6  1  0  0  0  0
  5  7  1  0  0  0  0
  6  9  1  0  0  0  0
  7  9  1  0  0  0  0
  8 12  1  0  0  0  0
  9 12  1  0  0  0  0
  1 13  1  0  0  0  0
  4 14  1  0  0  0  0
  4 15  1  0  0  0  0
  5 16  1  0  0  0  0
  5 17  1  0  0  0  0
  6 18  1  0  0  0  0
  6 19  1  0  0  0  0
  7 20  1  0  0  0  0
  7 21  1  0  0  0  0
  8 22  1  0  0  0  0
  8 23  1  0  0  0  0
 11 24  1  0  0  0  0
 12 25  1  0  0  0  0
M  END
> <Catalog ID>
Z2327673448

> <PlateID>
1337959-R-01

> <Well>
D07

> <MW (desalted)>
163.220

> <CLogP>
0.067

> <HBD>
2

> <TPSA>
40.710

> <RotBonds>
0

> <ROCS_ShapeQuery>
x0446_0A_x1080_0A_x0929_0A_x0812_0A_x0719_0A_x1140_0A_x0528_0A_x0310_0A

> <ROCS_TanimotoCombo>
0.307 

> <ROCS_ShapeTanimoto>
0.195 

> <ROCS_ColorTanimoto>
0.111 

> <ROCS_RefTversky>
0.179 

> <ROCS_RefColorTversky>
0.127 

> <ROCS_RefTverskyCombo>
0.306 

> <ROCS_FitTversky>
1.849 

> <ROCS_FitColorTversky>
0.478 

> <ROCS_FitTverskyCombo>
2.327 

> <ROCS_ColorScore>
-4.531

> <ROCS_Overlap>
2113.670

> <ROCS_Rank>
312                 

$$$$
untitled-dbase-2_3
  -OEChem-02082415003D

 20 21  0     0  0  0  0  0  0999 V2000
    9.1782   13.7243   22.4402 C   0  0  0  0  0  0  0  0  0  0  0  0
    8.0857   11.6352   23.7334 C   0  0  0  0  0  0  0  0  0  0  0  0
    9.5707   11.0589   22.4030 C   0  0  0  0  0  0  0  0  0  0  0  0
    9.3809   12.3591   23.2466 C   0  0  0  0  0  0  0  0  0  0  0  0
    6.9441   13.2691   21.3547 C   0  0  0  0  0  0  0  0  0  0  0  0
   10.0241   14.7286   22.4310 N   0  0  0  0  0  0  0  0  0  0  0  0
    9.4579   15.6835   21.6170 N   0  0  0  0  0  0  0  0  0  0  0  0
    8.2907   15.2708   21.1380 N   0  0  0  0  0  0  0  0  0  0  0  0
    8.1180   14.0459   21.6542 N   0  0  0  0  0  0  0  0  0  0  0  0
    8.6867   10.3445   23.3445 N   0  0  0  0  0  0  0  0  0  0  0  0
   10.3729   12.5223   24.2949 O   0  0  0  0  0  0  0  0  0  0  0  0
    7.8686   11.7250   24.8026 H   0  0  0  0  0  0  0  0  0  0  0  0
    7.1712   11.8748   23.1770 H   0  0  0  0  0  0  0  0  0  0  0  0
    9.1785   11.0948   21.3793 H   0  0  0  0  0  0  0  0  0  0  0  0
   10.5922   10.6670   22.3638 H   0  0  0  0  0  0  0  0  0  0  0  0
    6.1852   13.5012   22.1065 H   0  0  0  0  0  0  0  0  0  0  0  0
    6.5829   13.5257   20.3549 H   0  0  0  0  0  0  0  0  0  0  0  0
    7.1979   12.2057   21.3817 H   0  0  0  0  0  0  0  0  0  0  0  0
    9.1968    9.8969   24.1066 H   0  0  0  0  0  0  0  0  0  0  0  0
   10.0269   13.2135   24.8721 H   0  0  0  0  0  0  0  0  0  0  0  0
  1  4  1  0  0  0  0
  1  6  2  0  0  0  0
  1  9  1  0  0  0  0
  2  4  1  0  0  0  0
  2 10  1  0  0  0  0
  3  4  1  0  0  0  0
  3 10  1  0  0  0  0
  4 11  1  0  0  0  0
  5  9  1  0  0  0  0
  6  7  1  0  0  0  0
  7  8  2  0  0  0  0
  8  9  1  0  0  0  0
  2 12  1  0  0  0  0
  2 13  1  0  0  0  0
  3 14  1  0  0  0  0
  3 15  1  0  0  0  0
  5 16  1  0  0  0  0
  5 17  1  0  0  0  0
  5 18  1  0  0  0  0
 10 19  1  0  0  0  0
 11 20  1  0  0  0  0
M  END
> <Catalog ID>
Z4428968839

> <PlateID>
1337959-R-01

> <Well>
A06

> <MW (desalted)>
155.158

> <CLogP>
-1.630

> <HBD>
2

> <TPSA>
75.860

> <RotBonds>
1

> <ROCS_ShapeQuery>
x0446_0A_x1080_0A_x0929_0A_x0812_0A_x0719_0A_x1140_0A_x0528_0A_x0310_0A

> <ROCS_TanimotoCombo>
0.307 

> <ROCS_ShapeTanimoto>
0.150 

> <ROCS_ColorTanimoto>
0.157 

> <ROCS_RefTversky>
0.142 

> <ROCS_RefColorTversky>
0.177 

> <ROCS_RefTverskyCombo>
0.320 

> <ROCS_FitTversky>
1.542 

> <ROCS_FitColorTversky>
0.576 

> <ROCS_FitTverskyCombo>
2.118 

> <ROCS_ColorScore>
-6.356

> <ROCS_Overlap>
1675.911

> <ROCS_Rank>
313                 

$$$$
untitled-dbase-339_19
  -OEChem-02082415003D

 38 39  0     0  0  0  0  0  0999 V2000
    6.0070   10.7599   25.7383 C   0  0  0  0  0  0  0  0  0  0  0  0
   12.8641   15.7176   21.1018 C   0  0  0  0  0  0  0  0  0  0  0  0
   11.5489   16.1306   21.3143 C   0  0  0  0  0  0  0  0  0  0  0  0
   13.3930   14.6633   21.8465 C   0  0  0  0  0  0  0  0  0  0  0  0
   10.7625   15.4894   22.2715 C   0  0  0  0  0  0  0  0  0  0  0  0
   12.6067   14.0221   22.8037 C   0  0  0  0  0  0  0  0  0  0  0  0
   11.2914   14.4352   23.0162 C   0  0  0  0  0  0  0  0  0  0  0  0
    8.2747   12.9865   23.7287 C   0  0  0  0  0  0  0  0  0  0  0  0
   10.1699   11.4396   24.2915 C   0  0  0  0  0  0  0  0  0  0  0  0
    7.4148   11.7568   23.4316 C   0  0  0  0  0  0  0  0  0  0  0  0
    9.2466   10.2615   23.9764 C   0  0  0  0  0  0  0  0  0  0  0  0
    9.7564   12.6894   23.5183 C   0  0  0  0  0  0  0  0  0  0  0  0
    9.3568   15.9461   22.4839 C   0  0  0  0  0  0  0  0  0  0  0  0
   13.1912   12.8957   23.5907 C   0  0  0  0  0  0  0  0  0  0  0  0
    7.4533   10.6181   25.5806 C   0  0  0  0  0  0  0  0  0  0  0  0
    4.8593   10.8721   25.8670 N   0  0  0  0  0  0  0  0  0  0  0  0
    7.8189   10.5512   24.1676 N   0  0  0  0  0  0  0  0  0  0  0  0
   10.5193   13.8062   23.9574 O   0  0  0  0  0  0  0  0  0  0  0  0
   13.4763   16.2166   20.3564 H   0  0  0  0  0  0  0  0  0  0  0  0
   11.1459   16.9529   20.7292 H   0  0  0  0  0  0  0  0  0  0  0  0
   14.4188   14.3489   21.6738 H   0  0  0  0  0  0  0  0  0  0  0  0
    7.9697   13.8229   23.0890 H   0  0  0  0  0  0  0  0  0  0  0  0
    8.1055   13.3233   24.7598 H   0  0  0  0  0  0  0  0  0  0  0  0
   10.1590   11.6487   25.3693 H   0  0  0  0  0  0  0  0  0  0  0  0
   11.2068   11.1793   24.0493 H   0  0  0  0  0  0  0  0  0  0  0  0
    6.3641   12.0089   23.6826 H   0  0  0  0  0  0  0  0  0  0  0  0
    7.4196   11.5634   22.3373 H   0  0  0  0  0  0  0  0  0  0  0  0
    9.4368    9.9161   22.9373 H   0  0  0  0  0  0  0  0  0  0  0  0
    9.5425    9.4149   24.6294 H   0  0  0  0  0  0  0  0  0  0  0  0
    9.9537   12.5493   22.4468 H   0  0  0  0  0  0  0  0  0  0  0  0
    8.6748   15.3959   21.8252 H   0  0  0  0  0  0  0  0  0  0  0  0
    9.0416   15.7893   23.5229 H   0  0  0  0  0  0  0  0  0  0  0  0
    9.2528   17.0187   22.2774 H   0  0  0  0  0  0  0  0  0  0  0  0
   13.6644   13.2754   24.5038 H   0  0  0  0  0  0  0  0  0  0  0  0
   12.4208   12.1675   23.8731 H   0  0  0  0  0  0  0  0  0  0  0  0
   13.9446   12.3528   23.0064 H   0  0  0  0  0  0  0  0  0  0  0  0
    7.9830   11.4685   26.0195 H   0  0  0  0  0  0  0  0  0  0  0  0
    7.8140    9.7031   26.0591 H   0  0  0  0  0  0  0  0  0  0  0  0
  1 15  1  0  0  0  0
  1 16  3  0  0  0  0
  2  3  1  0  0  0  0
  2  4  2  0  0  0  0
  3  5  2  0  0  0  0
  4  6  1  0  0  0  0
  5  7  1  0  0  0  0
  5 13  1  0  0  0  0
  6  7  2  0  0  0  0
  6 14  1  0  0  0  0
  7 18  1  0  0  0  0
  8 10  1  0  0  0  0
  8 12  1  0  0  0  0
  9 11  1  0  0  0  0
  9 12  1  0  0  0  0
 10 17  1  0  0  0  0
 11 17  1  0  0  0  0
 12 18  1  0  0  0  0
 15 17  1  0  0  0  0
  2 19  1  0  0  0  0
  3 20  1  0  0  0  0
  4 21  1  0  0  0  0
  8 22  1  0  0  0  0
  8 23  1  0  0  0  0
  9 24  1  0  0  0  0
  9 25  1  0  0  0  0
 10 26  1  0  0  0  0
 10 27  1  0  0  0  0
 11 28  1  0  0  0  0
 11 29  1  0  0  0  0
 12 30  1  0  0  0  0
 13 31  1  0  0  0  0
 13 32  1  0  0  0  0
 13 33  1  0  0  0  0
 14 34  1  0  0  0  0
 14 35  1  0  0  0  0
 14 36  1  0  0  0  0
 15 37  1  0  0  0  0
 15 38  1  0  0  0  0
M  END
> <Catalog ID>
Z644637130

> <PlateID>
1337959-R-08

> <Well>
C03

> <MW (desalted)>
244.332

> <CLogP>
2.495

> <HBD>
0

> <TPSA>
36.260

> <RotBonds>
3

> <ROCS_ShapeQuery>
x0446_0A_x1080_0A_x0929_0A_x0812_0A_x0719_0A_x1140_0A_x0528_0A_x0310_0A

> <ROCS_TanimotoCombo>
0.307 

> <ROCS_ShapeTanimoto>
0.198 

> <ROCS_ColorTanimoto>
0.108 

> <ROCS_RefTversky>
0.185 

> <ROCS_RefColorTversky>
0.116 

> <ROCS_RefTverskyCombo>
0.300 

> <ROCS_FitTversky>
1.600 

> <ROCS_FitColorTversky>
0.623 

> <ROCS_FitTverskyCombo>
2.222 

> <ROCS_ColorScore>
-4.116

> <ROCS_Overlap>
2180.423

> <ROCS_Rank>
314                 

$$$$
untitled-dbase-422_1
  -OEChem-02082415003D

 29 31  0     1  0  0  0  0  0999 V2000
    5.2980   12.4022   24.9022 C   0  0  0  0  0  0  0  0  0  0  0  0
    6.1236   13.4596   25.2775 C   0  0  0  0  0  0  0  0  0  0  0  0
    5.8525   11.2423   24.3606 C   0  0  0  0  0  0  0  0  0  0  0  0
    7.5034   13.3610   25.1045 C   0  0  0  0  0  0  0  0  0  0  0  0
    7.2391   11.1286   24.1941 C   0  0  0  0  0  0  0  0  0  0  0  0
    8.0601   12.2040   24.5530 C   0  0  0  0  0  0  0  0  0  0  0  0
    7.8223    9.8773   23.6079 C   0  0  0  0  0  0  0  0  0  0  0  0
    9.3110    9.7990   23.9166 C   0  0  0  0  0  0  0  0  0  0  0  0
   11.4930   11.0854   23.9601 C   0  0  0  0  0  0  0  0  0  0  0  0
   12.1763   11.9325   22.8889 C   0  0  0  0  0  0  0  0  0  0  0  0
    9.9968   11.5396   22.1485 C   0  0  0  0  0  0  0  0  0  0  0  0
    9.9950   11.1373   23.6255 C   0  0  1  0  0  0  0  0  0  0  0  0
   11.1027   12.4950   22.0749 N   0  0  0  0  0  0  0  0  0  0  0  0
    9.4237   12.1993   24.4175 O   0  0  0  0  0  0  0  0  0  0  0  0
    4.2222   12.4807   25.0296 H   0  0  0  0  0  0  0  0  0  0  0  0
    5.6932   14.3592   25.7076 H   0  0  0  0  0  0  0  0  0  0  0  0
    5.1962   10.4281   24.0634 H   0  0  0  0  0  0  0  0  0  0  0  0
    8.1411   14.1871   25.4084 H   0  0  0  0  0  0  0  0  0  0  0  0
    7.2994    9.0105   24.0286 H   0  0  0  0  0  0  0  0  0  0  0  0
    7.6789    9.8608   22.5212 H   0  0  0  0  0  0  0  0  0  0  0  0
    9.4582    9.4913   24.9589 H   0  0  0  0  0  0  0  0  0  0  0  0
    9.7609    9.0206   23.2841 H   0  0  0  0  0  0  0  0  0  0  0  0
   11.8807   10.0612   23.9037 H   0  0  0  0  0  0  0  0  0  0  0  0
   11.7092   11.4824   24.9579 H   0  0  0  0  0  0  0  0  0  0  0  0
   12.7940   12.7227   23.3278 H   0  0  0  0  0  0  0  0  0  0  0  0
   12.8283   11.3088   22.2673 H   0  0  0  0  0  0  0  0  0  0  0  0
   10.2008   10.6892   21.4881 H   0  0  0  0  0  0  0  0  0  0  0  0
    9.0612   12.0145   21.8377 H   0  0  0  0  0  0  0  0  0  0  0  0
   10.7983   13.3699   22.5054 H   0  0  0  0  0  0  0  0  0  0  0  0
  1  2  2  0  0  0  0
  1  3  1  0  0  0  0
  2  4  1  0  0  0  0
  3  5  2  0  0  0  0
  4  6  2  0  0  0  0
  5  6  1  0  0  0  0
  5  7  1  0  0  0  0
  6 14  1  0  0  0  0
  7  8  1  0  0  0  0
  8 12  1  0  0  0  0
  9 10  1  0  0  0  0
  9 12  1  0  0  0  0
 10 13  1  0  0  0  0
 11 12  1  0  0  0  0
 11 13  1  0  0  0  0
 12 14  1  0  0  0  0
  1 15  1  0  0  0  0
  2 16  1  0  0  0  0
  3 17  1  0  0  0  0
  4 18  1  0  0  0  0
  7 19  1  0  0  0  0
  7 20  1  0  0  0  0
  8 21  1  0  0  0  0
  8 22  1  0  0  0  0
  9 23  1  0  0  0  0
  9 24  1  0  0  0  0
 10 25  1  0  0  0  0
 10 26  1  0  0  0  0
 11 27  1  0  0  0  0
 11 28  1  0  0  0  0
 13 29  1  0  0  0  0
M  END
> <Catalog ID>
Z2146654429

> <PlateID>
1337959-R-09

> <Well>
H11

> <MW (desalted)>
189.254

> <CLogP>
2.018

> <HBD>
1

> <TPSA>
21.260

> <RotBonds>
0

> <ROCS_ShapeQuery>
x0446_0A_x1080_0A_x0929_0A_x0812_0A_x0719_0A_x1140_0A_x0528_0A_x0310_0A

> <ROCS_TanimotoCombo>
0.306 

> <ROCS_ShapeTanimoto>
0.190 

> <ROCS_ColorTanimoto>
0.117 

> <ROCS_RefTversky>
0.176 

> <ROCS_RefColorTversky>
0.127 

> <ROCS_RefTverskyCombo>
0.303 

> <ROCS_FitTversky>
1.694 

> <ROCS_FitColorTversky>
0.596 

> <ROCS_FitTverskyCombo>
2.290 

> <ROCS_ColorScore>
-4.510

> <ROCS_Overlap>
2077.434

> <ROCS_Rank>
315                 

$$$$
untitled-dbase-29_3
  -OEChem-02082415003D

 27 27  0     0  0  0  0  0  0999 V2000
    9.6734   13.6849   23.7528 C   0  0  0  0  0  0  0  0  0  0  0  0
    7.9241   12.1253   22.8599 C   0  0  0  0  0  0  0  0  0  0  0  0
    8.7525   11.9432   25.2657 C   0  0  0  0  0  0  0  0  0  0  0  0
    8.3534   10.6550   22.8073 C   0  0  0  0  0  0  0  0  0  0  0  0
    9.7529   10.8373   24.9074 C   0  0  0  0  0  0  0  0  0  0  0  0
    8.4341   12.8944   24.1012 C   0  0  0  0  0  0  0  0  0  0  0  0
    9.7089   10.4299   23.4426 C   0  0  0  0  0  0  0  0  0  0  0  0
    7.8608   14.7108   25.7201 C   0  0  0  0  0  0  0  0  0  0  0  0
    7.3903   13.9318   24.5398 C   0  0  0  0  0  0  0  0  0  0  0  0
   10.7674   13.5428   24.2784 O   0  0  0  0  0  0  0  0  0  0  0  0
    9.4084   14.5830   22.7727 O   0  0  0  0  0  0  0  0  0  0  0  0
   10.0584    9.1238   23.3293 F   0  0  0  0  0  0  0  0  0  0  0  0
   10.6437   11.1311   22.7484 F   0  0  0  0  0  0  0  0  0  0  0  0
    8.2891   12.6214   21.9447 H   0  0  0  0  0  0  0  0  0  0  0  0
    6.8253   12.1850   22.8011 H   0  0  0  0  0  0  0  0  0  0  0  0
    7.8300   11.4818   25.6504 H   0  0  0  0  0  0  0  0  0  0  0  0
    9.1640   12.5188   26.1106 H   0  0  0  0  0  0  0  0  0  0  0  0
    7.6003   10.0213   23.2966 H   0  0  0  0  0  0  0  0  0  0  0  0
    8.3826   10.3303   21.7574 H   0  0  0  0  0  0  0  0  0  0  0  0
   10.7711   11.1829   25.1573 H   0  0  0  0  0  0  0  0  0  0  0  0
    9.5830    9.9509   25.5434 H   0  0  0  0  0  0  0  0  0  0  0  0
    8.0549   14.0250   26.5531 H   0  0  0  0  0  0  0  0  0  0  0  0
    7.1024   15.4316   26.0435 H   0  0  0  0  0  0  0  0  0  0  0  0
    8.7910   15.2430   25.4945 H   0  0  0  0  0  0  0  0  0  0  0  0
    7.1938   14.6039   23.7039 H   0  0  0  0  0  0  0  0  0  0  0  0
    6.4626   13.4124   24.7819 H   0  0  0  0  0  0  0  0  0  0  0  0
   10.2014   15.1085   22.5332 H   0  0  0  0  0  0  0  0  0  0  0  0
  1  6  1  0  0  0  0
  1 10  2  0  0  0  0
  1 11  1  0  0  0  0
  2  4  1  0  0  0  0
  2  6  1  0  0  0  0
  3  5  1  0  0  0  0
  3  6  1  0  0  0  0
  4  7  1  0  0  0  0
  5  7  1  0  0  0  0
  6  9  1  0  0  0  0
  7 12  1  0  0  0  0
  7 13  1  0  0  0  0
  8  9  1  0  0  0  0
  2 14  1  0  0  0  0
  2 15  1  0  0  0  0
  3 16  1  0  0  0  0
  3 17  1  0  0  0  0
  4 18  1  0  0  0  0
  4 19  1  0  0  0  0
  5 20  1  0  0  0  0
  5 21  1  0  0  0  0
  8 22  1  0  0  0  0
  8 23  1  0  0  0  0
  8 24  1  0  0  0  0
  9 25  1  0  0  0  0
  9 26  1  0  0  0  0
 11 27  1  0  0  0  0
M  END
> <Catalog ID>
Z1486023100

> <PlateID>
1337959-R-01

> <Well>
E03

> <MW (desalted)>
192.203

> <CLogP>
2.271

> <HBD>
1

> <TPSA>
37.300

> <RotBonds>
2

> <ROCS_ShapeQuery>
x0446_0A_x1080_0A_x0929_0A_x0812_0A_x0719_0A_x1140_0A_x0528_0A_x0310_0A

> <ROCS_TanimotoCombo>
0.306 

> <ROCS_ShapeTanimoto>
0.186 

> <ROCS_ColorTanimoto>
0.121 

> <ROCS_RefTversky>
0.172 

> <ROCS_RefColorTversky>
0.128 

> <ROCS_RefTverskyCombo>
0.300 

> <ROCS_FitTversky>
1.762 

> <ROCS_FitColorTversky>
0.687 

> <ROCS_FitTverskyCombo>
2.448 

> <ROCS_ColorScore>
-4.546

> <ROCS_Overlap>
2026.583

> <ROCS_Rank>
316                 

$$$$
untitled-dbase-653_2
  -OEChem-02082415003D

 28 29  0     0  0  0  0  0  0999 V2000
    7.8235   12.1626   25.5672 C   0  0  0  0  0  0  0  0  0  0  0  0
    6.0573   11.0599   24.2101 C   0  0  0  0  0  0  0  0  0  0  0  0
    6.9359   13.4043   25.6493 C   0  0  0  0  0  0  0  0  0  0  0  0
    5.2148   12.3294   24.3364 C   0  0  0  0  0  0  0  0  0  0  0  0
    9.3334    9.7159   23.7063 C   0  0  0  0  0  0  0  0  0  0  0  0
   10.3892   10.8007   23.7543 C   0  0  0  0  0  0  0  0  0  0  0  0
    8.0343   12.0404   22.9942 C   0  0  0  0  0  0  0  0  0  0  0  0
    7.5789   11.3333   24.2877 C   0  0  0  0  0  0  0  0  0  0  0  0
    5.5151   13.0597   25.5690 N   0  0  0  0  0  0  0  0  0  0  0  0
   10.1866   13.4161   23.6371 O   0  0  0  0  0  0  0  0  0  0  0  0
   10.1723   12.0975   21.4871 O   0  0  0  0  0  0  0  0  0  0  0  0
    8.1867   10.0428   24.4851 O   0  0  0  0  0  0  0  0  0  0  0  0
    9.8037   12.2393   22.8827 S   0  0  0  0  0  0  0  0  0  0  0  0
    8.8804   12.4740   25.6063 H   0  0  0  0  0  0  0  0  0  0  0  0
    7.6525   11.5717   26.4758 H   0  0  0  0  0  0  0  0  0  0  0  0
    5.7582   10.3725   25.0164 H   0  0  0  0  0  0  0  0  0  0  0  0
    5.8138   10.5591   23.2595 H   0  0  0  0  0  0  0  0  0  0  0  0
    7.1376   13.9644   26.5717 H   0  0  0  0  0  0  0  0  0  0  0  0
    7.1793   14.0731   24.8146 H   0  0  0  0  0  0  0  0  0  0  0  0
    5.4245   12.9840   23.4815 H   0  0  0  0  0  0  0  0  0  0  0  0
    4.1441   12.0899   24.2920 H   0  0  0  0  0  0  0  0  0  0  0  0
    8.9895    9.6041   22.6692 H   0  0  0  0  0  0  0  0  0  0  0  0
    9.7354    8.7377   23.9993 H   0  0  0  0  0  0  0  0  0  0  0  0
   10.6154   11.1000   24.7751 H   0  0  0  0  0  0  0  0  0  0  0  0
   11.2993   10.4814   23.2478 H   0  0  0  0  0  0  0  0  0  0  0  0
    7.7656   11.4357   22.1231 H   0  0  0  0  0  0  0  0  0  0  0  0
    7.5841   13.0282   22.8854 H   0  0  0  0  0  0  0  0  0  0  0  0
    5.2607   12.4866   26.3711 H   0  0  0  0  0  0  0  0  0  0  0  0
  1  3  1  0  0  0  0
  1  8  1  0  0  0  0
  2  4  1  0  0  0  0
  2  8  1  0  0  0  0
  3  9  1  0  0  0  0
  4  9  1  0  0  0  0
  5  6  1  0  0  0  0
  5 12  1  0  0  0  0
  6 13  1  0  0  0  0
  7  8  1  0  0  0  0
  7 13  1  0  0  0  0
  8 12  1  0  0  0  0
 10 13  2  0  0  0  0
 11 13  2  0  0  0  0
  1 14  1  0  0  0  0
  1 15  1  0  0  0  0
  2 16  1  0  0  0  0
  2 17  1  0  0  0  0
  3 18  1  0  0  0  0
  3 19  1  0  0  0  0
  4 20  1  0  0  0  0
  4 21  1  0  0  0  0
  5 22  1  0  0  0  0
  5 23  1  0  0  0  0
  6 24  1  0  0  0  0
  6 25  1  0  0  0  0
  7 26  1  0  0  0  0
  7 27  1  0  0  0  0
  9 28  1  0  0  0  0
M  END
> <Catalog ID>
Z4573562275

> <PlateID>
1337959-R-15

> <Well>
C05

> <MW (desalted)>
205.275

> <CLogP>
-1.788

> <HBD>
1

> <TPSA>
55.400

> <RotBonds>
0

> <ROCS_ShapeQuery>
x0446_0A_x1080_0A_x0929_0A_x0812_0A_x0719_0A_x1140_0A_x0528_0A_x0310_0A

> <ROCS_TanimotoCombo>
0.306 

> <ROCS_ShapeTanimoto>
0.177 

> <ROCS_ColorTanimoto>
0.129 

> <ROCS_RefTversky>
0.165 

> <ROCS_RefColorTversky>
0.142 

> <ROCS_RefTverskyCombo>
0.307 

> <ROCS_FitTversky>
1.712 

> <ROCS_FitColorTversky>
0.595 

> <ROCS_FitTverskyCombo>
2.307 

> <ROCS_ColorScore>
-5.067

> <ROCS_Overlap>
1942.299

> <ROCS_Rank>
317                 

$$$$
untitled-dbase-483_8
  -OEChem-02082415003D

 34 35  0     1  0  0  0  0  0999 V2000
    9.0466   12.3165   23.6248 C   0  0  0  0  0  0  0  0  0  0  0  0
    8.5427   11.5380   24.6839 C   0  0  0  0  0  0  0  0  0  0  0  0
    9.2695   11.4155   22.6123 C   0  0  0  0  0  0  0  0  0  0  0  0
   11.1224   15.9237   21.1014 C   0  0  0  0  0  0  0  0  0  0  0  0
   10.3057   15.5786   22.3492 C   0  0  0  0  0  0  0  0  0  0  0  0
   11.6714   13.7932   23.3638 C   0  0  0  0  0  0  0  0  0  0  0  0
   12.5207   16.4774   21.3515 C   0  0  0  0  0  0  0  0  0  0  0  0
   12.9154   13.9428   22.4879 C   0  0  0  0  0  0  0  0  0  0  0  0
    8.1323   11.9930   26.0242 C   0  0  0  0  0  0  0  0  0  0  0  0
    9.7854   11.5756   21.2422 C   0  0  0  0  0  0  0  0  0  0  0  0
    9.2870   13.7983   23.6004 C   0  0  0  0  0  0  0  0  0  0  0  0
    8.4505   10.2423   24.3731 N   0  0  0  0  0  0  0  0  0  0  0  0
    8.8996   10.1996   23.1071 N   0  0  0  0  0  0  0  0  0  0  0  0
   10.4032   14.1593   22.7179 N   0  0  1  0  0  0  0  0  0  0  0  0
   13.5903   15.6252   22.5450 S   0  0  0  0  0  0  0  0  0  0  0  0
   11.1849   15.0484   20.4468 H   0  0  0  0  0  0  0  0  0  0  0  0
   10.5668   16.6809   20.5386 H   0  0  0  0  0  0  0  0  0  0  0  0
   10.5547   16.2455   23.1938 H   0  0  0  0  0  0  0  0  0  0  0  0
    9.2576   15.8246   22.1012 H   0  0  0  0  0  0  0  0  0  0  0  0
   11.6032   12.7505   23.6701 H   0  0  0  0  0  0  0  0  0  0  0  0
   11.8288   14.3874   24.2624 H   0  0  0  0  0  0  0  0  0  0  0  0
   13.0651   16.4924   20.3813 H   0  0  0  0  0  0  0  0  0  0  0  0
   12.4524   17.5515   21.6392 H   0  0  0  0  0  0  0  0  0  0  0  0
   13.6869   13.2328   22.7762 H   0  0  0  0  0  0  0  0  0  0  0  0
   12.6477   13.7297   21.4546 H   0  0  0  0  0  0  0  0  0  0  0  0
    7.0640   12.2674   26.0434 H   0  0  0  0  0  0  0  0  0  0  0  0
    8.2908   11.2170   26.7938 H   0  0  0  0  0  0  0  0  0  0  0  0
    8.7086   12.8735   26.3593 H   0  0  0  0  0  0  0  0  0  0  0  0
   10.8835   11.4703   21.2128 H   0  0  0  0  0  0  0  0  0  0  0  0
    9.3613   10.8294   20.5469 H   0  0  0  0  0  0  0  0  0  0  0  0
    9.5346   12.5630   20.8148 H   0  0  0  0  0  0  0  0  0  0  0  0
    8.3948   14.3285   23.2498 H   0  0  0  0  0  0  0  0  0  0  0  0
    9.5168   14.1756   24.6024 H   0  0  0  0  0  0  0  0  0  0  0  0
    8.9289    9.3018   22.6399 H   0  0  0  0  0  0  0  0  0  0  0  0
  1  2  1  0  0  0  0
  1  3  2  0  0  0  0
  1 11  1  0  0  0  0
  2  9  1  0  0  0  0
  2 12  2  0  0  0  0
  3 10  1  0  0  0  0
  3 13  1  0  0  0  0
  4  5  1  0  0  0  0
  4  7  1  0  0  0  0
  5 14  1  0  0  0  0
  6  8  1  0  0  0  0
  6 14  1  0  0  0  0
  7 15  1  0  0  0  0
  8 15  1  0  0  0  0
 11 14  1  0  0  0  0
 12 13  1  0  0  0  0
  4 16  1  0  0  0  0
  4 17  1  0  0  0  0
  5 18  1  0  0  0  0
  5 19  1  0  0  0  0
  6 20  1  0  0  0  0
  6 21  1  0  0  0  0
  7 22  1  0  0  0  0
  7 23  1  0  0  0  0
  8 24  1  0  0  0  0
  8 25  1  0  0  0  0
  9 26  1  0  0  0  0
  9 27  1  0  0  0  0
  9 28  1  0  0  0  0
 10 29  1  0  0  0  0
 10 30  1  0  0  0  0
 10 31  1  0  0  0  0
 11 32  1  0  0  0  0
 11 33  1  0  0  0  0
 13 34  1  0  0  0  0
M  END
> <Catalog ID>
Z1671921890

> <PlateID>
1337959-R-11

> <Well>
E10

> <MW (desalted)>
225.354

> <CLogP>
1.318

> <HBD>
1

> <TPSA>
31.920

> <RotBonds>
2

> <ROCS_ShapeQuery>
x0446_0A_x1080_0A_x0929_0A_x0812_0A_x0719_0A_x1140_0A_x0528_0A_x0310_0A

> <ROCS_TanimotoCombo>
0.306 

> <ROCS_ShapeTanimoto>
0.192 

> <ROCS_ColorTanimoto>
0.115 

> <ROCS_RefTversky>
0.177 

> <ROCS_RefColorTversky>
0.122 

> <ROCS_RefTverskyCombo>
0.299 

> <ROCS_FitTversky>
1.715 

> <ROCS_FitColorTversky>
0.656 

> <ROCS_FitTverskyCombo>
2.372 

> <ROCS_ColorScore>
-4.338

> <ROCS_Overlap>
2091.675

> <ROCS_Rank>
318                 

$$$$
untitled-dbase-529_19
  -OEChem-02082415003D

 31 32  0     0  0  0  0  0  0999 V2000
    6.4074   11.6573   24.9381 C   0  0  0  0  0  0  0  0  0  0  0  0
    9.0225    9.5243   23.3669 C   0  0  0  0  0  0  0  0  0  0  0  0
    7.8287    9.9180   23.9713 C   0  0  0  0  0  0  0  0  0  0  0  0
   10.0182   10.4668   23.1100 C   0  0  0  0  0  0  0  0  0  0  0  0
    8.6260   12.1969   24.0617 C   0  0  0  0  0  0  0  0  0  0  0  0
    7.6304   11.2543   24.3187 C   0  0  0  0  0  0  0  0  0  0  0  0
    9.8199   11.8031   23.4574 C   0  0  0  0  0  0  0  0  0  0  0  0
   11.3623   16.4022   20.8864 C   0  0  0  0  0  0  0  0  0  0  0  0
   10.8697   15.8032   19.5673 C   0  0  0  0  0  0  0  0  0  0  0  0
   10.3746   15.9352   21.9542 C   0  0  0  0  0  0  0  0  0  0  0  0
    9.6123   15.0066   19.9116 C   0  0  0  0  0  0  0  0  0  0  0  0
    9.7616   14.6558   21.3900 C   0  0  0  0  0  0  0  0  0  0  0  0
    5.4141   11.9845   25.4412 N   0  0  0  0  0  0  0  0  0  0  0  0
   10.6680   13.5235   21.5666 N   0  0  0  0  0  0  0  0  0  0  0  0
   10.9131   14.0931   24.0665 O   0  0  0  0  0  0  0  0  0  0  0  0
   12.3400   12.2765   23.0724 O   0  0  0  0  0  0  0  0  0  0  0  0
   11.0825   12.9967   23.1321 S   0  0  0  0  0  0  0  0  0  0  0  0
    9.1767    8.4837   23.0962 H   0  0  0  0  0  0  0  0  0  0  0  0
    7.0620    9.1714   24.1654 H   0  0  0  0  0  0  0  0  0  0  0  0
   10.9442   10.1489   22.6392 H   0  0  0  0  0  0  0  0  0  0  0  0
    8.4754   13.2402   24.3314 H   0  0  0  0  0  0  0  0  0  0  0  0
   12.3824   16.0843   21.1223 H   0  0  0  0  0  0  0  0  0  0  0  0
   11.3639   17.4960   20.8217 H   0  0  0  0  0  0  0  0  0  0  0  0
   10.6301   16.6060   18.8611 H   0  0  0  0  0  0  0  0  0  0  0  0
   11.6271   15.1673   19.0990 H   0  0  0  0  0  0  0  0  0  0  0  0
   10.9102   15.7362   22.8965 H   0  0  0  0  0  0  0  0  0  0  0  0
    9.6139   16.6977   22.1752 H   0  0  0  0  0  0  0  0  0  0  0  0
    8.6942   15.5772   19.7107 H   0  0  0  0  0  0  0  0  0  0  0  0
    9.5640   14.0963   19.2924 H   0  0  0  0  0  0  0  0  0  0  0  0
    8.7959   14.4464   21.8466 H   0  0  0  0  0  0  0  0  0  0  0  0
   10.7020   12.8525   20.7913 H   0  0  0  0  0  0  0  0  0  0  0  0
  1  6  1  0  0  0  0
  1 13  3  0  0  0  0
  2  3  2  0  0  0  0
  2  4  1  0  0  0  0
  3  6  1  0  0  0  0
  4  7  2  0  0  0  0
  5  6  2  0  0  0  0
  5  7  1  0  0  0  0
  7 17  1  0  0  0  0
  8  9  1  0  0  0  0
  8 10  1  0  0  0  0
  9 11  1  0  0  0  0
 10 12  1  0  0  0  0
 11 12  1  0  0  0  0
 12 14  1  0  0  0  0
 14 17  1  0  0  0  0
 15 17  2  0  0  0  0
 16 17  2  0  0  0  0
  2 18  1  0  0  0  0
  3 19  1  0  0  0  0
  4 20  1  0  0  0  0
  5 21  1  0  0  0  0
  8 22  1  0  0  0  0
  8 23  1  0  0  0  0
  9 24  1  0  0  0  0
  9 25  1  0  0  0  0
 10 26  1  0  0  0  0
 10 27  1  0  0  0  0
 11 28  1  0  0  0  0
 11 29  1  0  0  0  0
 12 30  1  0  0  0  0
 14 31  1  0  0  0  0
M  END
> <Catalog ID>
Z45537442

> <PlateID>
1337959-R-12

> <Well>
E02

> <MW (desalted)>
250.317

> <CLogP>
2.528

> <HBD>
1

> <TPSA>
69.960

> <RotBonds>
2

> <ROCS_ShapeQuery>
x0446_0A_x1080_0A_x0929_0A_x0812_0A_x0719_0A_x1140_0A_x0528_0A_x0310_0A

> <ROCS_TanimotoCombo>
0.306 

> <ROCS_ShapeTanimoto>
0.204 

> <ROCS_ColorTanimoto>
0.101 

> <ROCS_RefTversky>
0.188 

> <ROCS_RefColorTversky>
0.112 

> <ROCS_RefTverskyCombo>
0.300 

> <ROCS_FitTversky>
1.705 

> <ROCS_FitColorTversky>
0.526 

> <ROCS_FitTverskyCombo>
2.231 

> <ROCS_ColorScore>
-3.979

> <ROCS_Overlap>
2223.540

> <ROCS_Rank>
319                 

$$$$
untitled-dbase-188_20
  -OEChem-02082415003D

 35 36  0     0  0  0  0  0  0999 V2000
    8.2974   12.5135   24.3597 C   0  0  0  0  0  0  0  0  0  0  0  0
    8.2126   11.3679   25.1509 C   0  0  0  0  0  0  0  0  0  0  0  0
    9.3954   11.2360   22.6278 C   0  0  0  0  0  0  0  0  0  0  0  0
    8.8888   12.4476   23.0981 C   0  0  0  0  0  0  0  0  0  0  0  0
    9.3106   10.0904   23.4190 C   0  0  0  0  0  0  0  0  0  0  0  0
    8.7191   10.1564   24.6806 C   0  0  0  0  0  0  0  0  0  0  0  0
    8.9780   13.6570   22.2634 C   0  0  0  0  0  0  0  0  0  0  0  0
   11.4520   13.9819   22.7503 C   0  0  0  0  0  0  0  0  0  0  0  0
   10.0164   15.8891   22.0913 C   0  0  0  0  0  0  0  0  0  0  0  0
   12.5185   14.8866   22.1467 C   0  0  0  0  0  0  0  0  0  0  0  0
   11.0671   16.6638   22.8732 C   0  0  0  0  0  0  0  0  0  0  0  0
    9.8613    8.8059   22.8906 C   0  0  0  0  0  0  0  0  0  0  0  0
    7.5682    8.8098   26.4378 C   0  0  0  0  0  0  0  0  0  0  0  0
   10.1124   14.4614   22.3896 N   0  0  0  0  0  0  0  0  0  0  0  0
    8.6245    9.0069   25.4954 N   0  0  0  0  0  0  0  0  0  0  0  0
    8.0338   13.8783   21.5064 O   0  0  0  0  0  0  0  0  0  0  0  0
   12.4012   16.2439   22.5782 O   0  0  0  0  0  0  0  0  0  0  0  0
    7.8994   13.4524   24.7361 H   0  0  0  0  0  0  0  0  0  0  0  0
    7.7495   11.4314   26.1324 H   0  0  0  0  0  0  0  0  0  0  0  0
    9.8567   11.1838   21.6441 H   0  0  0  0  0  0  0  0  0  0  0  0
   11.6138   12.9476   22.4358 H   0  0  0  0  0  0  0  0  0  0  0  0
   11.5061   14.0154   23.8455 H   0  0  0  0  0  0  0  0  0  0  0  0
    9.0107   16.2023   22.3942 H   0  0  0  0  0  0  0  0  0  0  0  0
   10.1217   16.0730   21.0182 H   0  0  0  0  0  0  0  0  0  0  0  0
   13.5198   14.5318   22.4464 H   0  0  0  0  0  0  0  0  0  0  0  0
   12.4949   14.8509   21.0410 H   0  0  0  0  0  0  0  0  0  0  0  0
   10.9781   17.7546   22.6953 H   0  0  0  0  0  0  0  0  0  0  0  0
   10.9074   16.5166   23.9574 H   0  0  0  0  0  0  0  0  0  0  0  0
   10.9148    8.7002   23.1734 H   0  0  0  0  0  0  0  0  0  0  0  0
    9.3053    7.9458   23.2831 H   0  0  0  0  0  0  0  0  0  0  0  0
    9.7861    8.7633   21.7972 H   0  0  0  0  0  0  0  0  0  0  0  0
    6.8841    9.6707   26.4079 H   0  0  0  0  0  0  0  0  0  0  0  0
    7.0156    7.8935   26.1826 H   0  0  0  0  0  0  0  0  0  0  0  0
    7.9918    8.7131   27.4483 H   0  0  0  0  0  0  0  0  0  0  0  0
    9.3423    8.3163   25.3890 H   0  0  0  0  0  0  0  0  0  0  0  0
  1  2  1  0  0  0  0
  1  4  2  0  0  0  0
  2  6  2  0  0  0  0
  3  4  1  0  0  0  0
  3  5  2  0  0  0  0
  4  7  1  0  0  0  0
  5  6  1  0  0  0  0
  5 12  1  0  0  0  0
  6 15  1  0  0  0  0
  7 14  1  0  0  0  0
  7 16  2  0  0  0  0
  8 10  1  0  0  0  0
  8 14  1  0  0  0  0
  9 11  1  0  0  0  0
  9 14  1  0  0  0  0
 10 17  1  0  0  0  0
 11 17  1  0  0  0  0
 13 15  1  0  0  0  0
  1 18  1  0  0  0  0
  2 19  1  0  0  0  0
  3 20  1  0  0  0  0
  8 21  1  0  0  0  0
  8 22  1  0  0  0  0
  9 23  1  0  0  0  0
  9 24  1  0  0  0  0
 10 25  1  0  0  0  0
 10 26  1  0  0  0  0
 11 27  1  0  0  0  0
 11 28  1  0  0  0  0
 12 29  1  0  0  0  0
 12 30  1  0  0  0  0
 12 31  1  0  0  0  0
 13 32  1  0  0  0  0
 13 33  1  0  0  0  0
 13 34  1  0  0  0  0
 15 35  1  0  0  0  0
M  END
> <Catalog ID>
Z1098326229

> <PlateID>
1337959-R-04

> <Well>
G07

> <MW (desalted)>
234.294

> <CLogP>
1.321

> <HBD>
1

> <TPSA>
41.570

> <RotBonds>
2

> <ROCS_ShapeQuery>
x0446_0A_x1080_0A_x0929_0A_x0812_0A_x0719_0A_x1140_0A_x0528_0A_x0310_0A

> <ROCS_TanimotoCombo>
0.306 

> <ROCS_ShapeTanimoto>
0.203 

> <ROCS_ColorTanimoto>
0.103 

> <ROCS_RefTversky>
0.188 

> <ROCS_RefColorTversky>
0.111 

> <ROCS_RefTverskyCombo>
0.298 

> <ROCS_FitTversky>
1.665 

> <ROCS_FitColorTversky>
0.595 

> <ROCS_FitTverskyCombo>
2.260 

> <ROCS_ColorScore>
-3.933

> <ROCS_Overlap>
2215.889

> <ROCS_Rank>
320                 

$$$$
untitled-dbase-661_65
  -OEChem-02082415003D

 34 35  0     0  0  0  0  0  0999 V2000
    9.5591   10.0320   23.6628 C   0  0  0  0  0  0  0  0  0  0  0  0
    8.3407    9.7871   24.2961 C   0  0  0  0  0  0  0  0  0  0  0  0
    7.7817   12.1315   24.1271 C   0  0  0  0  0  0  0  0  0  0  0  0
    9.0001   12.3764   23.4939 C   0  0  0  0  0  0  0  0  0  0  0  0
    9.8889   11.3267   23.2617 C   0  0  0  0  0  0  0  0  0  0  0  0
    7.4520   10.8368   24.5282 C   0  0  0  0  0  0  0  0  0  0  0  0
    6.3666   14.3649   20.7779 C   0  0  0  0  0  0  0  0  0  0  0  0
    9.3240   13.7514   23.0822 C   0  0  0  0  0  0  0  0  0  0  0  0
    7.6868   13.7028   21.1466 C   0  0  0  0  0  0  0  0  0  0  0  0
    6.9206   16.2300   22.3367 C   0  0  0  0  0  0  0  0  0  0  0  0
    8.3731   15.8417   22.1792 C   0  0  0  0  0  0  0  0  0  0  0  0
   11.2018   11.5618   22.5886 C   0  0  0  0  0  0  0  0  0  0  0  0
    5.6555   12.1140   26.1576 C   0  0  0  0  0  0  0  0  0  0  0  0
    6.1047   15.6024   21.3198 N   0  0  0  0  0  0  0  0  0  0  0  0
    8.4718   14.3878   22.1732 N   0  0  0  0  0  0  0  0  0  0  0  0
    5.6005   13.8203   19.9801 O   0  0  0  0  0  0  0  0  0  0  0  0
   10.3391   14.2430   23.5736 O   0  0  0  0  0  0  0  0  0  0  0  0
    5.8951   10.5229   25.3371 S   0  0  0  0  0  0  0  0  0  0  0  0
   10.2448    9.2068   23.4889 H   0  0  0  0  0  0  0  0  0  0  0  0
    8.1024    8.7717   24.6031 H   0  0  0  0  0  0  0  0  0  0  0  0
    7.0933   12.9552   24.3059 H   0  0  0  0  0  0  0  0  0  0  0  0
    7.4637   12.7008   21.5305 H   0  0  0  0  0  0  0  0  0  0  0  0
    8.2737   13.5997   20.2290 H   0  0  0  0  0  0  0  0  0  0  0  0
    6.5367   15.9162   23.3123 H   0  0  0  0  0  0  0  0  0  0  0  0
    6.7857   17.3133   22.2465 H   0  0  0  0  0  0  0  0  0  0  0  0
    8.7789   16.2638   21.2543 H   0  0  0  0  0  0  0  0  0  0  0  0
    8.9810   16.2183   23.0104 H   0  0  0  0  0  0  0  0  0  0  0  0
   11.0971   11.4498   21.5034 H   0  0  0  0  0  0  0  0  0  0  0  0
   11.5812   12.5685   22.8016 H   0  0  0  0  0  0  0  0  0  0  0  0
   11.9604   10.8528   22.9422 H   0  0  0  0  0  0  0  0  0  0  0  0
    4.7189   12.1047   26.7204 H   0  0  0  0  0  0  0  0  0  0  0  0
    5.6161   12.9131   25.4132 H   0  0  0  0  0  0  0  0  0  0  0  0
    6.4834   12.3057   26.8444 H   0  0  0  0  0  0  0  0  0  0  0  0
    5.2888   16.1059   20.9855 H   0  0  0  0  0  0  0  0  0  0  0  0
  1  2  1  0  0  0  0
  1  5  2  0  0  0  0
  2  6  2  0  0  0  0
  3  4  2  0  0  0  0
  3  6  1  0  0  0  0
  4  5  1  0  0  0  0
  4  8  1  0  0  0  0
  5 12  1  0  0  0  0
  6 18  1  0  0  0  0
  7  9  1  0  0  0  0
  7 14  1  0  0  0  0
  7 16  2  0  0  0  0
  8 15  1  0  0  0  0
  8 17  2  0  0  0  0
  9 15  1  0  0  0  0
 10 11  1  0  0  0  0
 10 14  1  0  0  0  0
 11 15  1  0  0  0  0
 13 18  1  0  0  0  0
  1 19  1  0  0  0  0
  2 20  1  0  0  0  0
  3 21  1  0  0  0  0
  9 22  1  0  0  0  0
  9 23  1  0  0  0  0
 10 24  1  0  0  0  0
 10 25  1  0  0  0  0
 11 26  1  0  0  0  0
 11 27  1  0  0  0  0
 12 28  1  0  0  0  0
 12 29  1  0  0  0  0
 12 30  1  0  0  0  0
 13 31  1  0  0  0  0
 13 32  1  0  0  0  0
 13 33  1  0  0  0  0
 14 34  1  0  0  0  0
M  END
> <Catalog ID>
Z282312156

> <PlateID>
1337959-R-15

> <Well>
D11

> <MW (desalted)>
264.343

> <CLogP>
1.721

> <HBD>
1

> <TPSA>
49.410

> <RotBonds>
2

> <ROCS_ShapeQuery>
x0446_0A_x1080_0A_x0929_0A_x0812_0A_x0719_0A_x1140_0A_x0528_0A_x0310_0A

> <ROCS_TanimotoCombo>
0.306 

> <ROCS_ShapeTanimoto>
0.207 

> <ROCS_ColorTanimoto>
0.098 

> <ROCS_RefTversky>
0.192 

> <ROCS_RefColorTversky>
0.109 

> <ROCS_RefTverskyCombo>
0.300 

> <ROCS_FitTversky>
1.662 

> <ROCS_FitColorTversky>
0.512 

> <ROCS_FitTverskyCombo>
2.174 

> <ROCS_ColorScore>
-3.868

> <ROCS_Overlap>
2260.963

> <ROCS_Rank>
321                 

$$$$
untitled-dbase-193_3
  -OEChem-02082415003D

 23 24  0     0  0  0  0  0  0999 V2000
    7.2610   11.0104   24.2030 C   0  0  0  0  0  0  0  0  0  0  0  0
    8.0582    9.8661   24.2281 C   0  0  0  0  0  0  0  0  0  0  0  0
    7.8147   12.2384   23.8406 C   0  0  0  0  0  0  0  0  0  0  0  0
    9.4091    9.9497   23.8909 C   0  0  0  0  0  0  0  0  0  0  0  0
    9.1656   12.3220   23.5035 C   0  0  0  0  0  0  0  0  0  0  0  0
    9.9628   11.1777   23.5286 C   0  0  0  0  0  0  0  0  0  0  0  0
    9.6950   13.6091   23.1348 C   0  0  0  0  0  0  0  0  0  0  0  0
    9.9406   15.3913   22.0762 C   0  0  0  0  0  0  0  0  0  0  0  0
   11.8227   16.3044   23.4941 C   0  0  0  0  0  0  0  0  0  0  0  0
    9.2037   14.3048   22.0675 N   0  0  0  0  0  0  0  0  0  0  0  0
   10.6895   14.1968   23.8035 N   0  0  0  0  0  0  0  0  0  0  0  0
   10.8271   15.3348   23.1061 N   0  0  0  0  0  0  0  0  0  0  0  0
    9.9205   16.4602   21.2487 N   0  0  0  0  0  0  0  0  0  0  0  0
   11.6431   11.2219   23.1199 Cl  0  0  0  0  0  0  0  0  0  0  0  0
    6.2091   10.9450   24.4647 H   0  0  0  0  0  0  0  0  0  0  0  0
    7.6270    8.9104   24.5113 H   0  0  0  0  0  0  0  0  0  0  0  0
    7.1770   13.1194   23.8253 H   0  0  0  0  0  0  0  0  0  0  0  0
   10.0156    9.0479   23.9158 H   0  0  0  0  0  0  0  0  0  0  0  0
   11.3623   16.9938   24.2067 H   0  0  0  0  0  0  0  0  0  0  0  0
   12.6718   15.7905   23.9533 H   0  0  0  0  0  0  0  0  0  0  0  0
   12.1672   16.8433   22.6071 H   0  0  0  0  0  0  0  0  0  0  0  0
    9.2953   16.5070   20.4318 H   0  0  0  0  0  0  0  0  0  0  0  0
   10.5932   17.2345   21.3404 H   0  0  0  0  0  0  0  0  0  0  0  0
  1  2  2  0  0  0  0
  1  3  1  0  0  0  0
  2  4  1  0  0  0  0
  3  5  2  0  0  0  0
  4  6  2  0  0  0  0
  5  6  1  0  0  0  0
  5  7  1  0  0  0  0
  6 14  1  0  0  0  0
  7 10  1  0  0  0  0
  7 11  2  0  0  0  0
  8 10  2  0  0  0  0
  8 12  1  0  0  0  0
  8 13  1  0  0  0  0
  9 12  1  0  0  0  0
 11 12  1  0  0  0  0
  1 15  1  0  0  0  0
  2 16  1  0  0  0  0
  3 17  1  0  0  0  0
  4 18  1  0  0  0  0
  9 19  1  0  0  0  0
  9 20  1  0  0  0  0
  9 21  1  0  0  0  0
 13 22  1  0  0  0  0
 13 23  1  0  0  0  0
M  END
> <Catalog ID>
Z1675005275

> <PlateID>
1337959-R-04

> <Well>
H06

> <MW (desalted)>
208.648

> <CLogP>
1.528

> <HBD>
1

> <TPSA>
56.730

> <RotBonds>
1

> <ROCS_ShapeQuery>
x0446_0A_x1080_0A_x0929_0A_x0812_0A_x0719_0A_x1140_0A_x0528_0A_x0310_0A

> <ROCS_TanimotoCombo>
0.306 

> <ROCS_ShapeTanimoto>
0.187 

> <ROCS_ColorTanimoto>
0.118 

> <ROCS_RefTversky>
0.174 

> <ROCS_RefColorTversky>
0.128 

> <ROCS_RefTverskyCombo>
0.302 

> <ROCS_FitTversky>
1.678 

> <ROCS_FitColorTversky>
0.603 

> <ROCS_FitTverskyCombo>
2.281 

> <ROCS_ColorScore>
-4.571

> <ROCS_Overlap>
2054.078

> <ROCS_Rank>
322                 

$$$$
untitled-dbase-275_0
  -OEChem-02082415003D

 27 28  0     1  0  0  0  0  0999 V2000
    8.6259   12.6178   22.8072 C   0  0  0  0  0  0  0  0  0  0  0  0
    8.1202   13.4118   21.8546 C   0  0  0  0  0  0  0  0  0  0  0  0
    8.1723   11.5468   25.0484 C   0  0  0  0  0  0  0  0  0  0  0  0
   10.4733   11.2723   23.9681 C   0  0  0  0  0  0  0  0  0  0  0  0
    7.7182   11.6838   23.5550 C   0  0  2  0  0  0  0  0  0  0  0  0
   10.1010   12.5268   23.1366 C   0  0  2  0  0  0  0  0  0  0  0  0
    9.2244   10.5389   24.4954 C   0  0  2  0  0  0  0  0  0  0  0  0
    8.1383   10.1589   23.4018 C   0  0  0  0  0  0  0  0  0  0  0  0
    7.0724    9.1495   23.8708 C   0  0  0  0  0  0  0  0  0  0  0  0
    8.6529    9.6901   22.0348 C   0  0  0  0  0  0  0  0  0  0  0  0
   10.4402   13.6908   23.8956 O   0  0  0  0  0  0  0  0  0  0  0  0
    8.7609   14.0897   21.3073 H   0  0  0  0  0  0  0  0  0  0  0  0
    7.0646   13.3852   21.6205 H   0  0  0  0  0  0  0  0  0  0  0  0
    8.5638   12.4475   25.5331 H   0  0  0  0  0  0  0  0  0  0  0  0
    7.4259   11.1251   25.7296 H   0  0  0  0  0  0  0  0  0  0  0  0
   11.0506   10.5794   23.3443 H   0  0  0  0  0  0  0  0  0  0  0  0
   11.1183   11.5428   24.8129 H   0  0  0  0  0  0  0  0  0  0  0  0
    6.6515   11.8952   23.4250 H   0  0  0  0  0  0  0  0  0  0  0  0
   10.7026   12.5530   22.2205 H   0  0  0  0  0  0  0  0  0  0  0  0
    9.4915    9.7264   25.1793 H   0  0  0  0  0  0  0  0  0  0  0  0
    7.4490    8.1429   23.7276 H   0  0  0  0  0  0  0  0  0  0  0  0
    6.1691    9.2902   23.2880 H   0  0  0  0  0  0  0  0  0  0  0  0
    6.8621    9.3172   24.9211 H   0  0  0  0  0  0  0  0  0  0  0  0
    8.8989    8.6329   22.0834 H   0  0  0  0  0  0  0  0  0  0  0  0
    9.5409   10.2564   21.7683 H   0  0  0  0  0  0  0  0  0  0  0  0
    7.8835    9.8486   21.2842 H   0  0  0  0  0  0  0  0  0  0  0  0
   11.3844   13.6170   24.0975 H   0  0  0  0  0  0  0  0  0  0  0  0
  1  2  2  0  0  0  0
  1  5  1  0  0  0  0
  1  6  1  0  0  0  0
  3  5  1  6  0  0  0
  3  7  1  1  0  0  0
  4  6  1  0  0  0  0
  4  7  1  0  0  0  0
  5  8  1  0  0  0  0
  6 11  1  6  0  0  0
  7  8  1  0  0  0  0
  8  9  1  0  0  0  0
  8 10  1  0  0  0  0
  2 12  1  0  0  0  0
  2 13  1  0  0  0  0
  3 14  1  0  0  0  0
  3 15  1  0  0  0  0
  4 16  1  0  0  0  0
  4 17  1  0  0  0  0
  5 18  1  0  0  0  0
  6 19  1  0  0  0  0
  7 20  1  0  0  0  0
  9 21  1  0  0  0  0
  9 22  1  0  0  0  0
  9 23  1  0  0  0  0
 10 24  1  0  0  0  0
 10 25  1  0  0  0  0
 10 26  1  0  0  0  0
 11 27  1  0  0  0  0
M  END
> <Catalog ID>
Z1822461793

> <PlateID>
1337959-R-06

> <Well>
G02

> <MW (desalted)>
152.233

> <CLogP>
2.815

> <HBD>
1

> <TPSA>
20.230

> <RotBonds>
0

> <ROCS_ShapeQuery>
x0446_0A_x1080_0A_x0929_0A_x0812_0A_x0719_0A_x1140_0A_x0528_0A_x0310_0A

> <ROCS_TanimotoCombo>
0.306 

> <ROCS_ShapeTanimoto>
0.165 

> <ROCS_ColorTanimoto>
0.141 

> <ROCS_RefTversky>
0.154 

> <ROCS_RefColorTversky>
0.159 

> <ROCS_RefTverskyCombo>
0.314 

> <ROCS_FitTversky>
1.707 

> <ROCS_FitColorTversky>
0.545 

> <ROCS_FitTverskyCombo>
2.252 

> <ROCS_ColorScore>
-5.705

> <ROCS_Overlap>
1820.026

> <ROCS_Rank>
323                 

$$$$
untitled-dbase-254_3
  -OEChem-02082415003D

 30 31  0     0  0  0  0  0  0999 V2000
    5.8077   12.7703   25.3539 C   0  0  0  0  0  0  0  0  0  0  0  0
    5.7755   11.4081   25.5953 C   0  0  0  0  0  0  0  0  0  0  0  0
    6.7535   13.3006   24.4727 C   0  0  0  0  0  0  0  0  0  0  0  0
    6.7001   10.5837   24.9645 C   0  0  0  0  0  0  0  0  0  0  0  0
    7.7036   12.4912   23.8084 C   0  0  0  0  0  0  0  0  0  0  0  0
    7.6720   11.0995   24.0778 C   0  0  0  0  0  0  0  0  0  0  0  0
   10.6430   11.3855   22.9042 C   0  0  0  0  0  0  0  0  0  0  0  0
   10.1491   12.8160   23.0943 C   0  0  0  0  0  0  0  0  0  0  0  0
   10.0091   10.3956   23.8596 C   0  0  0  0  0  0  0  0  0  0  0  0
    8.6597   13.1044   22.7587 C   0  0  0  0  0  0  0  0  0  0  0  0
    8.2767   12.5795   21.3549 C   0  0  0  0  0  0  0  0  0  0  0  0
    8.5560   14.6547   22.6690 C   0  0  0  0  0  0  0  0  0  0  0  0
    8.6041   10.1902   23.5726 N   0  0  0  0  0  0  0  0  0  0  0  0
    5.1032   13.4305   25.8537 H   0  0  0  0  0  0  0  0  0  0  0  0
    5.0212   10.9846   26.2506 H   0  0  0  0  0  0  0  0  0  0  0  0
    6.7342   14.3765   24.3222 H   0  0  0  0  0  0  0  0  0  0  0  0
    6.6411    9.5122   25.1421 H   0  0  0  0  0  0  0  0  0  0  0  0
   10.4622   11.0588   21.8782 H   0  0  0  0  0  0  0  0  0  0  0  0
   11.7269   11.3798   23.0453 H   0  0  0  0  0  0  0  0  0  0  0  0
   10.3565   13.1302   24.1289 H   0  0  0  0  0  0  0  0  0  0  0  0
   10.7967   13.4500   22.4700 H   0  0  0  0  0  0  0  0  0  0  0  0
   10.5455    9.4373   23.8581 H   0  0  0  0  0  0  0  0  0  0  0  0
   10.1087   10.7801   24.8835 H   0  0  0  0  0  0  0  0  0  0  0  0
    8.9476   13.0102   20.6209 H   0  0  0  0  0  0  0  0  0  0  0  0
    7.2557   12.8689   21.1355 H   0  0  0  0  0  0  0  0  0  0  0  0
    8.3640   11.4994   21.3451 H   0  0  0  0  0  0  0  0  0  0  0  0
    9.2513   14.9970   21.9189 H   0  0  0  0  0  0  0  0  0  0  0  0
    8.8049   15.0663   23.6344 H   0  0  0  0  0  0  0  0  0  0  0  0
    7.5445   14.9103   22.3954 H   0  0  0  0  0  0  0  0  0  0  0  0
    8.3656    9.6837   22.7357 H   0  0  0  0  0  0  0  0  0  0  0  0
  1  2  2  0  0  0  0
  1  3  1  0  0  0  0
  2  4  1  0  0  0  0
  3  5  2  0  0  0  0
  4  6  2  0  0  0  0
  5  6  1  0  0  0  0
  5 10  1  0  0  0  0
  6 13  1  0  0  0  0
  7  8  1  0  0  0  0
  7  9  1  0  0  0  0
  8 10  1  0  0  0  0
  9 13  1  0  0  0  0
 10 11  1  0  0  0  0
 10 12  1  0  0  0  0
  1 14  1  0  0  0  0
  2 15  1  0  0  0  0
  3 16  1  0  0  0  0
  4 17  1  0  0  0  0
  7 18  1  0  0  0  0
  7 19  1  0  0  0  0
  8 20  1  0  0  0  0
  8 21  1  0  0  0  0
  9 22  1  0  0  0  0
  9 23  1  0  0  0  0
 11 24  1  0  0  0  0
 11 25  1  0  0  0  0
 11 26  1  0  0  0  0
 12 27  1  0  0  0  0
 12 28  1  0  0  0  0
 12 29  1  0  0  0  0
 13 30  1  0  0  0  0
M  END
> <Catalog ID>
Z1255359523

> <PlateID>
1337959-R-06

> <Well>
A08

> <MW (desalted)>
175.270

> <CLogP>
3.782

> <HBD>
1

> <TPSA>
12.030

> <RotBonds>
0

> <ROCS_ShapeQuery>
x0446_0A_x1080_0A_x0929_0A_x0812_0A_x0719_0A_x1140_0A_x0528_0A_x0310_0A

> <ROCS_TanimotoCombo>
0.306 

> <ROCS_ShapeTanimoto>
0.189 

> <ROCS_ColorTanimoto>
0.116 

> <ROCS_RefTversky>
0.175 

> <ROCS_RefColorTversky>
0.121 

> <ROCS_RefTverskyCombo>
0.296 

> <ROCS_FitTversky>
1.784 

> <ROCS_FitColorTversky>
0.758 

> <ROCS_FitTverskyCombo>
2.541 

> <ROCS_ColorScore>
-4.290

> <ROCS_Overlap>
2061.585

> <ROCS_Rank>
324                 

$$$$
untitled-dbase-182_1
  -OEChem-02082415003D

 30 32  0     0  0  0  0  0  0999 V2000
    9.9675   10.5578   23.8975 C   0  0  0  0  0  0  0  0  0  0  0  0
    9.8046   11.8835   23.4224 C   0  0  0  0  0  0  0  0  0  0  0  0
    8.7413   10.1319   24.3502 C   0  0  0  0  0  0  0  0  0  0  0  0
    8.4797   12.2503   23.5962 C   0  0  0  0  0  0  0  0  0  0  0  0
    7.4604   13.6319   21.7361 C   0  0  0  0  0  0  0  0  0  0  0  0
    8.4137   14.7892   23.7757 C   0  0  0  0  0  0  0  0  0  0  0  0
    6.4571   11.1267   24.5333 C   0  0  0  0  0  0  0  0  0  0  0  0
    5.6666   12.2330   23.8503 C   0  0  0  0  0  0  0  0  0  0  0  0
    8.6823   14.1492   20.9833 C   0  0  0  0  0  0  0  0  0  0  0  0
    9.5419   15.2815   22.8719 C   0  0  0  0  0  0  0  0  0  0  0  0
    7.6945   13.5147   23.2637 C   0  0  0  0  0  0  0  0  0  0  0  0
    7.8568   11.1550   24.1582 N   0  0  0  0  0  0  0  0  0  0  0  0
    6.3843   13.5003   23.9717 N   0  0  0  0  0  0  0  0  0  0  0  0
    9.1088   15.3976   21.5205 O   0  0  0  0  0  0  0  0  0  0  0  0
   10.8799    9.9789   23.9061 H   0  0  0  0  0  0  0  0  0  0  0  0
   10.5772   12.5093   22.9901 H   0  0  0  0  0  0  0  0  0  0  0  0
    8.4305    9.1927   24.7884 H   0  0  0  0  0  0  0  0  0  0  0  0
    6.5871   14.2610   21.5050 H   0  0  0  0  0  0  0  0  0  0  0  0
    7.2175   12.6323   21.3368 H   0  0  0  0  0  0  0  0  0  0  0  0
    8.8525   14.5847   24.7724 H   0  0  0  0  0  0  0  0  0  0  0  0
    7.6862   15.6087   23.9421 H   0  0  0  0  0  0  0  0  0  0  0  0
    6.4256   11.2357   25.6256 H   0  0  0  0  0  0  0  0  0  0  0  0
    6.0531   10.1421   24.2672 H   0  0  0  0  0  0  0  0  0  0  0  0
    5.4819   11.9871   22.8018 H   0  0  0  0  0  0  0  0  0  0  0  0
    4.6910   12.3244   24.3340 H   0  0  0  0  0  0  0  0  0  0  0  0
    9.5090   13.4424   21.1091 H   0  0  0  0  0  0  0  0  0  0  0  0
    8.5113   14.2463   19.9067 H   0  0  0  0  0  0  0  0  0  0  0  0
    9.9584   16.2404   23.2094 H   0  0  0  0  0  0  0  0  0  0  0  0
   10.3662   14.5569   22.8912 H   0  0  0  0  0  0  0  0  0  0  0  0
    5.7883   14.2631   23.6520 H   0  0  0  0  0  0  0  0  0  0  0  0
  1  2  1  0  0  0  0
  1  3  2  0  0  0  0
  2  4  2  0  0  0  0
  3 12  1  0  0  0  0
  4 11  1  0  0  0  0
  4 12  1  0  0  0  0
  5  9  1  0  0  0  0
  5 11  1  0  0  0  0
  6 10  1  0  0  0  0
  6 11  1  0  0  0  0
  7  8  1  0  0  0  0
  7 12  1  0  0  0  0
  8 13  1  0  0  0  0
  9 14  1  0  0  0  0
 10 14  1  0  0  0  0
 11 13  1  0  0  0  0
  1 15  1  0  0  0  0
  2 16  1  0  0  0  0
  3 17  1  0  0  0  0
  5 18  1  0  0  0  0
  5 19  1  0  0  0  0
  6 20  1  0  0  0  0
  6 21  1  0  0  0  0
  7 22  1  0  0  0  0
  7 23  1  0  0  0  0
  8 24  1  0  0  0  0
  8 25  1  0  0  0  0
  9 26  1  0  0  0  0
  9 27  1  0  0  0  0
 10 28  1  0  0  0  0
 10 29  1  0  0  0  0
 13 30  1  0  0  0  0
M  END
> <Catalog ID>
Z1824427416

> <PlateID>
1337959-R-04

> <Well>
F09

> <MW (desalted)>
192.258

> <CLogP>
0.039

> <HBD>
1

> <TPSA>
26.190

> <RotBonds>
0

> <ROCS_ShapeQuery>
x0446_0A_x1080_0A_x0929_0A_x0812_0A_x0719_0A_x1140_0A_x0528_0A_x0310_0A

> <ROCS_TanimotoCombo>
0.305 

> <ROCS_ShapeTanimoto>
0.189 

> <ROCS_ColorTanimoto>
0.116 

> <ROCS_RefTversky>
0.175 

> <ROCS_RefColorTversky>
0.126 

> <ROCS_RefTverskyCombo>
0.302 

> <ROCS_FitTversky>
1.690 

> <ROCS_FitColorTversky>
0.595 

> <ROCS_FitTverskyCombo>
2.285 

> <ROCS_ColorScore>
-4.507

> <ROCS_Overlap>
2069.656

> <ROCS_Rank>
325                 

$$$$
untitled-dbase-67_3
  -OEChem-02082415003D

 35 36  0     0  0  0  0  0  0999 V2000
    8.3867   10.7220   24.4139 C   0  0  0  0  0  0  0  0  0  0  0  0
    8.1717   12.0369   24.8269 C   0  0  0  0  0  0  0  0  0  0  0  0
    9.4517   11.5284   22.4008 C   0  0  0  0  0  0  0  0  0  0  0  0
    9.0268   10.4678   23.2009 C   0  0  0  0  0  0  0  0  0  0  0  0
    8.5967   13.0975   24.0268 C   0  0  0  0  0  0  0  0  0  0  0  0
    9.2367   12.8433   22.8138 C   0  0  0  0  0  0  0  0  0  0  0  0
   13.1994   13.9797   22.1114 C   0  0  0  0  0  0  0  0  0  0  0  0
   12.5329   16.1852   21.3898 C   0  0  0  0  0  0  0  0  0  0  0  0
   12.1199   13.9785   23.1890 C   0  0  0  0  0  0  0  0  0  0  0  0
   11.4396   16.2299   22.4525 C   0  0  0  0  0  0  0  0  0  0  0  0
    9.2576    9.0617   22.7605 C   0  0  0  0  0  0  0  0  0  0  0  0
    8.3509   14.4935   24.4981 C   0  0  0  0  0  0  0  0  0  0  0  0
   13.6509   15.3408   21.8157 N   0  0  0  0  0  0  0  0  0  0  0  0
   10.9830   14.8518   22.7849 N   0  0  0  0  0  0  0  0  0  0  0  0
   10.4290   13.5760   20.6195 O   0  0  0  0  0  0  0  0  0  0  0  0
    8.6976   15.1009   21.6317 O   0  0  0  0  0  0  0  0  0  0  0  0
    9.7890   14.1617   21.7778 S   0  0  0  0  0  0  0  0  0  0  0  0
    8.0531    9.9021   25.0443 H   0  0  0  0  0  0  0  0  0  0  0  0
    7.6742   12.2235   25.7749 H   0  0  0  0  0  0  0  0  0  0  0  0
    9.9506   11.3267   21.4558 H   0  0  0  0  0  0  0  0  0  0  0  0
   14.0554   13.3847   22.4473 H   0  0  0  0  0  0  0  0  0  0  0  0
   12.8259   13.5092   21.1936 H   0  0  0  0  0  0  0  0  0  0  0  0
   12.1305   15.8103   20.4409 H   0  0  0  0  0  0  0  0  0  0  0  0
   12.9030   17.1982   21.1995 H   0  0  0  0  0  0  0  0  0  0  0  0
   11.7558   12.9505   23.3283 H   0  0  0  0  0  0  0  0  0  0  0  0
   12.5283   14.3253   24.1504 H   0  0  0  0  0  0  0  0  0  0  0  0
   11.8022   16.7288   23.3642 H   0  0  0  0  0  0  0  0  0  0  0  0
   10.5896   16.8102   22.0658 H   0  0  0  0  0  0  0  0  0  0  0  0
    8.4074    8.7027   22.1677 H   0  0  0  0  0  0  0  0  0  0  0  0
   10.1665    8.9793   22.1506 H   0  0  0  0  0  0  0  0  0  0  0  0
    9.3902    8.3917   23.6201 H   0  0  0  0  0  0  0  0  0  0  0  0
    9.1977   14.8462   25.0981 H   0  0  0  0  0  0  0  0  0  0  0  0
    8.2119   15.1783   23.6527 H   0  0  0  0  0  0  0  0  0  0  0  0
    7.4414   14.5510   25.1087 H   0  0  0  0  0  0  0  0  0  0  0  0
   14.0645   15.7418   22.6592 H   0  0  0  0  0  0  0  0  0  0  0  0
  1  2  1  0  0  0  0
  1  4  2  0  0  0  0
  2  5  2  0  0  0  0
  3  4  1  0  0  0  0
  3  6  2  0  0  0  0
  4 11  1  0  0  0  0
  5  6  1  0  0  0  0
  5 12  1  0  0  0  0
  6 17  1  0  0  0  0
  7  9  1  0  0  0  0
  7 13  1  0  0  0  0
  8 10  1  0  0  0  0
  8 13  1  0  0  0  0
  9 14  1  0  0  0  0
 10 14  1  0  0  0  0
 14 17  1  0  0  0  0
 15 17  2  0  0  0  0
 16 17  2  0  0  0  0
  1 18  1  0  0  0  0
  2 19  1  0  0  0  0
  3 20  1  0  0  0  0
  7 21  1  0  0  0  0
  7 22  1  0  0  0  0
  8 23  1  0  0  0  0
  8 24  1  0  0  0  0
  9 25  1  0  0  0  0
  9 26  1  0  0  0  0
 10 27  1  0  0  0  0
 10 28  1  0  0  0  0
 11 29  1  0  0  0  0
 11 30  1  0  0  0  0
 11 31  1  0  0  0  0
 12 32  1  0  0  0  0
 12 33  1  0  0  0  0
 12 34  1  0  0  0  0
 13 35  1  0  0  0  0
M  END
> <Catalog ID>
Z56886590

> <PlateID>
1337959-R-02

> <Well>
B08

> <MW (desalted)>
254.349

> <CLogP>
2.267

> <HBD>
1

> <TPSA>
49.410

> <RotBonds>
1

> <ROCS_ShapeQuery>
x0446_0A_x1080_0A_x0929_0A_x0812_0A_x0719_0A_x1140_0A_x0528_0A_x0310_0A

> <ROCS_TanimotoCombo>
0.305 

> <ROCS_ShapeTanimoto>
0.212 

> <ROCS_ColorTanimoto>
0.093 

> <ROCS_RefTversky>
0.194 

> <ROCS_RefColorTversky>
0.103 

> <ROCS_RefTverskyCombo>
0.297 

> <ROCS_FitTversky>
1.753 

> <ROCS_FitColorTversky>
0.487 

> <ROCS_FitTverskyCombo>
2.240 

> <ROCS_ColorScore>
-3.680

> <ROCS_Overlap>
2288.707

> <ROCS_Rank>
326                 

$$$$
untitled-dbase-228_10
  -OEChem-02082415003D

 32 33  0     0  0  0  0  0  0999 V2000
    8.7741   10.0697   24.8863 C   0  0  0  0  0  0  0  0  0  0  0  0
    7.6800   10.8426   24.4978 C   0  0  0  0  0  0  0  0  0  0  0  0
    9.9906   10.1960   24.2155 C   0  0  0  0  0  0  0  0  0  0  0  0
    7.8021   11.7417   23.4384 C   0  0  0  0  0  0  0  0  0  0  0  0
   10.1128   11.0951   23.1561 C   0  0  0  0  0  0  0  0  0  0  0  0
    9.0186   11.8680   22.7676 C   0  0  0  0  0  0  0  0  0  0  0  0
    5.2759   15.2189   21.7099 C   0  0  0  0  0  0  0  0  0  0  0  0
    5.6562   15.2526   24.0884 C   0  0  0  0  0  0  0  0  0  0  0  0
    6.7748   15.3141   21.4403 C   0  0  0  0  0  0  0  0  0  0  0  0
    7.1640   15.3485   23.8747 C   0  0  0  0  0  0  0  0  0  0  0  0
    9.1504   12.8329   21.6299 C   0  0  0  0  0  0  0  0  0  0  0  0
    4.9235   15.8614   22.9770 N   0  0  0  0  0  0  0  0  0  0  0  0
    7.5243   14.7060   22.5776 N   0  0  0  0  0  0  0  0  0  0  0  0
    9.8675   14.4002   23.5938 O   0  0  0  0  0  0  0  0  0  0  0  0
    9.6383   15.3752   21.2738 O   0  0  0  0  0  0  0  0  0  0  0  0
    9.1998   14.4696   22.3127 S   0  0  0  0  0  0  0  0  0  0  0  0
    8.6792    9.3706   25.7121 H   0  0  0  0  0  0  0  0  0  0  0  0
    6.7330   10.7452   25.0207 H   0  0  0  0  0  0  0  0  0  0  0  0
   10.8430    9.5952   24.5185 H   0  0  0  0  0  0  0  0  0  0  0  0
    6.9442   12.3396   23.1425 H   0  0  0  0  0  0  0  0  0  0  0  0
   11.0644   11.1866   22.6392 H   0  0  0  0  0  0  0  0  0  0  0  0
    4.7247   15.7047   20.8975 H   0  0  0  0  0  0  0  0  0  0  0  0
    4.9556   14.1700   21.7281 H   0  0  0  0  0  0  0  0  0  0  0  0
    5.3507   14.2050   24.1999 H   0  0  0  0  0  0  0  0  0  0  0  0
    5.3835   15.7631   25.0184 H   0  0  0  0  0  0  0  0  0  0  0  0
    7.0077   14.7679   20.5197 H   0  0  0  0  0  0  0  0  0  0  0  0
    7.0829   16.3585   21.3116 H   0  0  0  0  0  0  0  0  0  0  0  0
    7.4924   16.3947   23.8721 H   0  0  0  0  0  0  0  0  0  0  0  0
    7.6746   14.8268   24.6914 H   0  0  0  0  0  0  0  0  0  0  0  0
    8.3012   12.7755   20.9433 H   0  0  0  0  0  0  0  0  0  0  0  0
   10.0710   12.6730   21.0615 H   0  0  0  0  0  0  0  0  0  0  0  0
    5.1664   16.8510   22.9241 H   0  0  0  0  0  0  0  0  0  0  0  0
  1  2  2  0  0  0  0
  1  3  1  0  0  0  0
  2  4  1  0  0  0  0
  3  5  2  0  0  0  0
  4  6  2  0  0  0  0
  5  6  1  0  0  0  0
  6 11  1  0  0  0  0
  7  9  1  0  0  0  0
  7 12  1  0  0  0  0
  8 10  1  0  0  0  0
  8 12  1  0  0  0  0
  9 13  1  0  0  0  0
 10 13  1  0  0  0  0
 11 16  1  0  0  0  0
 13 16  1  0  0  0  0
 14 16  2  0  0  0  0
 15 16  2  0  0  0  0
  1 17  1  0  0  0  0
  2 18  1  0  0  0  0
  3 19  1  0  0  0  0
  4 20  1  0  0  0  0
  5 21  1  0  0  0  0
  7 22  1  0  0  0  0
  7 23  1  0  0  0  0
  8 24  1  0  0  0  0
  8 25  1  0  0  0  0
  9 26  1  0  0  0  0
  9 27  1  0  0  0  0
 10 28  1  0  0  0  0
 10 29  1  0  0  0  0
 11 30  1  0  0  0  0
 11 31  1  0  0  0  0
 12 32  1  0  0  0  0
M  END
> <Catalog ID>
Z57032564

> <PlateID>
1337959-R-05

> <Well>
E08

> <MW (desalted)>
240.322

> <CLogP>
1.329

> <HBD>
1

> <TPSA>
49.410

> <RotBonds>
2

> <ROCS_ShapeQuery>
x0446_0A_x1080_0A_x0929_0A_x0812_0A_x0719_0A_x1140_0A_x0528_0A_x0310_0A

> <ROCS_TanimotoCombo>
0.305 

> <ROCS_ShapeTanimoto>
0.182 

> <ROCS_ColorTanimoto>
0.123 

> <ROCS_RefTversky>
0.170 

> <ROCS_RefColorTversky>
0.132 

> <ROCS_RefTverskyCombo>
0.303 

> <ROCS_FitTversky>
1.593 

> <ROCS_FitColorTversky>
0.624 

> <ROCS_FitTverskyCombo>
2.217 

> <ROCS_ColorScore>
-4.717

> <ROCS_Overlap>
2010.388

> <ROCS_Rank>
327                 

$$$$
untitled-dbase-336_6
  -OEChem-02082415003D

 29 30  0     0  0  0  0  0  0999 V2000
   10.2230   15.8007   18.6594 C   0  0  0  0  0  0  0  0  0  0  0  0
   10.6814   14.8125   19.5305 C   0  0  0  0  0  0  0  0  0  0  0  0
   10.3143   17.1452   19.0197 C   0  0  0  0  0  0  0  0  0  0  0  0
   11.3224   16.5132   21.1223 C   0  0  0  0  0  0  0  0  0  0  0  0
   11.2311   15.1687   20.7620 C   0  0  0  0  0  0  0  0  0  0  0  0
   10.8640   17.5014   20.2511 C   0  0  0  0  0  0  0  0  0  0  0  0
    7.9489   11.0066   24.7063 C   0  0  0  0  0  0  0  0  0  0  0  0
    9.5282   11.5342   23.2309 C   0  0  0  0  0  0  0  0  0  0  0  0
   10.6604   13.6043   22.6606 C   0  0  0  0  0  0  0  0  0  0  0  0
    8.7093   12.2091   24.2690 C   0  0  0  0  0  0  0  0  0  0  0  0
    6.9221   11.0653   25.7807 C   0  0  0  0  0  0  0  0  0  0  0  0
   11.7258   14.1010   21.7016 C   0  0  0  0  0  0  0  0  0  0  0  0
    8.2731    9.9275   24.0612 N   0  0  0  0  0  0  0  0  0  0  0  0
    9.2892   10.2670   23.1120 N   0  0  0  0  0  0  0  0  0  0  0  0
   10.4279   12.2346   22.5057 N   0  0  0  0  0  0  0  0  0  0  0  0
   10.0815   14.3290   23.4658 O   0  0  0  0  0  0  0  0  0  0  0  0
   10.9514   18.7923   20.5975 F   0  0  0  0  0  0  0  0  0  0  0  0
    9.7953   15.5234   17.7002 H   0  0  0  0  0  0  0  0  0  0  0  0
   10.6059   13.7675   19.2413 H   0  0  0  0  0  0  0  0  0  0  0  0
    9.9569   17.9142   18.3416 H   0  0  0  0  0  0  0  0  0  0  0  0
   11.7497   16.8005   22.0792 H   0  0  0  0  0  0  0  0  0  0  0  0
    8.0562   12.9687   23.8371 H   0  0  0  0  0  0  0  0  0  0  0  0
    9.3280   12.6147   25.0708 H   0  0  0  0  0  0  0  0  0  0  0  0
    5.9416   11.2815   25.3517 H   0  0  0  0  0  0  0  0  0  0  0  0
    7.1749   11.8473   26.5001 H   0  0  0  0  0  0  0  0  0  0  0  0
    6.8757   10.1102   26.3085 H   0  0  0  0  0  0  0  0  0  0  0  0
   12.5722   14.4859   22.2842 H   0  0  0  0  0  0  0  0  0  0  0  0
   12.1050   13.2480   21.1248 H   0  0  0  0  0  0  0  0  0  0  0  0
   10.9699   11.7320   21.8036 H   0  0  0  0  0  0  0  0  0  0  0  0
  1  2  1  0  0  0  0
  1  3  2  0  0  0  0
  2  5  2  0  0  0  0
  3  6  1  0  0  0  0
  4  5  1  0  0  0  0
  4  6  2  0  0  0  0
  5 12  1  0  0  0  0
  6 17  1  0  0  0  0
  7 10  1  0  0  0  0
  7 11  1  0  0  0  0
  7 13  2  0  0  0  0
  8 10  1  0  0  0  0
  8 14  2  0  0  0  0
  8 15  1  0  0  0  0
  9 12  1  0  0  0  0
  9 15  1  0  0  0  0
  9 16  2  0  0  0  0
 13 14  1  0  0  0  0
  1 18  1  0  0  0  0
  2 19  1  0  0  0  0
  3 20  1  0  0  0  0
  4 21  1  0  0  0  0
 10 22  1  0  0  0  0
 10 23  1  0  0  0  0
 11 24  1  0  0  0  0
 11 25  1  0  0  0  0
 11 26  1  0  0  0  0
 12 27  1  0  0  0  0
 12 28  1  0  0  0  0
 15 29  1  0  0  0  0
M  END
> <Catalog ID>
Z666222558

> <PlateID>
1337959-R-08

> <Well>
B09

> <MW (desalted)>
233.242

> <CLogP>
1.992

> <HBD>
2

> <TPSA>
57.780

> <RotBonds>
3

> <ROCS_ShapeQuery>
x0446_0A_x1080_0A_x0929_0A_x0812_0A_x0719_0A_x1140_0A_x0528_0A_x0310_0A

> <ROCS_TanimotoCombo>
0.304 

> <ROCS_ShapeTanimoto>
0.178 

> <ROCS_ColorTanimoto>
0.126 

> <ROCS_RefTversky>
0.168 

> <ROCS_RefColorTversky>
0.133 

> <ROCS_RefTverskyCombo>
0.301 

> <ROCS_FitTversky>
1.481 

> <ROCS_FitColorTversky>
0.715 

> <ROCS_FitTverskyCombo>
2.196 

> <ROCS_ColorScore>
-4.724

> <ROCS_Overlap>
1987.278

> <ROCS_Rank>
328                 

$$$$
untitled-dbase-60_2
  -OEChem-02082415003D

 18 18  0     0  0  0  0  0  0999 V2000
    7.7404   11.9174   24.5420 C   0  0  0  0  0  0  0  0  0  0  0  0
    7.7688   10.5931   24.9486 C   0  0  0  0  0  0  0  0  0  0  0  0
    9.2062   10.0104   23.2537 C   0  0  0  0  0  0  0  0  0  0  0  0
    9.2450   11.3073   22.7676 C   0  0  0  0  0  0  0  0  0  0  0  0
    8.4953   12.2731   23.4299 C   0  0  0  0  0  0  0  0  0  0  0  0
    8.4848    9.6270   24.3309 N   0  0  0  0  0  0  0  0  0  0  0  0
   10.0264   11.6134   21.6393 N   0  0  0  0  0  0  0  0  0  0  0  0
    7.4227   14.6342   24.0461 N   0  0  0  0  0  0  0  0  0  0  0  0
    9.8087   14.4926   23.0804 O   0  0  0  0  0  0  0  0  0  0  0  0
    7.8424   13.9935   21.5864 O   0  0  0  0  0  0  0  0  0  0  0  0
    8.4759   13.9392   22.8951 S   0  0  0  0  0  0  0  0  0  0  0  0
    7.1440   12.6448   25.0820 H   0  0  0  0  0  0  0  0  0  0  0  0
    7.1970   10.2637   25.8098 H   0  0  0  0  0  0  0  0  0  0  0  0
    9.7705    9.2125   22.7802 H   0  0  0  0  0  0  0  0  0  0  0  0
   10.5889   10.8973   21.2214 H   0  0  0  0  0  0  0  0  0  0  0  0
   10.0847   12.5629   21.3243 H   0  0  0  0  0  0  0  0  0  0  0  0
    7.8281   15.2581   24.7545 H   0  0  0  0  0  0  0  0  0  0  0  0
    6.4854   14.9148   23.7333 H   0  0  0  0  0  0  0  0  0  0  0  0
  1  2  1  0  0  0  0
  1  5  2  0  0  0  0
  2  6  2  0  0  0  0
  3  4  2  0  0  0  0
  3  6  1  0  0  0  0
  4  5  1  0  0  0  0
  4  7  1  0  0  0  0
  5 11  1  0  0  0  0
  8 11  1  0  0  0  0
  9 11  2  0  0  0  0
 10 11  2  0  0  0  0
  1 12  1  0  0  0  0
  2 13  1  0  0  0  0
  3 14  1  0  0  0  0
  7 15  1  0  0  0  0
  7 16  1  0  0  0  0
  8 17  1  0  0  0  0
  8 18  1  0  0  0  0
M  END
> <Catalog ID>
Z1216841932

> <PlateID>
1337959-R-02

> <Well>
A10

> <MW (desalted)>
173.193

> <CLogP>
0.167

> <HBD>
2

> <TPSA>
99.070

> <RotBonds>
1

> <ROCS_ShapeQuery>
x0446_0A_x1080_0A_x0929_0A_x0812_0A_x0719_0A_x1140_0A_x0528_0A_x0310_0A

> <ROCS_TanimotoCombo>
0.304 

> <ROCS_ShapeTanimoto>
0.168 

> <ROCS_ColorTanimoto>
0.136 

> <ROCS_RefTversky>
0.157 

> <ROCS_RefColorTversky>
0.148 

> <ROCS_RefTverskyCombo>
0.305 

> <ROCS_FitTversky>
1.748 

> <ROCS_FitColorTversky>
0.621 

> <ROCS_FitTverskyCombo>
2.369 

> <ROCS_ColorScore>
-5.289

> <ROCS_Overlap>
1849.682

> <ROCS_Rank>
329                 

$$$$
untitled-dbase-160_6
  -OEChem-02082415003D

 31 32  0     0  0  0  0  0  0999 V2000
    7.8119   10.5557   24.3402 C   0  0  0  0  0  0  0  0  0  0  0  0
    8.9584    9.8967   23.8965 C   0  0  0  0  0  0  0  0  0  0  0  0
    7.7391   11.9473   24.2777 C   0  0  0  0  0  0  0  0  0  0  0  0
   10.0321   10.6293   23.3904 C   0  0  0  0  0  0  0  0  0  0  0  0
    8.8128   12.6799   23.7716 C   0  0  0  0  0  0  0  0  0  0  0  0
    9.9593   12.0209   23.3280 C   0  0  0  0  0  0  0  0  0  0  0  0
    8.2629   15.4033   21.5533 C   0  0  0  0  0  0  0  0  0  0  0  0
    7.0826   15.5066   20.6159 C   0  0  0  0  0  0  0  0  0  0  0  0
    5.9002   15.1163   21.4946 C   0  0  0  0  0  0  0  0  0  0  0  0
    6.4976   14.1554   22.5030 C   0  0  0  0  0  0  0  0  0  0  0  0
    8.7115   14.1767   23.7129 C   0  0  0  0  0  0  0  0  0  0  0  0
   11.1218   12.7839   22.7829 C   0  0  0  0  0  0  0  0  0  0  0  0
    7.8586   14.6196   22.6315 N   0  0  0  0  0  0  0  0  0  0  0  0
   10.8784   13.2703   21.4494 N   0  0  0  0  0  0  0  0  0  0  0  0
    9.3630   15.8917   21.3429 O   0  0  0  0  0  0  0  0  0  0  0  0
    6.9766    9.9851   24.7348 H   0  0  0  0  0  0  0  0  0  0  0  0
    9.0146    8.8132   23.9457 H   0  0  0  0  0  0  0  0  0  0  0  0
    6.8419   12.4514   24.6274 H   0  0  0  0  0  0  0  0  0  0  0  0
   10.9210   10.1067   23.0467 H   0  0  0  0  0  0  0  0  0  0  0  0
    6.9803   16.5211   20.2235 H   0  0  0  0  0  0  0  0  0  0  0  0
    7.2228   14.7972   19.7944 H   0  0  0  0  0  0  0  0  0  0  0  0
    5.5096   16.0038   22.0074 H   0  0  0  0  0  0  0  0  0  0  0  0
    5.0848   14.6700   20.9184 H   0  0  0  0  0  0  0  0  0  0  0  0
    5.9822   14.1940   23.4668 H   0  0  0  0  0  0  0  0  0  0  0  0
    6.5167   13.1270   22.1281 H   0  0  0  0  0  0  0  0  0  0  0  0
    8.3028   14.5730   24.6488 H   0  0  0  0  0  0  0  0  0  0  0  0
    9.6971   14.6320   23.5699 H   0  0  0  0  0  0  0  0  0  0  0  0
   11.3549   13.6514   23.4148 H   0  0  0  0  0  0  0  0  0  0  0  0
   12.0270   12.1636   22.7466 H   0  0  0  0  0  0  0  0  0  0  0  0
   11.5351   12.8558   20.8209 H   0  0  0  0  0  0  0  0  0  0  0  0
    9.9498   13.0263   21.1732 H   0  0  0  0  0  0  0  0  0  0  0  0
  1  2  2  0  0  0  0
  1  3  1  0  0  0  0
  2  4  1  0  0  0  0
  3  5  2  0  0  0  0
  4  6  2  0  0  0  0
  5  6  1  0  0  0  0
  5 11  1  0  0  0  0
  6 12  1  0  0  0  0
  7  8  1  0  0  0  0
  7 13  1  0  0  0  0
  7 15  2  0  0  0  0
  8  9  1  0  0  0  0
  9 10  1  0  0  0  0
 10 13  1  0  0  0  0
 11 13  1  0  0  0  0
 12 14  1  0  0  0  0
  1 16  1  0  0  0  0
  2 17  1  0  0  0  0
  3 18  1  0  0  0  0
  4 19  1  0  0  0  0
  8 20  1  0  0  0  0
  8 21  1  0  0  0  0
  9 22  1  0  0  0  0
  9 23  1  0  0  0  0
 10 24  1  0  0  0  0
 10 25  1  0  0  0  0
 11 26  1  0  0  0  0
 11 27  1  0  0  0  0
 12 28  1  0  0  0  0
 12 29  1  0  0  0  0
 14 30  1  0  0  0  0
 14 31  1  0  0  0  0
M  END
> <Catalog ID>
Z324553128

> <PlateID>
1337959-R-04

> <Well>
C05

> <MW (desalted)>
204.268

> <CLogP>
-0.057

> <HBD>
1

> <TPSA>
46.330

> <RotBonds>
3

> <ROCS_ShapeQuery>
x0446_0A_x1080_0A_x0929_0A_x0812_0A_x0719_0A_x1140_0A_x0528_0A_x0310_0A

> <ROCS_TanimotoCombo>
0.304 

> <ROCS_ShapeTanimoto>
0.203 

> <ROCS_ColorTanimoto>
0.101 

> <ROCS_RefTversky>
0.186 

> <ROCS_RefColorTversky>
0.109 

> <ROCS_RefTverskyCombo>
0.295 

> <ROCS_FitTversky>
1.765 

> <ROCS_FitColorTversky>
0.587 

> <ROCS_FitTverskyCombo>
2.352 

> <ROCS_ColorScore>
-3.878

> <ROCS_Overlap>
2199.854

> <ROCS_Rank>
330                 

$$$$
untitled-dbase-575_4
  -OEChem-02082415003D

 29 30  0     0  0  0  0  0  0999 V2000
    9.0186    9.6106   24.1791 C   0  0  0  0  0  0  0  0  0  0  0  0
    9.7373   10.2629   23.1773 C   0  0  0  0  0  0  0  0  0  0  0  0
    8.1200   10.3255   24.9711 C   0  0  0  0  0  0  0  0  0  0  0  0
    9.5575   11.6301   22.9675 C   0  0  0  0  0  0  0  0  0  0  0  0
    7.9402   11.6927   24.7613 C   0  0  0  0  0  0  0  0  0  0  0  0
    8.6590   12.3451   23.7595 C   0  0  0  0  0  0  0  0  0  0  0  0
    9.5926   14.6662   23.6502 C   0  0  0  0  0  0  0  0  0  0  0  0
    7.3576   14.2051   22.7532 C   0  0  0  0  0  0  0  0  0  0  0  0
   10.0397   15.0610   22.2468 C   0  0  0  0  0  0  0  0  0  0  0  0
    7.8776   14.6286   21.3788 C   0  0  0  0  0  0  0  0  0  0  0  0
    6.9713   12.4336   25.6243 C   0  0  0  0  0  0  0  0  0  0  0  0
    8.4927   13.7060   23.5366 N   0  0  0  0  0  0  0  0  0  0  0  0
    8.9299   15.5908   21.5116 O   0  0  0  0  0  0  0  0  0  0  0  0
    5.6457   12.1203   25.2181 O   0  0  0  0  0  0  0  0  0  0  0  0
    9.1586    8.5460   24.3424 H   0  0  0  0  0  0  0  0  0  0  0  0
   10.4369    9.7061   22.5607 H   0  0  0  0  0  0  0  0  0  0  0  0
    7.5648    9.8079   25.7489 H   0  0  0  0  0  0  0  0  0  0  0  0
   10.1232   12.1277   22.1839 H   0  0  0  0  0  0  0  0  0  0  0  0
   10.4353   14.2335   24.1933 H   0  0  0  0  0  0  0  0  0  0  0  0
    9.2436   15.5531   24.1858 H   0  0  0  0  0  0  0  0  0  0  0  0
    6.9207   15.0668   23.2593 H   0  0  0  0  0  0  0  0  0  0  0  0
    6.5963   13.4356   22.6330 H   0  0  0  0  0  0  0  0  0  0  0  0
   10.8004   15.8422   22.3057 H   0  0  0  0  0  0  0  0  0  0  0  0
   10.4704   14.2133   21.7065 H   0  0  0  0  0  0  0  0  0  0  0  0
    8.2336   13.7674   20.8013 H   0  0  0  0  0  0  0  0  0  0  0  0
    7.0702   15.0972   20.8078 H   0  0  0  0  0  0  0  0  0  0  0  0
    7.0902   12.1612   26.6809 H   0  0  0  0  0  0  0  0  0  0  0  0
    7.1204   13.5180   25.5431 H   0  0  0  0  0  0  0  0  0  0  0  0
    5.0494   12.6186   25.8000 H   0  0  0  0  0  0  0  0  0  0  0  0
  1  2  2  0  0  0  0
  1  3  1  0  0  0  0
  2  4  1  0  0  0  0
  3  5  2  0  0  0  0
  4  6  2  0  0  0  0
  5  6  1  0  0  0  0
  5 11  1  0  0  0  0
  6 12  1  0  0  0  0
  7  9  1  0  0  0  0
  7 12  1  0  0  0  0
  8 10  1  0  0  0  0
  8 12  1  0  0  0  0
  9 13  1  0  0  0  0
 10 13  1  0  0  0  0
 11 14  1  0  0  0  0
  1 15  1  0  0  0  0
  2 16  1  0  0  0  0
  3 17  1  0  0  0  0
  4 18  1  0  0  0  0
  7 19  1  0  0  0  0
  7 20  1  0  0  0  0
  8 21  1  0  0  0  0
  8 22  1  0  0  0  0
  9 23  1  0  0  0  0
  9 24  1  0  0  0  0
 10 25  1  0  0  0  0
 10 26  1  0  0  0  0
 11 27  1  0  0  0  0
 11 28  1  0  0  0  0
 14 29  1  0  0  0  0
M  END
> <Catalog ID>
Z235361235

> <PlateID>
1337959-R-13

> <Well>
D10

> <MW (desalted)>
193.242

> <CLogP>
0.560

> <HBD>
1

> <TPSA>
32.700

> <RotBonds>
2

> <ROCS_ShapeQuery>
x0446_0A_x1080_0A_x0929_0A_x0812_0A_x0719_0A_x1140_0A_x0528_0A_x0310_0A

> <ROCS_TanimotoCombo>
0.304 

> <ROCS_ShapeTanimoto>
0.197 

> <ROCS_ColorTanimoto>
0.106 

> <ROCS_RefTversky>
0.182 

> <ROCS_RefColorTversky>
0.114 

> <ROCS_RefTverskyCombo>
0.296 

> <ROCS_FitTversky>
1.779 

> <ROCS_FitColorTversky>
0.614 

> <ROCS_FitTverskyCombo>
2.393 

> <ROCS_ColorScore>
-4.059

> <ROCS_Overlap>
2141.154

> <ROCS_Rank>
331                 

$$$$
untitled-dbase-241_1
  -OEChem-02082415003D

 25 27  0     0  0  0  0  0  0999 V2000
    9.3791   11.4445   22.6378 C   0  0  0  0  0  0  0  0  0  0  0  0
    8.3833   10.3957   24.3902 C   0  0  0  0  0  0  0  0  0  0  0  0
    6.5724   13.2338   23.1465 C   0  0  0  0  0  0  0  0  0  0  0  0
    7.1656   14.3284   23.9890 C   0  0  0  0  0  0  0  0  0  0  0  0
   11.6405   12.7036   23.7801 C   0  0  0  0  0  0  0  0  0  0  0  0
   11.1563   14.0182   23.2349 C   0  0  0  0  0  0  0  0  0  0  0  0
    8.0458   13.5244   23.0728 C   0  0  0  0  0  0  0  0  0  0  0  0
   10.2815   13.2211   24.1623 C   0  0  0  0  0  0  0  0  0  0  0  0
    9.0403   12.5491   23.6414 C   0  0  0  0  0  0  0  0  0  0  0  0
    8.9647   10.2400   23.1528 N   0  0  0  0  0  0  0  0  0  0  0  0
    8.4236   11.7582   24.6870 N   0  0  0  0  0  0  0  0  0  0  0  0
    9.9296   11.6228   21.5596 O   0  0  0  0  0  0  0  0  0  0  0  0
    7.9191    9.5126   25.0981 O   0  0  0  0  0  0  0  0  0  0  0  0
    6.2459   12.3321   23.6495 H   0  0  0  0  0  0  0  0  0  0  0  0
    5.9589   13.5239   22.3024 H   0  0  0  0  0  0  0  0  0  0  0  0
    6.9502   15.3525   23.7097 H   0  0  0  0  0  0  0  0  0  0  0  0
    7.2362   14.1599   25.0564 H   0  0  0  0  0  0  0  0  0  0  0  0
   11.7034   11.8670   23.0952 H   0  0  0  0  0  0  0  0  0  0  0  0
   12.4184   12.7261   24.5334 H   0  0  0  0  0  0  0  0  0  0  0  0
   11.6092   14.9224   23.6229 H   0  0  0  0  0  0  0  0  0  0  0  0
   10.8951   14.0622   22.1848 H   0  0  0  0  0  0  0  0  0  0  0  0
    8.4180   14.0100   22.1788 H   0  0  0  0  0  0  0  0  0  0  0  0
   10.1505   13.5910   25.1721 H   0  0  0  0  0  0  0  0  0  0  0  0
    9.0734    9.3496   22.6810 H   0  0  0  0  0  0  0  0  0  0  0  0
    8.0581   12.1550   25.5474 H   0  0  0  0  0  0  0  0  0  0  0  0
  1  9  1  0  0  0  0
  1 10  1  0  0  0  0
  1 12  2  0  0  0  0
  2 10  1  0  0  0  0
  2 11  1  0  0  0  0
  2 13  2  0  0  0  0
  3  4  1  0  0  0  0
  3  7  1  0  0  0  0
  4  7  1  0  0  0  0
  5  6  1  0  0  0  0
  5  8  1  0  0  0  0
  6  8  1  0  0  0  0
  7  9  1  0  0  0  0
  8  9  1  0  0  0  0
  9 11  1  0  0  0  0
  3 14  1  0  0  0  0
  3 15  1  0  0  0  0
  4 16  1  0  0  0  0
  4 17  1  0  0  0  0
  5 18  1  0  0  0  0
  5 19  1  0  0  0  0
  6 20  1  0  0  0  0
  6 21  1  0  0  0  0
  7 22  1  0  0  0  0
  8 23  1  0  0  0  0
 10 24  1  0  0  0  0
 11 25  1  0  0  0  0
M  END
> <Catalog ID>
Z240132126

> <PlateID>
1337959-R-05

> <Well>
G08

> <MW (desalted)>
180.204

> <CLogP>
0.055

> <HBD>
2

> <TPSA>
58.200

> <RotBonds>
2

> <ROCS_ShapeQuery>
x0446_0A_x1080_0A_x0929_0A_x0812_0A_x0719_0A_x1140_0A_x0528_0A_x0310_0A

> <ROCS_TanimotoCombo>
0.304 

> <ROCS_ShapeTanimoto>
0.200 

> <ROCS_ColorTanimoto>
0.104 

> <ROCS_RefTversky>
0.183 

> <ROCS_RefColorTversky>
0.111 

> <ROCS_RefTverskyCombo>
0.295 

> <ROCS_FitTversky>
1.835 

> <ROCS_FitColorTversky>
0.598 

> <ROCS_FitTverskyCombo>
2.433 

> <ROCS_ColorScore>
-3.960

> <ROCS_Overlap>
2163.096

> <ROCS_Rank>
332                 

$$$$
untitled-dbase-589_0
  -OEChem-02082415003D

 25 27  0     0  0  0  0  0  0999 V2000
    8.4946   13.7276   22.9505 C   0  0  0  0  0  0  0  0  0  0  0  0
    9.4833   14.1758   22.0695 C   0  0  0  0  0  0  0  0  0  0  0  0
   10.5132   11.9806   22.0514 C   0  0  0  0  0  0  0  0  0  0  0  0
    8.5107   12.4061   23.3851 C   0  0  0  0  0  0  0  0  0  0  0  0
    9.5247   11.5546   22.9245 C   0  0  0  0  0  0  0  0  0  0  0  0
   10.4870   13.3066   21.6229 C   0  0  0  0  0  0  0  0  0  0  0  0
    9.3524   10.1862   23.5137 C   0  0  0  0  0  0  0  0  0  0  0  0
    5.8561   11.6089   25.6142 C   0  0  0  0  0  0  0  0  0  0  0  0
    6.0484   11.6348   24.0870 C   0  0  0  0  0  0  0  0  0  0  0  0
    7.2737   12.1944   25.7462 C   0  0  0  0  0  0  0  0  0  0  0  0
    7.5841   11.6107   24.3374 C   0  0  0  0  0  0  0  0  0  0  0  0
    8.1710   10.2648   24.3581 O   0  0  0  0  0  0  0  0  0  0  0  0
   11.4424   13.7610   20.7654 O   0  0  0  0  0  0  0  0  0  0  0  0
    7.7213   14.4093   23.2910 H   0  0  0  0  0  0  0  0  0  0  0  0
    9.4685   15.2090   21.7315 H   0  0  0  0  0  0  0  0  0  0  0  0
   11.2862   11.2993   21.7115 H   0  0  0  0  0  0  0  0  0  0  0  0
    9.1722    9.4359   22.7392 H   0  0  0  0  0  0  0  0  0  0  0  0
   10.2045    9.9081   24.1397 H   0  0  0  0  0  0  0  0  0  0  0  0
    5.0467   12.2327   26.0016 H   0  0  0  0  0  0  0  0  0  0  0  0
    5.7578   10.5986   26.0276 H   0  0  0  0  0  0  0  0  0  0  0  0
    5.6380   10.7706   23.5567 H   0  0  0  0  0  0  0  0  0  0  0  0
    5.6779   12.5490   23.6093 H   0  0  0  0  0  0  0  0  0  0  0  0
    7.2976   13.2888   25.8024 H   0  0  0  0  0  0  0  0  0  0  0  0
    7.8647   11.7876   26.5719 H   0  0  0  0  0  0  0  0  0  0  0  0
   11.2916   14.6973   20.5607 H   0  0  0  0  0  0  0  0  0  0  0  0
  1  2  1  0  0  0  0
  1  4  2  0  0  0  0
  2  6  2  0  0  0  0
  3  5  2  0  0  0  0
  3  6  1  0  0  0  0
  4  5  1  0  0  0  0
  4 11  1  0  0  0  0
  5  7  1  0  0  0  0
  6 13  1  0  0  0  0
  7 12  1  0  0  0  0
  8  9  1  0  0  0  0
  8 10  1  0  0  0  0
  9 11  1  0  0  0  0
 10 11  1  0  0  0  0
 11 12  1  0  0  0  0
  1 14  1  0  0  0  0
  2 15  1  0  0  0  0
  3 16  1  0  0  0  0
  7 17  1  0  0  0  0
  7 18  1  0  0  0  0
  8 19  1  0  0  0  0
  8 20  1  0  0  0  0
  9 21  1  0  0  0  0
  9 22  1  0  0  0  0
 10 23  1  0  0  0  0
 10 24  1  0  0  0  0
 13 25  1  0  0  0  0
M  END
> <Catalog ID>
Z1939443817

> <PlateID>
1337959-R-13

> <Well>
F11

> <MW (desalted)>
176.212

> <CLogP>
1.262

> <HBD>
1

> <TPSA>
29.460

> <RotBonds>
0

> <ROCS_ShapeQuery>
x0446_0A_x1080_0A_x0929_0A_x0812_0A_x0719_0A_x1140_0A_x0528_0A_x0310_0A

> <ROCS_TanimotoCombo>
0.304 

> <ROCS_ShapeTanimoto>
0.188 

> <ROCS_ColorTanimoto>
0.115 

> <ROCS_RefTversky>
0.174 

> <ROCS_RefColorTversky>
0.125 

> <ROCS_RefTverskyCombo>
0.300 

> <ROCS_FitTversky>
1.744 

> <ROCS_FitColorTversky>
0.589 

> <ROCS_FitTverskyCombo>
2.333 

> <ROCS_ColorScore>
-4.467

> <ROCS_Overlap>
2056.182

> <ROCS_Rank>
333                 

$$$$
untitled-dbase-664_13
  -OEChem-02082415003D

 27 28  0     0  0  0  0  0  0999 V2000
   10.1061   11.5849   22.5842 C   0  0  0  0  0  0  0  0  0  0  0  0
    8.3487   12.7657   23.7251 C   0  0  0  0  0  0  0  0  0  0  0  0
    9.5768   10.4115   23.0968 C   0  0  0  0  0  0  0  0  0  0  0  0
    9.4744   12.7802   22.9092 C   0  0  0  0  0  0  0  0  0  0  0  0
    7.8980   11.5394   24.1864 C   0  0  0  0  0  0  0  0  0  0  0  0
    9.9895   14.0403   22.3982 C   0  0  0  0  0  0  0  0  0  0  0  0
    5.0053   12.2774   26.1963 C   0  0  0  0  0  0  0  0  0  0  0  0
    6.5305   12.2535   26.4112 C   0  0  0  0  0  0  0  0  0  0  0  0
    5.2917   12.0626   24.6977 C   0  0  0  0  0  0  0  0  0  0  0  0
    6.6291   11.3836   25.1216 C   0  0  0  0  0  0  0  0  0  0  0  0
   11.8947   15.4766   22.3713 C   0  0  0  0  0  0  0  0  0  0  0  0
    8.4851   10.3577   23.8923 N   0  0  0  0  0  0  0  0  0  0  0  0
    9.3485   14.8195   21.6802 O   0  0  0  0  0  0  0  0  0  0  0  0
   11.2752   14.2628   22.8102 O   0  0  0  0  0  0  0  0  0  0  0  0
   10.9863   11.5610   21.9507 H   0  0  0  0  0  0  0  0  0  0  0  0
    7.8364   13.6837   23.9946 H   0  0  0  0  0  0  0  0  0  0  0  0
   10.0322    9.4524   22.8730 H   0  0  0  0  0  0  0  0  0  0  0  0
    4.4787   11.4412   26.6704 H   0  0  0  0  0  0  0  0  0  0  0  0
    4.5012   13.2112   26.4564 H   0  0  0  0  0  0  0  0  0  0  0  0
    7.0014   13.2408   26.3317 H   0  0  0  0  0  0  0  0  0  0  0  0
    6.8678   11.7738   27.3339 H   0  0  0  0  0  0  0  0  0  0  0  0
    4.5805   11.4211   24.1703 H   0  0  0  0  0  0  0  0  0  0  0  0
    5.4141   12.9953   24.1339 H   0  0  0  0  0  0  0  0  0  0  0  0
    6.4758   10.3147   25.3504 H   0  0  0  0  0  0  0  0  0  0  0  0
   12.9117   15.5312   22.7671 H   0  0  0  0  0  0  0  0  0  0  0  0
   11.3101   16.3317   22.7200 H   0  0  0  0  0  0  0  0  0  0  0  0
   11.9302   15.4829   21.2794 H   0  0  0  0  0  0  0  0  0  0  0  0
  1  3  1  0  0  0  0
  1  4  2  0  0  0  0
  2  4  1  0  0  0  0
  2  5  2  0  0  0  0
  3 12  2  0  0  0  0
  4  6  1  0  0  0  0
  5 10  1  0  0  0  0
  5 12  1  0  0  0  0
  6 13  2  0  0  0  0
  6 14  1  0  0  0  0
  7  8  1  0  0  0  0
  7  9  1  0  0  0  0
  8 10  1  0  0  0  0
  9 10  1  0  0  0  0
 11 14  1  0  0  0  0
  1 15  1  0  0  0  0
  2 16  1  0  0  0  0
  3 17  1  0  0  0  0
  7 18  1  0  0  0  0
  7 19  1  0  0  0  0
  8 20  1  0  0  0  0
  8 21  1  0  0  0  0
  9 22  1  0  0  0  0
  9 23  1  0  0  0  0
 10 24  1  0  0  0  0
 11 25  1  0  0  0  0
 11 26  1  0  0  0  0
 11 27  1  0  0  0  0
M  END
> <Catalog ID>
Z2732662714

> <PlateID>
1337959-R-15

> <Well>
F03

> <MW (desalted)>
191.226

> <CLogP>
2.269

> <HBD>
0

> <TPSA>
39.190

> <RotBonds>
3

> <ROCS_ShapeQuery>
x0446_0A_x1080_0A_x0929_0A_x0812_0A_x0719_0A_x1140_0A_x0528_0A_x0310_0A

> <ROCS_TanimotoCombo>
0.304 

> <ROCS_ShapeTanimoto>
0.199 

> <ROCS_ColorTanimoto>
0.105 

> <ROCS_RefTversky>
0.183 

> <ROCS_RefColorTversky>
0.110 

> <ROCS_RefTverskyCombo>
0.293 

> <ROCS_FitTversky>
1.789 

> <ROCS_FitColorTversky>
0.691 

> <ROCS_FitTverskyCombo>
2.480 

> <ROCS_ColorScore>
-3.914

> <ROCS_Overlap>
2152.845

> <ROCS_Rank>
334                 

$$$$
untitled-dbase-237_0
  -OEChem-02082415003D

 16 17  0     0  0  0  0  0  0999 V2000
    8.9593   11.6608   25.1217 C   0  0  0  0  0  0  0  0  0  0  0  0
    7.9337   12.3487   23.4223 C   0  0  0  0  0  0  0  0  0  0  0  0
    9.9793   11.1460   23.0001 C   0  0  0  0  0  0  0  0  0  0  0  0
    7.9977   10.9450   24.1140 C   0  0  0  0  0  0  0  0  0  0  0  0
    9.4334   12.3090   23.7991 C   0  0  0  0  0  0  0  0  0  0  0  0
    8.9178   10.1591   23.2523 N   0  0  0  0  0  0  0  0  0  0  0  0
   10.2186   13.4949   23.8123 O   0  0  0  0  0  0  0  0  0  0  0  0
    8.4840   12.3339   25.8447 H   0  0  0  0  0  0  0  0  0  0  0  0
    9.6740   11.0243   25.6535 H   0  0  0  0  0  0  0  0  0  0  0  0
    7.6843   12.3583   22.3563 H   0  0  0  0  0  0  0  0  0  0  0  0
    7.3289   13.1087   23.9305 H   0  0  0  0  0  0  0  0  0  0  0  0
   10.0673   11.3778   21.9334 H   0  0  0  0  0  0  0  0  0  0  0  0
   10.9430   10.7902   23.3773 H   0  0  0  0  0  0  0  0  0  0  0  0
    7.0891   10.4647   24.4721 H   0  0  0  0  0  0  0  0  0  0  0  0
    8.5037    9.8713   22.3661 H   0  0  0  0  0  0  0  0  0  0  0  0
   10.3993   13.7203   22.8858 H   0  0  0  0  0  0  0  0  0  0  0  0
  1  4  1  0  0  0  0
  1  5  1  0  0  0  0
  2  4  1  0  0  0  0
  2  5  1  0  0  0  0
  3  5  1  0  0  0  0
  3  6  1  0  0  0  0
  4  6  1  0  0  0  0
  5  7  1  0  0  0  0
  1  8  1  0  0  0  0
  1  9  1  0  0  0  0
  2 10  1  0  0  0  0
  2 11  1  0  0  0  0
  3 12  1  0  0  0  0
  3 13  1  0  0  0  0
  4 14  1  0  0  0  0
  6 15  1  0  0  0  0
  7 16  1  0  0  0  0
M  END
> <Catalog ID>
Z4283388262

> <PlateID>
1337959-R-05

> <Well>
G02

> <MW (desalted)>
99.131

> <CLogP>
-0.660

> <HBD>
2

> <TPSA>
32.260

> <RotBonds>
0

> <ROCS_ShapeQuery>
x0446_0A_x1080_0A_x0929_0A_x0812_0A_x0719_0A_x1140_0A_x0528_0A_x0310_0A

> <ROCS_TanimotoCombo>
0.303 

> <ROCS_ShapeTanimoto>
0.136 

> <ROCS_ColorTanimoto>
0.167 

> <ROCS_RefTversky>
0.129 

> <ROCS_RefColorTversky>
0.192 

> <ROCS_RefTverskyCombo>
0.321 

> <ROCS_FitTversky>
1.669 

> <ROCS_FitColorTversky>
0.566 

> <ROCS_FitTverskyCombo>
2.235 

> <ROCS_ColorScore>
-6.871

> <ROCS_Overlap>
1524.020

> <ROCS_Rank>
335                 

$$$$
untitled-dbase-501_20
  -OEChem-02082415003D

 31 32  0     1  0  0  0  0  0999 V2000
    9.8498   12.2831   23.7360 C   0  0  0  0  0  0  0  0  0  0  0  0
   10.0054   11.0213   23.1621 C   0  0  0  0  0  0  0  0  0  0  0  0
    7.8546   10.3571   24.0394 C   0  0  0  0  0  0  0  0  0  0  0  0
    8.6967   12.5818   24.4617 C   0  0  0  0  0  0  0  0  0  0  0  0
    9.0078   10.0583   23.3138 C   0  0  0  0  0  0  0  0  0  0  0  0
    7.6990   11.6188   24.6134 C   0  0  0  0  0  0  0  0  0  0  0  0
    7.5883   15.4433   21.9541 C   0  0  0  0  0  0  0  0  0  0  0  0
    6.6285   16.3817   24.0610 C   0  0  0  0  0  0  0  0  0  0  0  0
    8.9655   16.3085   24.6319 C   0  0  0  0  0  0  0  0  0  0  0  0
    7.3079   15.1812   23.4038 C   0  0  2  0  0  0  0  0  0  0  0  0
    7.6464   16.9265   25.0462 C   0  0  2  0  0  0  0  0  0  0  0  0
    8.5680   13.9515   25.0631 C   0  0  0  0  0  0  0  0  0  0  0  0
    8.6184   15.0026   24.0467 N   0  0  2  0  0  0  0  0  0  0  0  0
    6.4612   15.6946   21.2079 N   0  0  0  0  0  0  0  0  0  0  0  0
    8.7299   15.4453   21.4999 O   0  0  0  0  0  0  0  0  0  0  0  0
    9.1574    8.8470   22.7620 F   0  0  0  0  0  0  0  0  0  0  0  0
    7.3297   16.4935   26.2964 F   0  0  0  0  0  0  0  0  0  0  0  0
    6.2581   11.9531   25.5029 Cl  0  0  0  0  0  0  0  0  0  0  0  0
   10.6337   13.0256   23.6113 H   0  0  0  0  0  0  0  0  0  0  0  0
   10.9028   10.7894   22.5962 H   0  0  0  0  0  0  0  0  0  0  0  0
    7.0871    9.5949   24.1480 H   0  0  0  0  0  0  0  0  0  0  0  0
    6.3147   17.1598   23.3518 H   0  0  0  0  0  0  0  0  0  0  0  0
    5.7286   16.0585   24.6043 H   0  0  0  0  0  0  0  0  0  0  0  0
    9.5004   16.9515   23.9053 H   0  0  0  0  0  0  0  0  0  0  0  0
    9.6334   16.2071   25.5135 H   0  0  0  0  0  0  0  0  0  0  0  0
    6.6645   14.2920   23.4776 H   0  0  0  0  0  0  0  0  0  0  0  0
    7.6763   18.0119   25.0477 H   0  0  0  0  0  0  0  0  0  0  0  0
    7.6194   14.0488   25.6023 H   0  0  0  0  0  0  0  0  0  0  0  0
    9.3718   14.1421   25.7820 H   0  0  0  0  0  0  0  0  0  0  0  0
    5.5585   15.6852   21.6711 H   0  0  0  0  0  0  0  0  0  0  0  0
    6.4959   15.8890   20.2124 H   0  0  0  0  0  0  0  0  0  0  0  0
  1  2  1  0  0  0  0
  1  4  2  0  0  0  0
  2  5  2  0  0  0  0
  3  5  1  0  0  0  0
  3  6  2  0  0  0  0
  4  6  1  0  0  0  0
  4 12  1  0  0  0  0
  5 16  1  0  0  0  0
  6 18  1  0  0  0  0
  7 10  1  1  0  0  0
  7 14  1  0  0  0  0
  7 15  2  0  0  0  0
  8 10  1  0  0  0  0
  8 11  1  0  0  0  0
  9 11  1  0  0  0  0
  9 13  1  0  0  0  0
 10 13  1  0  0  0  0
 11 17  1  6  0  0  0
 12 13  1  0  0  0  0
  1 19  1  0  0  0  0
  2 20  1  0  0  0  0
  3 21  1  0  0  0  0
  8 22  1  0  0  0  0
  8 23  1  0  0  0  0
  9 24  1  0  0  0  0
  9 25  1  0  0  0  0
 10 26  1  0  0  0  0
 11 27  1  0  0  0  0
 12 28  1  0  0  0  0
 12 29  1  0  0  0  0
 14 30  1  0  0  0  0
 14 31  1  0  0  0  0
M  END
> <Catalog ID>
Z2054555786

> <PlateID>
1337959-R-11

> <Well>
H03

> <MW (desalted)>
274.694

> <CLogP>
2.142

> <HBD>
1

> <TPSA>
46.330

> <RotBonds>
3

> <ROCS_ShapeQuery>
x0446_0A_x1080_0A_x0929_0A_x0812_0A_x0719_0A_x1140_0A_x0528_0A_x0310_0A

> <ROCS_TanimotoCombo>
0.303 

> <ROCS_ShapeTanimoto>
0.192 

> <ROCS_ColorTanimoto>
0.112 

> <ROCS_RefTversky>
0.180 

> <ROCS_RefColorTversky>
0.119 

> <ROCS_RefTverskyCombo>
0.299 

> <ROCS_FitTversky>
1.545 

> <ROCS_FitColorTversky>
0.642 

> <ROCS_FitTverskyCombo>
2.186 

> <ROCS_ColorScore>
-4.241

> <ROCS_Overlap>
2119.252

> <ROCS_Rank>
336                 

$$$$
untitled-dbase-110_0
  -OEChem-02082415003D

 26 27  0     0  0  0  0  0  0999 V2000
    9.1082    9.8490   23.2865 C   0  0  0  0  0  0  0  0  0  0  0  0
    8.2017    9.7346   24.3404 C   0  0  0  0  0  0  0  0  0  0  0  0
    9.4151   11.1054   22.7638 C   0  0  0  0  0  0  0  0  0  0  0  0
    7.6021   10.8765   24.8717 C   0  0  0  0  0  0  0  0  0  0  0  0
    8.8155   12.2472   23.2950 C   0  0  0  0  0  0  0  0  0  0  0  0
    9.1485   13.5308   22.7377 C   0  0  0  0  0  0  0  0  0  0  0  0
    7.9090   12.1328   24.3490 C   0  0  0  0  0  0  0  0  0  0  0  0
    8.5733   14.2669   21.6875 C   0  0  0  0  0  0  0  0  0  0  0  0
   10.1733   14.3291   23.1719 C   0  0  0  0  0  0  0  0  0  0  0  0
    7.2461   13.3335   24.9446 C   0  0  0  0  0  0  0  0  0  0  0  0
    7.4243   13.9021   20.8410 C   0  0  0  0  0  0  0  0  0  0  0  0
    9.1940   15.4326   21.4858 N   0  0  0  0  0  0  0  0  0  0  0  0
   11.0975   14.1931   24.1460 N   0  0  0  0  0  0  0  0  0  0  0  0
   10.2107   15.4671   22.4325 O   0  0  0  0  0  0  0  0  0  0  0  0
    9.5752    8.9598   22.8732 H   0  0  0  0  0  0  0  0  0  0  0  0
    7.9633    8.7564   24.7478 H   0  0  0  0  0  0  0  0  0  0  0  0
   10.1240   11.1762   21.9421 H   0  0  0  0  0  0  0  0  0  0  0  0
    6.8975   10.7761   25.6932 H   0  0  0  0  0  0  0  0  0  0  0  0
    7.8499   13.7289   25.7688 H   0  0  0  0  0  0  0  0  0  0  0  0
    7.1139   14.1233   24.1958 H   0  0  0  0  0  0  0  0  0  0  0  0
    6.2493   13.0845   25.3275 H   0  0  0  0  0  0  0  0  0  0  0  0
    6.4759   14.2581   21.2784 H   0  0  0  0  0  0  0  0  0  0  0  0
    7.5028   14.3286   19.8252 H   0  0  0  0  0  0  0  0  0  0  0  0
    7.3379   12.8094   20.7040 H   0  0  0  0  0  0  0  0  0  0  0  0
   11.1088   13.3820   24.7822 H   0  0  0  0  0  0  0  0  0  0  0  0
   11.7785   14.9360   24.3634 H   0  0  0  0  0  0  0  0  0  0  0  0
  1  2  2  0  0  0  0
  1  3  1  0  0  0  0
  2  4  1  0  0  0  0
  3  5  2  0  0  0  0
  4  7  2  0  0  0  0
  5  6  1  0  0  0  0
  5  7  1  0  0  0  0
  6  8  1  0  0  0  0
  6  9  2  0  0  0  0
  7 10  1  0  0  0  0
  8 11  1  0  0  0  0
  8 12  2  0  0  0  0
  9 13  1  0  0  0  0
  9 14  1  0  0  0  0
 12 14  1  0  0  0  0
  1 15  1  0  0  0  0
  2 16  1  0  0  0  0
  3 17  1  0  0  0  0
  4 18  1  0  0  0  0
 10 19  1  0  0  0  0
 10 20  1  0  0  0  0
 10 21  1  0  0  0  0
 11 22  1  0  0  0  0
 11 23  1  0  0  0  0
 11 24  1  0  0  0  0
 13 25  1  0  0  0  0
 13 26  1  0  0  0  0
M  END
> <Catalog ID>
Z385389096

> <PlateID>
1337959-R-03

> <Well>
B03

> <MW (desalted)>
188.226

> <CLogP>
1.825

> <HBD>
1

> <TPSA>
52.050

> <RotBonds>
0

> <ROCS_ShapeQuery>
x0446_0A_x1080_0A_x0929_0A_x0812_0A_x0719_0A_x1140_0A_x0528_0A_x0310_0A

> <ROCS_TanimotoCombo>
0.303 

> <ROCS_ShapeTanimoto>
0.195 

> <ROCS_ColorTanimoto>
0.109 

> <ROCS_RefTversky>
0.180 

> <ROCS_RefColorTversky>
0.116 

> <ROCS_RefTverskyCombo>
0.296 

> <ROCS_FitTversky>
1.737 

> <ROCS_FitColorTversky>
0.625 

> <ROCS_FitTverskyCombo>
2.362 

> <ROCS_ColorScore>
-4.132

> <ROCS_Overlap>
2122.609

> <ROCS_Rank>
337                 

$$$$
untitled-dbase-434_27
  -OEChem-02082415003D

 39 40  0     1  0  0  0  0  0999 V2000
    6.3313   14.9322   23.9675 C   0  0  0  0  0  0  0  0  0  0  0  0
    8.1165   16.1451   24.3882 C   0  0  0  0  0  0  0  0  0  0  0  0
    7.6353   15.2035   23.5117 C   0  0  0  0  0  0  0  0  0  0  0  0
    8.3976    9.6413   24.2005 C   0  0  0  0  0  0  0  0  0  0  0  0
    7.3791   10.7778   24.1959 C   0  0  0  0  0  0  0  0  0  0  0  0
    9.7827   10.1281   24.6169 C   0  0  0  0  0  0  0  0  0  0  0  0
    7.8452   11.9488   23.3325 C   0  0  0  0  0  0  0  0  0  0  0  0
   10.2517   11.2979   23.7535 C   0  0  0  0  0  0  0  0  0  0  0  0
    9.2316   12.4416   23.7614 C   0  0  0  0  0  0  0  0  0  0  0  0
   11.9542   14.2465   22.3208 C   0  0  0  0  0  0  0  0  0  0  0  0
    7.1459   17.2869   26.3966 C   0  0  0  0  0  0  0  0  0  0  0  0
   10.9008   14.1850   23.3740 C   0  0  0  0  0  0  0  0  0  0  0  0
    6.0049   15.6439   25.0496 N   0  0  0  0  0  0  0  0  0  0  0  0
    7.1107   16.3716   25.2811 N   0  0  0  0  0  0  0  0  0  0  0  0
    9.6767   13.5105   22.8693 N   0  0  2  0  0  0  0  0  0  0  0  0
    7.5155   13.6457   21.4313 O   0  0  0  0  0  0  0  0  0  0  0  0
    9.1113   15.5788   21.4026 O   0  0  0  0  0  0  0  0  0  0  0  0
    8.4710   14.4927   22.1214 S   0  0  0  0  0  0  0  0  0  0  0  0
    5.6033   14.2460   23.5586 H   0  0  0  0  0  0  0  0  0  0  0  0
    9.0652   16.6605   24.4513 H   0  0  0  0  0  0  0  0  0  0  0  0
    8.0645    8.8504   24.8819 H   0  0  0  0  0  0  0  0  0  0  0  0
    8.4530    9.1977   23.1988 H   0  0  0  0  0  0  0  0  0  0  0  0
    6.4159   10.4080   23.8267 H   0  0  0  0  0  0  0  0  0  0  0  0
    7.2158   11.1254   25.2234 H   0  0  0  0  0  0  0  0  0  0  0  0
    9.7602   10.4381   25.6689 H   0  0  0  0  0  0  0  0  0  0  0  0
   10.5008    9.3037   24.5421 H   0  0  0  0  0  0  0  0  0  0  0  0
    7.8650   11.6385   22.2794 H   0  0  0  0  0  0  0  0  0  0  0  0
    7.1192   12.7680   23.4006 H   0  0  0  0  0  0  0  0  0  0  0  0
   11.2214   11.6585   24.1176 H   0  0  0  0  0  0  0  0  0  0  0  0
   10.4170   10.9472   22.7263 H   0  0  0  0  0  0  0  0  0  0  0  0
    9.1637   12.8560   24.7841 H   0  0  0  0  0  0  0  0  0  0  0  0
   11.5735   14.8052   21.4530 H   0  0  0  0  0  0  0  0  0  0  0  0
   12.8441   14.7538   22.7216 H   0  0  0  0  0  0  0  0  0  0  0  0
   12.2224   13.2259   22.0106 H   0  0  0  0  0  0  0  0  0  0  0  0
    6.7836   18.2576   26.0480 H   0  0  0  0  0  0  0  0  0  0  0  0
    6.5084   16.9068   27.1998 H   0  0  0  0  0  0  0  0  0  0  0  0
    8.1727   17.3702   26.7635 H   0  0  0  0  0  0  0  0  0  0  0  0
   11.2890   13.6252   24.2377 H   0  0  0  0  0  0  0  0  0  0  0  0
   10.6444   15.2083   23.6856 H   0  0  0  0  0  0  0  0  0  0  0  0
  1  3  1  0  0  0  0
  1 13  2  0  0  0  0
  2  3  2  0  0  0  0
  2 14  1  0  0  0  0
  3 18  1  0  0  0  0
  4  5  1  0  0  0  0
  4  6  1  0  0  0  0
  5  7  1  0  0  0  0
  6  8  1  0  0  0  0
  7  9  1  0  0  0  0
  8  9  1  0  0  0  0
  9 15  1  0  0  0  0
 10 12  1  0  0  0  0
 11 14  1  0  0  0  0
 12 15  1  0  0  0  0
 13 14  1  0  0  0  0
 15 18  1  0  0  0  0
 16 18  2  0  0  0  0
 17 18  2  0  0  0  0
  1 19  1  0  0  0  0
  2 20  1  0  0  0  0
  4 21  1  0  0  0  0
  4 22  1  0  0  0  0
  5 23  1  0  0  0  0
  5 24  1  0  0  0  0
  6 25  1  0  0  0  0
  6 26  1  0  0  0  0
  7 27  1  0  0  0  0
  7 28  1  0  0  0  0
  8 29  1  0  0  0  0
  8 30  1  0  0  0  0
  9 31  1  0  0  0  0
 10 32  1  0  0  0  0
 10 33  1  0  0  0  0
 10 34  1  0  0  0  0
 11 35  1  0  0  0  0
 11 36  1  0  0  0  0
 11 37  1  0  0  0  0
 12 38  1  0  0  0  0
 12 39  1  0  0  0  0
M  END
> <Catalog ID>
Z432140670

> <PlateID>
1337959-R-10

> <Well>
C06

> <MW (desalted)>
271.379

> <CLogP>
2.178

> <HBD>
0

> <TPSA>
55.200

> <RotBonds>
3

> <ROCS_ShapeQuery>
x0446_0A_x1080_0A_x0929_0A_x0812_0A_x0719_0A_x1140_0A_x0528_0A_x0310_0A

> <ROCS_TanimotoCombo>
0.303 

> <ROCS_ShapeTanimoto>
0.188 

> <ROCS_ColorTanimoto>
0.115 

> <ROCS_RefTversky>
0.176 

> <ROCS_RefColorTversky>
0.123 

> <ROCS_RefTverskyCombo>
0.299 

> <ROCS_FitTversky>
1.549 

> <ROCS_FitColorTversky>
0.661 

> <ROCS_FitTverskyCombo>
2.210 

> <ROCS_ColorScore>
-4.368

> <ROCS_Overlap>
2078.233

> <ROCS_Rank>
338                 

$$$$
untitled-dbase-494_3
  -OEChem-02082415003D

 27 28  0     0  0  0  0  0  0999 V2000
    9.2648   10.4233   24.8112 C   0  0  0  0  0  0  0  0  0  0  0  0
    7.9684   10.9059   24.9895 C   0  0  0  0  0  0  0  0  0  0  0  0
    8.3087   12.4844   23.1924 C   0  0  0  0  0  0  0  0  0  0  0  0
    9.6053   12.0018   23.0141 C   0  0  0  0  0  0  0  0  0  0  0  0
   10.0833   10.9713   23.8235 C   0  0  0  0  0  0  0  0  0  0  0  0
    7.4903   11.9364   24.1801 C   0  0  0  0  0  0  0  0  0  0  0  0
   10.4649   12.5813   21.9729 C   0  0  0  0  0  0  0  0  0  0  0  0
   11.3359   14.3080   23.6338 C   0  0  0  0  0  0  0  0  0  0  0  0
   12.2009   14.2200   21.3297 C   0  0  0  0  0  0  0  0  0  0  0  0
   11.2715   15.8240   23.4906 C   0  0  0  0  0  0  0  0  0  0  0  0
   12.0884   15.7368   21.2815 C   0  0  0  0  0  0  0  0  0  0  0  0
   11.2698   13.6698   22.3135 N   0  0  0  0  0  0  0  0  0  0  0  0
   10.4126   12.0496   20.8648 O   0  0  0  0  0  0  0  0  0  0  0  0
   12.2796   16.2860   22.5880 O   0  0  0  0  0  0  0  0  0  0  0  0
   11.3275   10.4987   23.6616 F   0  0  0  0  0  0  0  0  0  0  0  0
    5.8905   12.5317   24.4003 Cl  0  0  0  0  0  0  0  0  0  0  0  0
    9.6374    9.6211   25.4413 H   0  0  0  0  0  0  0  0  0  0  0  0
    7.3416   10.4694   25.7628 H   0  0  0  0  0  0  0  0  0  0  0  0
    7.9391   13.2883   22.5596 H   0  0  0  0  0  0  0  0  0  0  0  0
   12.2359   14.0200   24.1822 H   0  0  0  0  0  0  0  0  0  0  0  0
   10.4658   13.9461   24.1945 H   0  0  0  0  0  0  0  0  0  0  0  0
   11.9203   13.7878   20.3618 H   0  0  0  0  0  0  0  0  0  0  0  0
   13.2288   13.9170   21.5514 H   0  0  0  0  0  0  0  0  0  0  0  0
   10.3002   16.1173   23.0797 H   0  0  0  0  0  0  0  0  0  0  0  0
   11.3868   16.3240   24.4596 H   0  0  0  0  0  0  0  0  0  0  0  0
   12.8147   16.1740   20.5860 H   0  0  0  0  0  0  0  0  0  0  0  0
   11.0882   16.0253   20.9432 H   0  0  0  0  0  0  0  0  0  0  0  0
  1  2  1  0  0  0  0
  1  5  2  0  0  0  0
  2  6  2  0  0  0  0
  3  4  2  0  0  0  0
  3  6  1  0  0  0  0
  4  5  1  0  0  0  0
  4  7  1  0  0  0  0
  5 15  1  0  0  0  0
  6 16  1  0  0  0  0
  7 12  1  0  0  0  0
  7 13  2  0  0  0  0
  8 10  1  0  0  0  0
  8 12  1  0  0  0  0
  9 11  1  0  0  0  0
  9 12  1  0  0  0  0
 10 14  1  0  0  0  0
 11 14  1  0  0  0  0
  1 17  1  0  0  0  0
  2 18  1  0  0  0  0
  3 19  1  0  0  0  0
  8 20  1  0  0  0  0
  8 21  1  0  0  0  0
  9 22  1  0  0  0  0
  9 23  1  0  0  0  0
 10 24  1  0  0  0  0
 10 25  1  0  0  0  0
 11 26  1  0  0  0  0
 11 27  1  0  0  0  0
M  END
> <Catalog ID>
Z108673192

> <PlateID>
1337959-R-11

> <Well>
G04

> <MW (desalted)>
243.662

> <CLogP>
1.730

> <HBD>
0

> <TPSA>
29.540

> <RotBonds>
1

> <ROCS_ShapeQuery>
x0446_0A_x1080_0A_x0929_0A_x0812_0A_x0719_0A_x1140_0A_x0528_0A_x0310_0A

> <ROCS_TanimotoCombo>
0.303 

> <ROCS_ShapeTanimoto>
0.199 

> <ROCS_ColorTanimoto>
0.104 

> <ROCS_RefTversky>
0.184 

> <ROCS_RefColorTversky>
0.109 

> <ROCS_RefTverskyCombo>
0.294 

> <ROCS_FitTversky>
1.686 

> <ROCS_FitColorTversky>
0.686 

> <ROCS_FitTverskyCombo>
2.372 

> <ROCS_ColorScore>
-3.885

> <ROCS_Overlap>
2172.815

> <ROCS_Rank>
339                 

$$$$
untitled-dbase-229_8
  -OEChem-02082415003D

 29 30  0     0  0  0  0  0  0999 V2000
    8.6785    9.4334   24.0508 C   0  0  0  0  0  0  0  0  0  0  0  0
    7.6952   10.1991   24.6771 C   0  0  0  0  0  0  0  0  0  0  0  0
    9.6420   10.0519   23.2541 C   0  0  0  0  0  0  0  0  0  0  0  0
    7.6753   11.5834   24.5066 C   0  0  0  0  0  0  0  0  0  0  0  0
    9.6221   11.4361   23.0835 C   0  0  0  0  0  0  0  0  0  0  0  0
    8.6388   12.2019   23.7098 C   0  0  0  0  0  0  0  0  0  0  0  0
    5.6891   14.4349   21.7602 C   0  0  0  0  0  0  0  0  0  0  0  0
    7.1907   16.2964   21.4296 C   0  0  0  0  0  0  0  0  0  0  0  0
    6.8192   13.4444   21.4990 C   0  0  0  0  0  0  0  0  0  0  0  0
    8.3520   15.3445   21.1614 C   0  0  0  0  0  0  0  0  0  0  0  0
    5.9126   15.6935   21.0460 N   0  0  0  0  0  0  0  0  0  0  0  0
    8.1318   14.0481   21.8607 N   0  0  0  0  0  0  0  0  0  0  0  0
    7.5492   14.4827   24.3296 O   0  0  0  0  0  0  0  0  0  0  0  0
    9.9663   14.4411   23.6199 O   0  0  0  0  0  0  0  0  0  0  0  0
   10.5529   12.0191   22.3151 F   0  0  0  0  0  0  0  0  0  0  0  0
    8.6090   13.9542   23.4977 S   0  0  0  0  0  0  0  0  0  0  0  0
    8.6941    8.3556   24.1837 H   0  0  0  0  0  0  0  0  0  0  0  0
    6.9455    9.7176   25.2981 H   0  0  0  0  0  0  0  0  0  0  0  0
   10.4077    9.4559   22.7664 H   0  0  0  0  0  0  0  0  0  0  0  0
    6.9047   12.1702   24.9993 H   0  0  0  0  0  0  0  0  0  0  0  0
    4.7376   14.0026   21.4326 H   0  0  0  0  0  0  0  0  0  0  0  0
    5.5944   14.6343   22.8346 H   0  0  0  0  0  0  0  0  0  0  0  0
    7.1611   16.5764   22.4896 H   0  0  0  0  0  0  0  0  0  0  0  0
    7.3341   17.2214   20.8609 H   0  0  0  0  0  0  0  0  0  0  0  0
    6.6533   12.5448   22.1089 H   0  0  0  0  0  0  0  0  0  0  0  0
    6.8324   13.1379   20.4419 H   0  0  0  0  0  0  0  0  0  0  0  0
    8.4687   15.1664   20.0814 H   0  0  0  0  0  0  0  0  0  0  0  0
    9.2811   15.8022   21.5300 H   0  0  0  0  0  0  0  0  0  0  0  0
    5.9245   15.5056   20.0421 H   0  0  0  0  0  0  0  0  0  0  0  0
  1  2  2  0  0  0  0
  1  3  1  0  0  0  0
  2  4  1  0  0  0  0
  3  5  2  0  0  0  0
  4  6  2  0  0  0  0
  5  6  1  0  0  0  0
  5 15  1  0  0  0  0
  6 16  1  0  0  0  0
  7  9  1  0  0  0  0
  7 11  1  0  0  0  0
  8 10  1  0  0  0  0
  8 11  1  0  0  0  0
  9 12  1  0  0  0  0
 10 12  1  0  0  0  0
 12 16  1  0  0  0  0
 13 16  2  0  0  0  0
 14 16  2  0  0  0  0
  1 17  1  0  0  0  0
  2 18  1  0  0  0  0
  3 19  1  0  0  0  0
  4 20  1  0  0  0  0
  7 21  1  0  0  0  0
  7 22  1  0  0  0  0
  8 23  1  0  0  0  0
  8 24  1  0  0  0  0
  9 25  1  0  0  0  0
  9 26  1  0  0  0  0
 10 27  1  0  0  0  0
 10 28  1  0  0  0  0
 11 29  1  0  0  0  0
M  END
> <Catalog ID>
Z295451046

> <PlateID>
1337959-R-05

> <Well>
E09

> <MW (desalted)>
244.286

> <CLogP>
1.412

> <HBD>
1

> <TPSA>
49.410

> <RotBonds>
1

> <ROCS_ShapeQuery>
x0446_0A_x1080_0A_x0929_0A_x0812_0A_x0719_0A_x1140_0A_x0528_0A_x0310_0A

> <ROCS_TanimotoCombo>
0.303 

> <ROCS_ShapeTanimoto>
0.203 

> <ROCS_ColorTanimoto>
0.100 

> <ROCS_RefTversky>
0.187 

> <ROCS_RefColorTversky>
0.111 

> <ROCS_RefTverskyCombo>
0.297 

> <ROCS_FitTversky>
1.732 

> <ROCS_FitColorTversky>
0.521 

> <ROCS_FitTverskyCombo>
2.252 

> <ROCS_ColorScore>
-3.939

> <ROCS_Overlap>
2203.986

> <ROCS_Rank>
340                 

$$$$
untitled-dbase-380_11
  -OEChem-02082415003D

 32 33  0     0  0  0  0  0  0999 V2000
   12.5620   16.0231   22.3395 C   0  0  0  0  0  0  0  0  0  0  0  0
   11.1973   16.3072   22.3899 C   0  0  0  0  0  0  0  0  0  0  0  0
   12.0622   13.6960   21.9247 C   0  0  0  0  0  0  0  0  0  0  0  0
   12.9945   14.7175   22.1069 C   0  0  0  0  0  0  0  0  0  0  0  0
   10.2651   15.2857   22.2077 C   0  0  0  0  0  0  0  0  0  0  0  0
   10.6975   13.9801   21.9751 C   0  0  0  0  0  0  0  0  0  0  0  0
    8.0202   12.5090   24.8278 C   0  0  0  0  0  0  0  0  0  0  0  0
    7.7483   10.4249   23.6260 C   0  0  0  0  0  0  0  0  0  0  0  0
    9.5062   12.5418   24.4761 C   0  0  0  0  0  0  0  0  0  0  0  0
    9.2296   10.4225   23.2538 C   0  0  0  0  0  0  0  0  0  0  0  0
    6.1153   11.0982   25.2668 C   0  0  0  0  0  0  0  0  0  0  0  0
    7.5307   11.1244   24.9009 N   0  0  0  0  0  0  0  0  0  0  0  0
    9.7540   11.8144   23.2016 N   0  0  0  0  0  0  0  0  0  0  0  0
    8.2019   13.2744   21.7583 O   0  0  0  0  0  0  0  0  0  0  0  0
    9.9666   11.8671   20.6390 O   0  0  0  0  0  0  0  0  0  0  0  0
   14.3051   14.4449   22.0593 F   0  0  0  0  0  0  0  0  0  0  0  0
    8.9563   15.5703   22.2611 F   0  0  0  0  0  0  0  0  0  0  0  0
    9.5224   12.6822   21.7493 S   0  0  0  0  0  0  0  0  0  0  0  0
   13.2877   16.8185   22.4818 H   0  0  0  0  0  0  0  0  0  0  0  0
   10.8597   17.3233   22.5706 H   0  0  0  0  0  0  0  0  0  0  0  0
   12.4102   12.6821   21.7464 H   0  0  0  0  0  0  0  0  0  0  0  0
    7.8541   13.0281   25.7811 H   0  0  0  0  0  0  0  0  0  0  0  0
    7.4709   13.0580   24.0538 H   0  0  0  0  0  0  0  0  0  0  0  0
    7.1925   10.9281   22.8259 H   0  0  0  0  0  0  0  0  0  0  0  0
    7.3805    9.3917   23.6836 H   0  0  0  0  0  0  0  0  0  0  0  0
    9.8614   13.5797   24.3850 H   0  0  0  0  0  0  0  0  0  0  0  0
   10.0747   12.0610   25.2852 H   0  0  0  0  0  0  0  0  0  0  0  0
    9.7867    9.8529   24.0116 H   0  0  0  0  0  0  0  0  0  0  0  0
    9.3852    9.9315   22.2809 H   0  0  0  0  0  0  0  0  0  0  0  0
    5.7680   10.0556   25.3164 H   0  0  0  0  0  0  0  0  0  0  0  0
    5.9816   11.5761   26.2486 H   0  0  0  0  0  0  0  0  0  0  0  0
    5.5311   11.6436   24.5110 H   0  0  0  0  0  0  0  0  0  0  0  0
  1  2  1  0  0  0  0
  1  4  2  0  0  0  0
  2  5  2  0  0  0  0
  3  4  1  0  0  0  0
  3  6  2  0  0  0  0
  4 16  1  0  0  0  0
  5  6  1  0  0  0  0
  5 17  1  0  0  0  0
  6 18  1  0  0  0  0
  7  9  1  0  0  0  0
  7 12  1  0  0  0  0
  8 10  1  0  0  0  0
  8 12  1  0  0  0  0
  9 13  1  0  0  0  0
 10 13  1  0  0  0  0
 11 12  1  0  0  0  0
 13 18  1  0  0  0  0
 14 18  2  0  0  0  0
 15 18  2  0  0  0  0
  1 19  1  0  0  0  0
  2 20  1  0  0  0  0
  3 21  1  0  0  0  0
  7 22  1  0  0  0  0
  7 23  1  0  0  0  0
  8 24  1  0  0  0  0
  8 25  1  0  0  0  0
  9 26  1  0  0  0  0
  9 27  1  0  0  0  0
 10 28  1  0  0  0  0
 10 29  1  0  0  0  0
 11 30  1  0  0  0  0
 11 31  1  0  0  0  0
 11 32  1  0  0  0  0
M  END
> <Catalog ID>
Z65514352

> <PlateID>
1337959-R-09

> <Well>
B06

> <MW (desalted)>
276.303

> <CLogP>
2.130

> <HBD>
0

> <TPSA>
40.620

> <RotBonds>
1

> <ROCS_ShapeQuery>
x0446_0A_x1080_0A_x0929_0A_x0812_0A_x0719_0A_x1140_0A_x0528_0A_x0310_0A

> <ROCS_TanimotoCombo>
0.303 

> <ROCS_ShapeTanimoto>
0.213 

> <ROCS_ColorTanimoto>
0.090 

> <ROCS_RefTversky>
0.196 

> <ROCS_RefColorTversky>
0.098 

> <ROCS_RefTverskyCombo>
0.294 

> <ROCS_FitTversky>
1.700 

> <ROCS_FitColorTversky>
0.527 

> <ROCS_FitTverskyCombo>
2.227 

> <ROCS_ColorScore>
-3.482

> <ROCS_Overlap>
2310.870

> <ROCS_Rank>
341                 

$$$$
untitled-dbase-365_12
  -OEChem-02082415003D

 33 34  0     0  0  0  0  0  0999 V2000
    9.9718   14.9915   21.8285 C   0  0  0  0  0  0  0  0  0  0  0  0
    6.1172   12.6491   25.5898 C   0  0  0  0  0  0  0  0  0  0  0  0
    7.5197   12.6480   25.3385 C   0  0  0  0  0  0  0  0  0  0  0  0
    5.4698   11.6378   24.9148 C   0  0  0  0  0  0  0  0  0  0  0  0
    7.8909   11.6355   24.4812 C   0  0  0  0  0  0  0  0  0  0  0  0
    9.7502   12.2300   22.8790 C   0  0  0  0  0  0  0  0  0  0  0  0
   13.0108   14.9345   21.2807 C   0  0  0  0  0  0  0  0  0  0  0  0
   12.8488   15.9421   22.4182 C   0  0  0  0  0  0  0  0  0  0  0  0
   12.1116   13.7495   21.6298 C   0  0  0  0  0  0  0  0  0  0  0  0
   11.8624   15.3169   23.4034 C   0  0  0  0  0  0  0  0  0  0  0  0
   11.0493   14.3183   22.5748 C   0  0  0  0  0  0  0  0  0  0  0  0
    4.0281   11.3073   24.9142 C   0  0  0  0  0  0  0  0  0  0  0  0
    9.2666   11.2960   23.9717 C   0  0  0  0  0  0  0  0  0  0  0  0
    9.1233   15.5216   21.2409 N   0  0  0  0  0  0  0  0  0  0  0  0
   10.4738   13.2893   23.4033 N   0  0  0  0  0  0  0  0  0  0  0  0
    9.5231   12.0518   21.6851 O   0  0  0  0  0  0  0  0  0  0  0  0
    6.5514   10.6922   23.9829 S   0  0  0  0  0  0  0  0  0  0  0  0
    5.6129   13.3573   26.2350 H   0  0  0  0  0  0  0  0  0  0  0  0
    8.2178   13.3550   25.7684 H   0  0  0  0  0  0  0  0  0  0  0  0
   12.7388   15.3669   20.3121 H   0  0  0  0  0  0  0  0  0  0  0  0
   14.0571   14.6139   21.2133 H   0  0  0  0  0  0  0  0  0  0  0  0
   13.8164   16.1169   22.9028 H   0  0  0  0  0  0  0  0  0  0  0  0
   12.4869   16.9096   22.0553 H   0  0  0  0  0  0  0  0  0  0  0  0
   11.6487   13.3655   20.7089 H   0  0  0  0  0  0  0  0  0  0  0  0
   12.6780   12.9170   22.0662 H   0  0  0  0  0  0  0  0  0  0  0  0
   12.3714   14.8554   24.2589 H   0  0  0  0  0  0  0  0  0  0  0  0
   11.2133   16.1051   23.8120 H   0  0  0  0  0  0  0  0  0  0  0  0
    3.5004   11.8463   24.1118 H   0  0  0  0  0  0  0  0  0  0  0  0
    3.8540   10.2287   24.7676 H   0  0  0  0  0  0  0  0  0  0  0  0
    3.5463   11.5690   25.8705 H   0  0  0  0  0  0  0  0  0  0  0  0
    9.9832   11.3227   24.8025 H   0  0  0  0  0  0  0  0  0  0  0  0
    9.2755   10.2693   23.5844 H   0  0  0  0  0  0  0  0  0  0  0  0
   10.6032   13.3423   24.4078 H   0  0  0  0  0  0  0  0  0  0  0  0
  1 11  1  0  0  0  0
  1 14  3  0  0  0  0
  2  3  1  0  0  0  0
  2  4  2  0  0  0  0
  3  5  2  0  0  0  0
  4 12  1  0  0  0  0
  4 17  1  0  0  0  0
  5 13  1  0  0  0  0
  5 17  1  0  0  0  0
  6 13  1  0  0  0  0
  6 15  1  0  0  0  0
  6 16  2  0  0  0  0
  7  8  1  0  0  0  0
  7  9  1  0  0  0  0
  8 10  1  0  0  0  0
  9 11  1  0  0  0  0
 10 11  1  0  0  0  0
 11 15  1  0  0  0  0
  2 18  1  0  0  0  0
  3 19  1  0  0  0  0
  7 20  1  0  0  0  0
  7 21  1  0  0  0  0
  8 22  1  0  0  0  0
  8 23  1  0  0  0  0
  9 24  1  0  0  0  0
  9 25  1  0  0  0  0
 10 26  1  0  0  0  0
 10 27  1  0  0  0  0
 12 28  1  0  0  0  0
 12 29  1  0  0  0  0
 12 30  1  0  0  0  0
 13 31  1  0  0  0  0
 13 32  1  0  0  0  0
 15 33  1  0  0  0  0
M  END
> <Catalog ID>
Z1005547924

> <PlateID>
1337959-R-08

> <Well>
H06

> <MW (desalted)>
248.344

> <CLogP>
1.800

> <HBD>
1

> <TPSA>
52.890

> <RotBonds>
3

> <ROCS_ShapeQuery>
x0446_0A_x1080_0A_x0929_0A_x0812_0A_x0719_0A_x1140_0A_x0528_0A_x0310_0A

> <ROCS_TanimotoCombo>
0.303 

> <ROCS_ShapeTanimoto>
0.190 

> <ROCS_ColorTanimoto>
0.113 

> <ROCS_RefTversky>
0.177 

> <ROCS_RefColorTversky>
0.120 

> <ROCS_RefTverskyCombo>
0.298 

> <ROCS_FitTversky>
1.601 

> <ROCS_FitColorTversky>
0.647 

> <ROCS_FitTverskyCombo>
2.249 

> <ROCS_ColorScore>
-4.278

> <ROCS_Overlap>
2092.999

> <ROCS_Rank>
342                 

$$$$
untitled-dbase-679_0
  -OEChem-02082415003D

 20 21  0     0  0  0  0  0  0999 V2000
    7.7448   12.2493   24.0244 C   0  0  0  0  0  0  0  0  0  0  0  0
    7.4370   10.9191   24.3072 C   0  0  0  0  0  0  0  0  0  0  0  0
    9.0026   12.2246   23.4999 C   0  0  0  0  0  0  0  0  0  0  0  0
    6.6485   13.1643   24.3758 C   0  0  0  0  0  0  0  0  0  0  0  0
    6.0951   10.7495   24.8877 C   0  0  0  0  0  0  0  0  0  0  0  0
    5.7188   12.2331   25.2310 C   0  0  0  0  0  0  0  0  0  0  0  0
    9.8988   13.2781   23.0022 C   0  0  0  0  0  0  0  0  0  0  0  0
    8.4012   10.0623   24.0016 N   0  0  0  0  0  0  0  0  0  0  0  0
    9.3557   10.8931   23.5062 N   0  0  0  0  0  0  0  0  0  0  0  0
   10.9374   13.5320   23.9513 O   0  0  0  0  0  0  0  0  0  0  0  0
    6.9790   14.0301   24.9558 H   0  0  0  0  0  0  0  0  0  0  0  0
    6.1226   13.5047   23.4780 H   0  0  0  0  0  0  0  0  0  0  0  0
    5.3991   10.3413   24.1481 H   0  0  0  0  0  0  0  0  0  0  0  0
    6.0885   10.1231   25.7834 H   0  0  0  0  0  0  0  0  0  0  0  0
    5.9220   12.4120   26.2953 H   0  0  0  0  0  0  0  0  0  0  0  0
    4.6576   12.4402   25.0610 H   0  0  0  0  0  0  0  0  0  0  0  0
   10.3795   13.0055   22.0435 H   0  0  0  0  0  0  0  0  0  0  0  0
    9.3652   14.2306   22.8224 H   0  0  0  0  0  0  0  0  0  0  0  0
   10.2254   10.4832   23.1893 H   0  0  0  0  0  0  0  0  0  0  0  0
   11.4902   14.2294   23.5692 H   0  0  0  0  0  0  0  0  0  0  0  0
  1  2  1  0  0  0  0
  1  3  2  0  0  0  0
  1  4  1  0  0  0  0
  2  5  1  0  0  0  0
  2  8  2  0  0  0  0
  3  7  1  0  0  0  0
  3  9  1  0  0  0  0
  4  6  1  0  0  0  0
  5  6  1  0  0  0  0
  7 10  1  0  0  0  0
  8  9  1  0  0  0  0
  4 11  1  0  0  0  0
  4 12  1  0  0  0  0
  5 13  1  0  0  0  0
  5 14  1  0  0  0  0
  6 15  1  0  0  0  0
  6 16  1  0  0  0  0
  7 17  1  0  0  0  0
  7 18  1  0  0  0  0
  9 19  1  0  0  0  0
 10 20  1  0  0  0  0
M  END
> <Catalog ID>
Z1201627901

> <PlateID>
1337959-R-15

> <Well>
H05

> <MW (desalted)>
138.167

> <CLogP>
-0.244

> <HBD>
2

> <TPSA>
48.910

> <RotBonds>
1

> <ROCS_ShapeQuery>
x0446_0A_x1080_0A_x0929_0A_x0812_0A_x0719_0A_x1140_0A_x0528_0A_x0310_0A

> <ROCS_TanimotoCombo>
0.303 

> <ROCS_ShapeTanimoto>
0.166 

> <ROCS_ColorTanimoto>
0.136 

> <ROCS_RefTversky>
0.155 

> <ROCS_RefColorTversky>
0.146 

> <ROCS_RefTverskyCombo>
0.301 

> <ROCS_FitTversky>
1.751 

> <ROCS_FitColorTversky>
0.682 

> <ROCS_FitTverskyCombo>
2.433 

> <ROCS_ColorScore>
-5.191

> <ROCS_Overlap>
1829.600

> <ROCS_Rank>
343                 

$$$$
untitled-dbase-521_10
  -OEChem-02082415003D

 26 27  0     0  0  0  0  0  0999 V2000
    7.8141   15.0973   25.0068 C   0  0  0  0  0  0  0  0  0  0  0  0
    6.7996   15.6043   25.8187 C   0  0  0  0  0  0  0  0  0  0  0  0
    7.6999   11.0221   23.4187 C   0  0  0  0  0  0  0  0  0  0  0  0
    5.7143   16.5443   23.8756 C   0  0  0  0  0  0  0  0  0  0  0  0
    8.2866   10.2559   24.3908 C   0  0  0  0  0  0  0  0  0  0  0  0
    6.7289   16.0373   23.0637 C   0  0  0  0  0  0  0  0  0  0  0  0
    7.7788   15.3138   23.6293 C   0  0  0  0  0  0  0  0  0  0  0  0
    5.7496   16.3278   25.2531 C   0  0  0  0  0  0  0  0  0  0  0  0
    8.6425   12.0368   23.1787 C   0  0  0  0  0  0  0  0  0  0  0  0
    6.6608   16.2860   21.5925 C   0  0  0  0  0  0  0  0  0  0  0  0
    9.7306   11.9095   23.9433 N   0  0  0  0  0  0  0  0  0  0  0  0
    8.4753   13.1010   22.2260 N   0  0  0  0  0  0  0  0  0  0  0  0
   10.2359   14.4948   23.4957 O   0  0  0  0  0  0  0  0  0  0  0  0
    9.1857   15.4781   21.4391 O   0  0  0  0  0  0  0  0  0  0  0  0
    9.4990   10.7753   24.7122 O   0  0  0  0  0  0  0  0  0  0  0  0
    9.0684   14.6636   22.6408 S   0  0  0  0  0  0  0  0  0  0  0  0
    4.4983   16.9541   26.2557 Cl  0  0  0  0  0  0  0  0  0  0  0  0
    8.6268   14.5349   25.4591 H   0  0  0  0  0  0  0  0  0  0  0  0
    6.8398   15.4279   26.8905 H   0  0  0  0  0  0  0  0  0  0  0  0
    6.7362   10.8647   22.9573 H   0  0  0  0  0  0  0  0  0  0  0  0
    4.8972   17.1082   23.4309 H   0  0  0  0  0  0  0  0  0  0  0  0
    7.9972    9.3653   24.9282 H   0  0  0  0  0  0  0  0  0  0  0  0
    7.1766   17.2199   21.3409 H   0  0  0  0  0  0  0  0  0  0  0  0
    7.1261   15.4671   21.0302 H   0  0  0  0  0  0  0  0  0  0  0  0
    5.6209   16.3577   21.2505 H   0  0  0  0  0  0  0  0  0  0  0  0
    7.5880   13.0782   21.7062 H   0  0  0  0  0  0  0  0  0  0  0  0
  1  2  1  0  0  0  0
  1  7  2  0  0  0  0
  2  8  2  0  0  0  0
  3  5  2  0  0  0  0
  3  9  1  0  0  0  0
  4  6  2  0  0  0  0
  4  8  1  0  0  0  0
  5 15  1  0  0  0  0
  6  7  1  0  0  0  0
  6 10  1  0  0  0  0
  7 16  1  0  0  0  0
  8 17  1  0  0  0  0
  9 11  2  0  0  0  0
  9 12  1  0  0  0  0
 11 15  1  0  0  0  0
 12 16  1  0  0  0  0
 13 16  2  0  0  0  0
 14 16  2  0  0  0  0
  1 18  1  0  0  0  0
  2 19  1  0  0  0  0
  3 20  1  0  0  0  0
  4 21  1  0  0  0  0
  5 22  1  0  0  0  0
 10 23  1  0  0  0  0
 10 24  1  0  0  0  0
 10 25  1  0  0  0  0
 12 26  1  0  0  0  0
M  END
> <Catalog ID>
Z1620657975

> <PlateID>
1337959-R-12

> <Well>
C11

> <MW (desalted)>
272.708

> <CLogP>
2.421

> <HBD>
1

> <TPSA>
72.200

> <RotBonds>
2

> <ROCS_ShapeQuery>
x0446_0A_x1080_0A_x0929_0A_x0812_0A_x0719_0A_x1140_0A_x0528_0A_x0310_0A

> <ROCS_TanimotoCombo>
0.303 

> <ROCS_ShapeTanimoto>
0.160 

> <ROCS_ColorTanimoto>
0.142 

> <ROCS_RefTversky>
0.154 

> <ROCS_RefColorTversky>
0.151 

> <ROCS_RefTverskyCombo>
0.305 

> <ROCS_FitTversky>
1.375 

> <ROCS_FitColorTversky>
0.712 

> <ROCS_FitTverskyCombo>
2.086 

> <ROCS_ColorScore>
-5.384

> <ROCS_Overlap>
1812.671

> <ROCS_Rank>
344                 

$$$$
untitled-dbase-334_0
  -OEChem-02082415003D

 17 17  0     0  0  0  0  0  0999 V2000
    7.2663   11.4717   24.9608 C   0  0  0  0  0  0  0  0  0  0  0  0
    7.9923   12.5893   24.5644 C   0  0  0  0  0  0  0  0  0  0  0  0
    7.6532   10.2374   24.4642 C   0  0  0  0  0  0  0  0  0  0  0  0
    9.0678   12.4406   23.6959 C   0  0  0  0  0  0  0  0  0  0  0  0
    9.3742   11.1629   23.2560 C   0  0  0  0  0  0  0  0  0  0  0  0
    9.8285   13.6088   23.2800 C   0  0  0  0  0  0  0  0  0  0  0  0
   10.5191   10.9407   22.3220 C   0  0  0  0  0  0  0  0  0  0  0  0
    8.6921   10.0535   23.6190 N   0  0  0  0  0  0  0  0  0  0  0  0
    9.5852   14.3059   22.2898 O   0  0  0  0  0  0  0  0  0  0  0  0
   10.8713   13.8742   24.1136 O   0  0  0  0  0  0  0  0  0  0  0  0
   11.1770   12.0878   21.9841 F   0  0  0  0  0  0  0  0  0  0  0  0
   11.4793   10.1120   22.8259 F   0  0  0  0  0  0  0  0  0  0  0  0
   10.1292   10.3784   21.1422 F   0  0  0  0  0  0  0  0  0  0  0  0
    6.4236   11.5641   25.6367 H   0  0  0  0  0  0  0  0  0  0  0  0
    7.7105   13.5703   24.9383 H   0  0  0  0  0  0  0  0  0  0  0  0
    7.1190    9.3346   24.7421 H   0  0  0  0  0  0  0  0  0  0  0  0
   11.3903   14.6611   23.8421 H   0  0  0  0  0  0  0  0  0  0  0  0
  1  2  1  0  0  0  0
  1  3  2  0  0  0  0
  2  4  2  0  0  0  0
  3  8  1  0  0  0  0
  4  5  1  0  0  0  0
  4  6  1  0  0  0  0
  5  7  1  0  0  0  0
  5  8  2  0  0  0  0
  6  9  2  0  0  0  0
  6 10  1  0  0  0  0
  7 11  1  0  0  0  0
  7 12  1  0  0  0  0
  7 13  1  0  0  0  0
  1 14  1  0  0  0  0
  2 15  1  0  0  0  0
  3 16  1  0  0  0  0
 10 17  1  0  0  0  0
M  END
> <Catalog ID>
Z255150388

> <PlateID>
1337959-R-08

> <Well>
A11

> <MW (desalted)>
191.107

> <CLogP>
0.924

> <HBD>
1

> <TPSA>
50.190

> <RotBonds>
2

> <ROCS_ShapeQuery>
x0446_0A_x1080_0A_x0929_0A_x0812_0A_x0719_0A_x1140_0A_x0528_0A_x0310_0A

> <ROCS_TanimotoCombo>
0.302 

> <ROCS_ShapeTanimoto>
0.196 

> <ROCS_ColorTanimoto>
0.106 

> <ROCS_RefTversky>
0.180 

> <ROCS_RefColorTversky>
0.114 

> <ROCS_RefTverskyCombo>
0.294 

> <ROCS_FitTversky>
1.794 

> <ROCS_FitColorTversky>
0.612 

> <ROCS_FitTverskyCombo>
2.406 

> <ROCS_ColorScore>
-4.049

> <ROCS_Overlap>
2124.712

> <ROCS_Rank>
345                 

$$$$
untitled-dbase-136_1
  -OEChem-02082415003D

 22 23  0     1  0  0  0  0  0999 V2000
    9.4775    9.9339   24.1399 C   0  0  0  0  0  0  0  0  0  0  0  0
    9.9576   10.8790   23.2334 C   0  0  0  0  0  0  0  0  0  0  0  0
    8.3218   10.1971   24.8753 C   0  0  0  0  0  0  0  0  0  0  0  0
    9.2821   12.0874   23.0623 C   0  0  0  0  0  0  0  0  0  0  0  0
    7.6463   11.4054   24.7043 C   0  0  0  0  0  0  0  0  0  0  0  0
    8.1265   12.3506   23.7977 C   0  0  0  0  0  0  0  0  0  0  0  0
    9.7962   15.6327   21.7092 C   0  0  0  0  0  0  0  0  0  0  0  0
   11.2229   13.5643   22.2108 C   0  0  0  0  0  0  0  0  0  0  0  0
    9.7974   13.0944   22.0921 C   0  0  2  0  0  0  0  0  0  0  0  0
   10.1037   14.4929   22.5815 C   0  0  2  0  0  0  0  0  0  0  0  0
   10.6023   16.4765   21.3467 O   0  0  0  0  0  0  0  0  0  0  0  0
    8.4871   15.6270   21.3577 O   0  0  0  0  0  0  0  0  0  0  0  0
    6.5359   11.6575   25.4094 F   0  0  0  0  0  0  0  0  0  0  0  0
    7.4690   13.5083   23.6403 F   0  0  0  0  0  0  0  0  0  0  0  0
   10.0029    8.9927   24.2722 H   0  0  0  0  0  0  0  0  0  0  0  0
   10.8590   10.6645   22.6648 H   0  0  0  0  0  0  0  0  0  0  0  0
    7.9477    9.4613   25.5810 H   0  0  0  0  0  0  0  0  0  0  0  0
   11.8400   13.1771   23.0134 H   0  0  0  0  0  0  0  0  0  0  0  0
   11.7650   13.7456   21.2898 H   0  0  0  0  0  0  0  0  0  0  0  0
    9.4104   12.9978   21.0847 H   0  0  0  0  0  0  0  0  0  0  0  0
    9.9790   14.6972   23.6403 H   0  0  0  0  0  0  0  0  0  0  0  0
    8.2609   16.3832   20.7752 H   0  0  0  0  0  0  0  0  0  0  0  0
  1  2  1  0  0  0  0
  1  3  2  0  0  0  0
  2  4  2  0  0  0  0
  3  5  1  0  0  0  0
  4  6  1  0  0  0  0
  4  9  1  1  0  0  0
  5  6  2  0  0  0  0
  5 13  1  0  0  0  0
  6 14  1  0  0  0  0
  7 10  1  6  0  0  0
  7 11  2  0  0  0  0
  7 12  1  0  0  0  0
  8  9  1  0  0  0  0
  8 10  1  0  0  0  0
  9 10  1  0  0  0  0
  1 15  1  0  0  0  0
  2 16  1  0  0  0  0
  3 17  1  0  0  0  0
  8 18  1  0  0  0  0
  8 19  1  0  0  0  0
  9 20  1  0  0  0  0
 10 21  1  0  0  0  0
 12 22  1  0  0  0  0
M  END
> <Catalog ID>
Z2327124586

> <PlateID>
1337959-R-03

> <Well>
F09

> <MW (desalted)>
198.166

> <CLogP>
2.164

> <HBD>
1

> <TPSA>
37.300

> <RotBonds>
2

> <ROCS_ShapeQuery>
x0446_0A_x1080_0A_x0929_0A_x0812_0A_x0719_0A_x1140_0A_x0528_0A_x0310_0A

> <ROCS_TanimotoCombo>
0.302 

> <ROCS_ShapeTanimoto>
0.204 

> <ROCS_ColorTanimoto>
0.098 

> <ROCS_RefTversky>
0.187 

> <ROCS_RefColorTversky>
0.103 

> <ROCS_RefTverskyCombo>
0.290 

> <ROCS_FitTversky>
1.822 

> <ROCS_FitColorTversky>
0.646 

> <ROCS_FitTverskyCombo>
2.468 

> <ROCS_ColorScore>
-3.661

> <ROCS_Overlap>
2206.594

> <ROCS_Rank>
346                 

$$$$
untitled-dbase-492_35
  -OEChem-02082415003D

 24 24  0     0  0  0  0  0  0999 V2000
    9.3687   10.7786   24.7914 C   0  0  0  0  0  0  0  0  0  0  0  0
    8.1264   10.7551   24.1575 C   0  0  0  0  0  0  0  0  0  0  0  0
   10.2225   11.8670   24.6124 C   0  0  0  0  0  0  0  0  0  0  0  0
    7.7379   11.8200   23.3447 C   0  0  0  0  0  0  0  0  0  0  0  0
    9.8340   12.9319   23.7995 C   0  0  0  0  0  0  0  0  0  0  0  0
    8.5917   12.9084   23.1656 C   0  0  0  0  0  0  0  0  0  0  0  0
    7.6955   14.5558   25.9281 C   0  0  0  0  0  0  0  0  0  0  0  0
    6.5882   14.1877   25.2738 C   0  0  0  0  0  0  0  0  0  0  0  0
    6.1362   14.8025   23.9899 C   0  0  0  0  0  0  0  0  0  0  0  0
    7.3155   15.2789   23.2531 N   0  0  0  0  0  0  0  0  0  0  0  0
    9.2999   14.9126   21.6518 O   0  0  0  0  0  0  0  0  0  0  0  0
    7.1224   13.7395   21.1975 O   0  0  0  0  0  0  0  0  0  0  0  0
    6.5420   11.7854   22.7401 F   0  0  0  0  0  0  0  0  0  0  0  0
   10.6628   13.9726   23.6361 F   0  0  0  0  0  0  0  0  0  0  0  0
    8.1053   14.2418   22.1480 S   0  0  0  0  0  0  0  0  0  0  0  0
    9.6698    9.9490   25.4244 H   0  0  0  0  0  0  0  0  0  0  0  0
    7.4615    9.9077   24.2954 H   0  0  0  0  0  0  0  0  0  0  0  0
   11.1894   11.8852   25.1063 H   0  0  0  0  0  0  0  0  0  0  0  0
    7.9741   14.0656   26.8545 H   0  0  0  0  0  0  0  0  0  0  0  0
    8.3385   15.3460   25.5562 H   0  0  0  0  0  0  0  0  0  0  0  0
    5.9826   13.3852   25.6878 H   0  0  0  0  0  0  0  0  0  0  0  0
    5.4809   15.6540   24.1976 H   0  0  0  0  0  0  0  0  0  0  0  0
    5.5887   14.0948   23.3592 H   0  0  0  0  0  0  0  0  0  0  0  0
    7.3766   16.2942   23.1085 H   0  0  0  0  0  0  0  0  0  0  0  0
  1  2  1  0  0  0  0
  1  3  2  0  0  0  0
  2  4  2  0  0  0  0
  3  5  1  0  0  0  0
  4  6  1  0  0  0  0
  4 13  1  0  0  0  0
  5  6  2  0  0  0  0
  5 14  1  0  0  0  0
  6 15  1  0  0  0  0
  7  8  2  0  0  0  0
  8  9  1  0  0  0  0
  9 10  1  0  0  0  0
 10 15  1  0  0  0  0
 11 15  2  0  0  0  0
 12 15  2  0  0  0  0
  1 16  1  0  0  0  0
  2 17  1  0  0  0  0
  3 18  1  0  0  0  0
  7 19  1  0  0  0  0
  7 20  1  0  0  0  0
  8 21  1  0  0  0  0
  9 22  1  0  0  0  0
  9 23  1  0  0  0  0
 10 24  1  0  0  0  0
M  END
> <Catalog ID>
Z45529979

> <PlateID>
1337959-R-11

> <Well>
G02

> <MW (desalted)>
233.235

> <CLogP>
2.389

> <HBD>
1

> <TPSA>
46.170

> <RotBonds>
3

> <ROCS_ShapeQuery>
x0446_0A_x1080_0A_x0929_0A_x0812_0A_x0719_0A_x1140_0A_x0528_0A_x0310_0A

> <ROCS_TanimotoCombo>
0.302 

> <ROCS_ShapeTanimoto>
0.178 

> <ROCS_ColorTanimoto>
0.124 

> <ROCS_RefTversky>
0.167 

> <ROCS_RefColorTversky>
0.131 

> <ROCS_RefTverskyCombo>
0.297 

> <ROCS_FitTversky>
1.610 

> <ROCS_FitColorTversky>
0.704 

> <ROCS_FitTverskyCombo>
2.314 

> <ROCS_ColorScore>
-4.655

> <ROCS_Overlap>
1964.125

> <ROCS_Rank>
347                 

$$$$
untitled-dbase-76_3
  -OEChem-02082415003D

 26 27  0     0  0  0  0  0  0999 V2000
    9.0550   10.2495   23.6914 C   0  0  0  0  0  0  0  0  0  0  0  0
    9.8312   11.3401   23.2995 C   0  0  0  0  0  0  0  0  0  0  0  0
    7.8073   10.4568   24.2795 C   0  0  0  0  0  0  0  0  0  0  0  0
    8.1120   12.8455   24.0840 C   0  0  0  0  0  0  0  0  0  0  0  0
    9.3597   12.6381   23.4958 C   0  0  0  0  0  0  0  0  0  0  0  0
    7.3358   11.7548   24.4758 C   0  0  0  0  0  0  0  0  0  0  0  0
    9.9801   14.2818   21.6981 C   0  0  0  0  0  0  0  0  0  0  0  0
   11.5952   13.9112   23.6476 C   0  0  0  0  0  0  0  0  0  0  0  0
   10.5328   14.8436   24.1322 C   0  0  0  0  0  0  0  0  0  0  0  0
   10.1896   13.8031   23.0779 C   0  0  0  0  0  0  0  0  0  0  0  0
    5.6984   13.3098   25.2219 C   0  0  0  0  0  0  0  0  0  0  0  0
   10.5923   13.8860   20.7174 O   0  0  0  0  0  0  0  0  0  0  0  0
    9.0115   15.2294   21.6620 O   0  0  0  0  0  0  0  0  0  0  0  0
    6.1189   11.9572   25.0511 O   0  0  0  0  0  0  0  0  0  0  0  0
    9.4211    9.2384   23.5387 H   0  0  0  0  0  0  0  0  0  0  0  0
   10.8021   11.1682   22.8423 H   0  0  0  0  0  0  0  0  0  0  0  0
    7.2077    9.6027   24.5825 H   0  0  0  0  0  0  0  0  0  0  0  0
    7.7421   13.8562   24.2393 H   0  0  0  0  0  0  0  0  0  0  0  0
   12.3767   14.3225   23.0189 H   0  0  0  0  0  0  0  0  0  0  0  0
   11.9424   13.1455   24.3317 H   0  0  0  0  0  0  0  0  0  0  0  0
   10.1650   14.7052   25.1428 H   0  0  0  0  0  0  0  0  0  0  0  0
   10.5994   15.8825   23.8300 H   0  0  0  0  0  0  0  0  0  0  0  0
    4.7119   13.3289   25.6914 H   0  0  0  0  0  0  0  0  0  0  0  0
    5.6603   13.8061   24.2489 H   0  0  0  0  0  0  0  0  0  0  0  0
    6.4153   13.8265   25.8644 H   0  0  0  0  0  0  0  0  0  0  0  0
    8.8584   15.5623   20.7520 H   0  0  0  0  0  0  0  0  0  0  0  0
  1  2  2  0  0  0  0
  1  3  1  0  0  0  0
  2  5  1  0  0  0  0
  3  6  2  0  0  0  0
  4  5  2  0  0  0  0
  4  6  1  0  0  0  0
  5 10  1  0  0  0  0
  6 14  1  0  0  0  0
  7 10  1  0  0  0  0
  7 12  2  0  0  0  0
  7 13  1  0  0  0  0
  8  9  1  0  0  0  0
  8 10  1  0  0  0  0
  9 10  1  0  0  0  0
 11 14  1  0  0  0  0
  1 15  1  0  0  0  0
  2 16  1  0  0  0  0
  3 17  1  0  0  0  0
  4 18  1  0  0  0  0
  8 19  1  0  0  0  0
  8 20  1  0  0  0  0
  9 21  1  0  0  0  0
  9 22  1  0  0  0  0
 11 23  1  0  0  0  0
 11 24  1  0  0  0  0
 11 25  1  0  0  0  0
 13 26  1  0  0  0  0
M  END
> <Catalog ID>
Z801751982

> <PlateID>
1337959-R-02

> <Well>
D06

> <MW (desalted)>
192.211

> <CLogP>
1.677

> <HBD>
1

> <TPSA>
46.530

> <RotBonds>
3

> <ROCS_ShapeQuery>
x0446_0A_x1080_0A_x0929_0A_x0812_0A_x0719_0A_x1140_0A_x0528_0A_x0310_0A

> <ROCS_TanimotoCombo>
0.302 

> <ROCS_ShapeTanimoto>
0.200 

> <ROCS_ColorTanimoto>
0.101 

> <ROCS_RefTversky>
0.184 

> <ROCS_RefColorTversky>
0.109 

> <ROCS_RefTverskyCombo>
0.293 

> <ROCS_FitTversky>
1.799 

> <ROCS_FitColorTversky>
0.586 

> <ROCS_FitTverskyCombo>
2.385 

> <ROCS_ColorScore>
-3.879

> <ROCS_Overlap>
2170.751

> <ROCS_Rank>
348                 

$$$$
untitled-dbase-290_0
  -OEChem-02082415003D

 25 27  0     1  0  0  0  0  0999 V2000
   10.0660   12.3264   23.2111 C   0  0  0  0  0  0  0  0  0  0  0  0
   10.3290   11.6269   24.5468 C   0  0  0  0  0  0  0  0  0  0  0  0
    6.1175   12.8166   25.1214 C   0  0  0  0  0  0  0  0  0  0  0  0
    7.4181   13.5493   25.2491 C   0  0  0  0  0  0  0  0  0  0  0  0
    7.5214   12.1684   23.0417 C   0  0  0  0  0  0  0  0  0  0  0  0
    7.9605   11.0009   25.2722 C   0  0  0  0  0  0  0  0  0  0  0  0
    8.8758   11.5773   22.6120 C   0  0  2  0  0  0  0  0  0  0  0  0
    9.2709   10.5260   24.6196 C   0  0  1  0  0  0  0  0  0  0  0  0
    7.3779   12.2045   24.5529 C   0  0  0  0  0  0  0  0  0  0  0  0
    9.0323   10.2392   23.1984 N   0  0  0  0  0  0  0  0  0  0  0  0
    9.8740   13.3965   23.3395 H   0  0  0  0  0  0  0  0  0  0  0  0
   10.9488   12.2217   22.5685 H   0  0  0  0  0  0  0  0  0  0  0  0
   11.3359   11.1919   24.5348 H   0  0  0  0  0  0  0  0  0  0  0  0
   10.2782   12.3222   25.3908 H   0  0  0  0  0  0  0  0  0  0  0  0
    5.6934   12.3850   26.0203 H   0  0  0  0  0  0  0  0  0  0  0  0
    5.3812   13.2157   24.4339 H   0  0  0  0  0  0  0  0  0  0  0  0
    7.5535   14.4421   24.6502 H   0  0  0  0  0  0  0  0  0  0  0  0
    7.8653   13.6132   26.2339 H   0  0  0  0  0  0  0  0  0  0  0  0
    7.4113   13.1734   22.6162 H   0  0  0  0  0  0  0  0  0  0  0  0
    6.7090   11.5583   22.6259 H   0  0  0  0  0  0  0  0  0  0  0  0
    7.2249   10.1865   25.2464 H   0  0  0  0  0  0  0  0  0  0  0  0
    8.1427   11.2304   26.3294 H   0  0  0  0  0  0  0  0  0  0  0  0
    8.9361   11.5402   21.5195 H   0  0  0  0  0  0  0  0  0  0  0  0
    9.6491    9.6426   25.1435 H   0  0  0  0  0  0  0  0  0  0  0  0
    8.1807    9.6924   23.0797 H   0  0  0  0  0  0  0  0  0  0  0  0
  1  2  1  0  0  0  0
  1  7  1  0  0  0  0
  2  8  1  0  0  0  0
  3  4  1  0  0  0  0
  3  9  1  0  0  0  0
  4  9  1  0  0  0  0
  5  7  1  0  0  0  0
  5  9  1  0  0  0  0
  6  8  1  0  0  0  0
  6  9  1  0  0  0  0
  7 10  1  0  0  0  0
  8 10  1  0  0  0  0
  1 11  1  0  0  0  0
  1 12  1  0  0  0  0
  2 13  1  0  0  0  0
  2 14  1  0  0  0  0
  3 15  1  0  0  0  0
  3 16  1  0  0  0  0
  4 17  1  0  0  0  0
  4 18  1  0  0  0  0
  5 19  1  0  0  0  0
  5 20  1  0  0  0  0
  6 21  1  0  0  0  0
  6 22  1  0  0  0  0
  7 23  1  0  0  0  0
  8 24  1  0  0  0  0
 10 25  1  0  0  0  0
M  END
> <Catalog ID>
Z2587939304

> <PlateID>
1337959-R-07

> <Well>
A08

> <MW (desalted)>
137.222

> <CLogP>
1.563

> <HBD>
1

> <TPSA>
12.030

> <RotBonds>
0

> <ROCS_ShapeQuery>
x0446_0A_x1080_0A_x0929_0A_x0812_0A_x0719_0A_x1140_0A_x0528_0A_x0310_0A

> <ROCS_TanimotoCombo>
0.302 

> <ROCS_ShapeTanimoto>
0.163 

> <ROCS_ColorTanimoto>
0.139 

> <ROCS_RefTversky>
0.152 

> <ROCS_RefColorTversky>
0.154 

> <ROCS_RefTverskyCombo>
0.306 

> <ROCS_FitTversky>
1.728 

> <ROCS_FitColorTversky>
0.590 

> <ROCS_FitTverskyCombo>
2.318 

> <ROCS_ColorScore>
-5.484

> <ROCS_Overlap>
1796.264

> <ROCS_Rank>
349                 

$$$$
untitled-dbase-637_10
  -OEChem-02082415003D

 23 24  0     0  0  0  0  0  0999 V2000
    8.0527   15.7272   21.3074 C   0  0  0  0  0  0  0  0  0  0  0  0
    7.1605   14.7123   21.5746 C   0  0  0  0  0  0  0  0  0  0  0  0
    9.7755   14.2240   21.3495 C   0  0  0  0  0  0  0  0  0  0  0  0
    8.8835   13.2091   21.6174 C   0  0  0  0  0  0  0  0  0  0  0  0
    7.9457   10.7353   24.1493 C   0  0  0  0  0  0  0  0  0  0  0  0
    8.7253   12.0603   24.2396 C   0  0  0  0  0  0  0  0  0  0  0  0
    9.2075   10.1039   23.5321 C   0  0  0  0  0  0  0  0  0  0  0  0
    9.6471   11.5267   23.1195 C   0  0  0  0  0  0  0  0  0  0  0  0
    9.3762   15.5013   21.1901 N   0  0  0  0  0  0  0  0  0  0  0  0
    7.5599   13.4350   21.7344 N   0  0  0  0  0  0  0  0  0  0  0  0
   11.1505   13.9180   21.2369 N   0  0  0  0  0  0  0  0  0  0  0  0
    9.3040   11.9220   21.7773 O   0  0  0  0  0  0  0  0  0  0  0  0
    7.7312   16.7534   21.1792 H   0  0  0  0  0  0  0  0  0  0  0  0
    6.0970   14.8944   21.6685 H   0  0  0  0  0  0  0  0  0  0  0  0
    7.6758   10.3153   25.1262 H   0  0  0  0  0  0  0  0  0  0  0  0
    7.0579   10.7476   23.5105 H   0  0  0  0  0  0  0  0  0  0  0  0
    8.1396   12.9434   23.9557 H   0  0  0  0  0  0  0  0  0  0  0  0
    9.2102   12.2524   25.2015 H   0  0  0  0  0  0  0  0  0  0  0  0
    9.8661    9.5902   24.2390 H   0  0  0  0  0  0  0  0  0  0  0  0
    9.0036    9.4351   22.6867 H   0  0  0  0  0  0  0  0  0  0  0  0
   10.7096   11.7191   23.3152 H   0  0  0  0  0  0  0  0  0  0  0  0
   11.4538   12.9807   21.4003 H   0  0  0  0  0  0  0  0  0  0  0  0
   11.8020   14.6604   21.0897 H   0  0  0  0  0  0  0  0  0  0  0  0
  1  2  2  0  0  0  0
  1  9  1  0  0  0  0
  2 10  1  0  0  0  0
  3  4  1  0  0  0  0
  3  9  2  0  0  0  0
  3 11  1  0  0  0  0
  4 10  2  0  0  0  0
  4 12  1  0  0  0  0
  5  6  1  0  0  0  0
  5  7  1  0  0  0  0
  6  8  1  0  0  0  0
  7  8  1  0  0  0  0
  8 12  1  0  0  0  0
  1 13  1  0  0  0  0
  2 14  1  0  0  0  0
  5 15  1  0  0  0  0
  5 16  1  0  0  0  0
  6 17  1  0  0  0  0
  6 18  1  0  0  0  0
  7 19  1  0  0  0  0
  7 20  1  0  0  0  0
  8 21  1  0  0  0  0
 11 22  1  0  0  0  0
 11 23  1  0  0  0  0
M  END
> <Catalog ID>
Z1821325250

> <PlateID>
1337959-R-15

> <Well>
A05

> <MW (desalted)>
165.192

> <CLogP>
1.543

> <HBD>
1

> <TPSA>
61.030

> <RotBonds>
2

> <ROCS_ShapeQuery>
x0446_0A_x1080_0A_x0929_0A_x0812_0A_x0719_0A_x1140_0A_x0528_0A_x0310_0A

> <ROCS_TanimotoCombo>
0.302 

> <ROCS_ShapeTanimoto>
0.155 

> <ROCS_ColorTanimoto>
0.147 

> <ROCS_RefTversky>
0.147 

> <ROCS_RefColorTversky>
0.158 

> <ROCS_RefTverskyCombo>
0.305 

> <ROCS_FitTversky>
1.534 

> <ROCS_FitColorTversky>
0.663 

> <ROCS_FitTverskyCombo>
2.197 

> <ROCS_ColorScore>
-5.653

> <ROCS_Overlap>
1733.297

> <ROCS_Rank>
350                 

$$$$
untitled-dbase-401_3
  -OEChem-02082415003D

 28 28  0     0  0  0  0  0  0999 V2000
    9.0071    9.8918   23.7964 C   0  0  0  0  0  0  0  0  0  0  0  0
    9.9114   10.8616   23.3783 C   0  0  0  0  0  0  0  0  0  0  0  0
    7.7651   10.3130   24.2436 C   0  0  0  0  0  0  0  0  0  0  0  0
    9.5513   12.2040   23.4195 C   0  0  0  0  0  0  0  0  0  0  0  0
    8.2849   12.5216   23.8834 C   0  0  0  0  0  0  0  0  0  0  0  0
   10.5179   13.1995   22.9749 C   0  0  0  0  0  0  0  0  0  0  0  0
    8.7242   14.5015   26.5134 C   0  0  0  0  0  0  0  0  0  0  0  0
    6.4490   15.4671   26.0322 C   0  0  0  0  0  0  0  0  0  0  0  0
   11.9327   14.0025   21.0705 C   0  0  0  0  0  0  0  0  0  0  0  0
    7.4116   14.3171   25.7614 C   0  0  0  0  0  0  0  0  0  0  0  0
    7.3794   11.6075   24.2981 N   0  0  0  0  0  0  0  0  0  0  0  0
   10.9599   13.1054   21.6514 N   0  0  0  0  0  0  0  0  0  0  0  0
   10.9310   14.0691   23.7603 O   0  0  0  0  0  0  0  0  0  0  0  0
    7.7398   14.1979   23.9706 S   0  0  0  0  0  0  0  0  0  0  0  0
    9.2659    8.8397   23.7734 H   0  0  0  0  0  0  0  0  0  0  0  0
   10.8925   10.5574   23.0226 H   0  0  0  0  0  0  0  0  0  0  0  0
    7.0243    9.5959   24.5814 H   0  0  0  0  0  0  0  0  0  0  0  0
    9.2067   15.4382   26.2128 H   0  0  0  0  0  0  0  0  0  0  0  0
    8.5600   14.5523   27.5956 H   0  0  0  0  0  0  0  0  0  0  0  0
    9.4298   13.6879   26.3100 H   0  0  0  0  0  0  0  0  0  0  0  0
    6.8966   16.4187   25.7242 H   0  0  0  0  0  0  0  0  0  0  0  0
    6.2142   15.5477   27.0994 H   0  0  0  0  0  0  0  0  0  0  0  0
    5.5090   15.3519   25.4806 H   0  0  0  0  0  0  0  0  0  0  0  0
   11.4132   14.8266   20.5595 H   0  0  0  0  0  0  0  0  0  0  0  0
   12.5751   14.4107   21.8647 H   0  0  0  0  0  0  0  0  0  0  0  0
   12.5508   13.4531   20.3451 H   0  0  0  0  0  0  0  0  0  0  0  0
    6.9461   13.3768   26.0756 H   0  0  0  0  0  0  0  0  0  0  0  0
   10.6370   12.3371   21.0725 H   0  0  0  0  0  0  0  0  0  0  0  0
  1  2  1  0  0  0  0
  1  3  2  0  0  0  0
  2  4  2  0  0  0  0
  3 11  1  0  0  0  0
  4  5  1  0  0  0  0
  4  6  1  0  0  0  0
  5 11  2  0  0  0  0
  5 14  1  0  0  0  0
  6 12  1  0  0  0  0
  6 13  2  0  0  0  0
  7 10  1  0  0  0  0
  8 10  1  0  0  0  0
  9 12  1  0  0  0  0
 10 14  1  0  0  0  0
  1 15  1  0  0  0  0
  2 16  1  0  0  0  0
  3 17  1  0  0  0  0
  7 18  1  0  0  0  0
  7 19  1  0  0  0  0
  7 20  1  0  0  0  0
  8 21  1  0  0  0  0
  8 22  1  0  0  0  0
  8 23  1  0  0  0  0
  9 24  1  0  0  0  0
  9 25  1  0  0  0  0
  9 26  1  0  0  0  0
 10 27  1  0  0  0  0
 12 28  1  0  0  0  0
M  END
> <Catalog ID>
Z434462422

> <PlateID>
1337959-R-09

> <Well>
E09

> <MW (desalted)>
210.296

> <CLogP>
1.392

> <HBD>
1

> <TPSA>
41.990

> <RotBonds>
3

> <ROCS_ShapeQuery>
x0446_0A_x1080_0A_x0929_0A_x0812_0A_x0719_0A_x1140_0A_x0528_0A_x0310_0A

> <ROCS_TanimotoCombo>
0.301 

> <ROCS_ShapeTanimoto>
0.192 

> <ROCS_ColorTanimoto>
0.109 

> <ROCS_RefTversky>
0.177 

> <ROCS_RefColorTversky>
0.117 

> <ROCS_RefTverskyCombo>
0.294 

> <ROCS_FitTversky>
1.787 

> <ROCS_FitColorTversky>
0.628 

> <ROCS_FitTverskyCombo>
2.415 

> <ROCS_ColorScore>
-4.152

> <ROCS_Overlap>
2090.597

> <ROCS_Rank>
351                 

$$$$
untitled-dbase-503_3
  -OEChem-02082415003D

 23 24  0     0  0  0  0  0  0999 V2000
    7.0733   14.7137   25.9418 C   0  0  0  0  0  0  0  0  0  0  0  0
    5.6856   15.5076   24.1305 C   0  0  0  0  0  0  0  0  0  0  0  0
    8.1286   14.5232   25.0499 C   0  0  0  0  0  0  0  0  0  0  0  0
    6.7410   15.3172   23.2385 C   0  0  0  0  0  0  0  0  0  0  0  0
    8.0352   10.8416   22.9461 C   0  0  0  0  0  0  0  0  0  0  0  0
    8.2368   10.1563   24.1148 C   0  0  0  0  0  0  0  0  0  0  0  0
    5.8518   15.2058   25.4821 C   0  0  0  0  0  0  0  0  0  0  0  0
    7.9625   14.8249   23.6982 C   0  0  0  0  0  0  0  0  0  0  0  0
    8.9038   11.9418   23.0497 C   0  0  0  0  0  0  0  0  0  0  0  0
    9.5915   11.9391   24.1950 N   0  0  0  0  0  0  0  0  0  0  0  0
    9.0502   12.9663   22.0511 N   0  0  0  0  0  0  0  0  0  0  0  0
   10.5252   14.6410   23.3451 O   0  0  0  0  0  0  0  0  0  0  0  0
    9.1125   15.4995   21.4565 O   0  0  0  0  0  0  0  0  0  0  0  0
    9.1634   10.8013   24.8686 O   0  0  0  0  0  0  0  0  0  0  0  0
    4.8380   15.3879   26.3385 F   0  0  0  0  0  0  0  0  0  0  0  0
    9.2837   14.5887   22.5819 S   0  0  0  0  0  0  0  0  0  0  0  0
    7.2021   14.4786   26.9943 H   0  0  0  0  0  0  0  0  0  0  0  0
    4.7342   15.8908   23.7732 H   0  0  0  0  0  0  0  0  0  0  0  0
    9.0760   14.1391   25.4186 H   0  0  0  0  0  0  0  0  0  0  0  0
    6.6001   15.5552   22.1875 H   0  0  0  0  0  0  0  0  0  0  0  0
    7.3610   10.5792   22.1442 H   0  0  0  0  0  0  0  0  0  0  0  0
    7.8301    9.2509   24.5397 H   0  0  0  0  0  0  0  0  0  0  0  0
    8.4578   12.8445   21.2191 H   0  0  0  0  0  0  0  0  0  0  0  0
  1  3  1  0  0  0  0
  1  7  2  0  0  0  0
  2  4  2  0  0  0  0
  2  7  1  0  0  0  0
  3  8  2  0  0  0  0
  4  8  1  0  0  0  0
  5  6  2  0  0  0  0
  5  9  1  0  0  0  0
  6 14  1  0  0  0  0
  7 15  1  0  0  0  0
  8 16  1  0  0  0  0
  9 10  2  0  0  0  0
  9 11  1  0  0  0  0
 10 14  1  0  0  0  0
 11 16  1  0  0  0  0
 12 16  2  0  0  0  0
 13 16  2  0  0  0  0
  1 17  1  0  0  0  0
  2 18  1  0  0  0  0
  3 19  1  0  0  0  0
  4 20  1  0  0  0  0
  5 21  1  0  0  0  0
  6 22  1  0  0  0  0
 11 23  1  0  0  0  0
M  END
> <Catalog ID>
Z89330695

> <PlateID>
1337959-R-11

> <Well>
H07

> <MW (desalted)>
242.227

> <CLogP>
1.352

> <HBD>
1

> <TPSA>
72.200

> <RotBonds>
2

> <ROCS_ShapeQuery>
x0446_0A_x1080_0A_x0929_0A_x0812_0A_x0719_0A_x1140_0A_x0528_0A_x0310_0A

> <ROCS_TanimotoCombo>
0.301 

> <ROCS_ShapeTanimoto>
0.170 

> <ROCS_ColorTanimoto>
0.131 

> <ROCS_RefTversky>
0.161 

> <ROCS_RefColorTversky>
0.141 

> <ROCS_RefTverskyCombo>
0.302 

> <ROCS_FitTversky>
1.477 

> <ROCS_FitColorTversky>
0.663 

> <ROCS_FitTverskyCombo>
2.141 

> <ROCS_ColorScore>
-5.018

> <ROCS_Overlap>
1901.328

> <ROCS_Rank>
352                 

$$$$
untitled-dbase-103_1
  -OEChem-02082415003D

 26 27  0     0  0  0  0  0  0999 V2000
   10.7553   15.4526   22.1737 C   0  0  0  0  0  0  0  0  0  0  0  0
   10.1485   10.9829   23.0045 C   0  0  0  0  0  0  0  0  0  0  0  0
    8.9686   12.1811   24.8700 C   0  0  0  0  0  0  0  0  0  0  0  0
    9.1809   13.3748   22.5571 C   0  0  0  0  0  0  0  0  0  0  0  0
   10.9769   13.3320   23.7213 C   0  0  0  0  0  0  0  0  0  0  0  0
    8.8871   10.1398   22.8467 C   0  0  0  0  0  0  0  0  0  0  0  0
    7.7723   11.2772   24.5955 C   0  0  0  0  0  0  0  0  0  0  0  0
   10.6078   13.9382   22.3450 C   0  0  0  0  0  0  0  0  0  0  0  0
    9.7732   12.3572   23.5786 C   0  0  0  0  0  0  0  0  0  0  0  0
   11.6618   16.1266   22.6399 O   0  0  0  0  0  0  0  0  0  0  0  0
    8.2108   10.0099   24.0997 O   0  0  0  0  0  0  0  0  0  0  0  0
    9.7367   15.9520   21.4319 O   0  0  0  0  0  0  0  0  0  0  0  0
   10.8337   10.4793   23.6980 H   0  0  0  0  0  0  0  0  0  0  0  0
   10.6611   11.0711   22.0405 H   0  0  0  0  0  0  0  0  0  0  0  0
    8.6280   13.1448   25.2649 H   0  0  0  0  0  0  0  0  0  0  0  0
    9.6065   11.7175   25.6329 H   0  0  0  0  0  0  0  0  0  0  0  0
    8.4819   14.0991   22.9934 H   0  0  0  0  0  0  0  0  0  0  0  0
    8.7160   12.9489   21.6630 H   0  0  0  0  0  0  0  0  0  0  0  0
   11.9666   12.8677   23.7742 H   0  0  0  0  0  0  0  0  0  0  0  0
   10.8884   14.0424   24.5527 H   0  0  0  0  0  0  0  0  0  0  0  0
    8.2007   10.5666   22.1066 H   0  0  0  0  0  0  0  0  0  0  0  0
    9.1541    9.1336   22.5084 H   0  0  0  0  0  0  0  0  0  0  0  0
    7.2217   11.0975   25.5242 H   0  0  0  0  0  0  0  0  0  0  0  0
    7.0771   11.7285   23.8779 H   0  0  0  0  0  0  0  0  0  0  0  0
   11.1274   13.4208   21.5256 H   0  0  0  0  0  0  0  0  0  0  0  0
    9.8122   16.9227   21.3122 H   0  0  0  0  0  0  0  0  0  0  0  0
  1  8  1  0  0  0  0
  1 10  2  0  0  0  0
  1 12  1  0  0  0  0
  2  6  1  0  0  0  0
  2  9  1  0  0  0  0
  3  7  1  0  0  0  0
  3  9  1  0  0  0  0
  4  8  1  0  0  0  0
  4  9  1  0  0  0  0
  5  8  1  0  0  0  0
  5  9  1  0  0  0  0
  6 11  1  0  0  0  0
  7 11  1  0  0  0  0
  2 13  1  0  0  0  0
  2 14  1  0  0  0  0
  3 15  1  0  0  0  0
  3 16  1  0  0  0  0
  4 17  1  0  0  0  0
  4 18  1  0  0  0  0
  5 19  1  0  0  0  0
  5 20  1  0  0  0  0
  6 21  1  0  0  0  0
  6 22  1  0  0  0  0
  7 23  1  0  0  0  0
  7 24  1  0  0  0  0
  8 25  1  0  0  0  0
 12 26  1  0  0  0  0
M  END
> <Catalog ID>
Z1258540488

> <PlateID>
1337959-R-02

> <Well>
H08

> <MW (desalted)>
170.206

> <CLogP>
0.311

> <HBD>
1

> <TPSA>
46.530

> <RotBonds>
1

> <ROCS_ShapeQuery>
x0446_0A_x1080_0A_x0929_0A_x0812_0A_x0719_0A_x1140_0A_x0528_0A_x0310_0A

> <ROCS_TanimotoCombo>
0.301 

> <ROCS_ShapeTanimoto>
0.181 

> <ROCS_ColorTanimoto>
0.121 

> <ROCS_RefTversky>
0.167 

> <ROCS_RefColorTversky>
0.131 

> <ROCS_RefTverskyCombo>
0.298 

> <ROCS_FitTversky>
1.782 

> <ROCS_FitColorTversky>
0.615 

> <ROCS_FitTverskyCombo>
2.397 

> <ROCS_ColorScore>
-4.659

> <ROCS_Overlap>
1972.448

> <ROCS_Rank>
353                 

$$$$
untitled-dbase-634_0
  -OEChem-02082415003D

 21 22  0     0  0  0  0  0  0999 V2000
    5.4629   12.2087   24.5099 C   0  0  0  0  0  0  0  0  0  0  0  0
    5.9178   13.3163   23.7985 C   0  0  0  0  0  0  0  0  0  0  0  0
    6.3242   11.1404   24.7736 C   0  0  0  0  0  0  0  0  0  0  0  0
    7.2358   13.3612   23.3515 C   0  0  0  0  0  0  0  0  0  0  0  0
    7.6530   11.1691   24.3270 C   0  0  0  0  0  0  0  0  0  0  0  0
    8.0927   12.2893   23.6168 C   0  0  0  0  0  0  0  0  0  0  0  0
    8.5166    9.9911   24.6207 C   0  0  0  0  0  0  0  0  0  0  0  0
    9.8977    9.9097   24.0125 C   0  0  0  0  0  0  0  0  0  0  0  0
   10.6153   11.2374   24.0487 C   0  0  0  0  0  0  0  0  0  0  0  0
    8.0811    9.0662   25.3039 O   0  0  0  0  0  0  0  0  0  0  0  0
    9.7805   12.0059   21.6845 O   0  0  0  0  0  0  0  0  0  0  0  0
   10.2342   13.7429   23.4707 O   0  0  0  0  0  0  0  0  0  0  0  0
    9.7557   12.4346   23.0686 S   0  0  0  0  0  0  0  0  0  0  0  0
    4.4351   12.1737   24.8594 H   0  0  0  0  0  0  0  0  0  0  0  0
    5.2460   14.1451   23.5954 H   0  0  0  0  0  0  0  0  0  0  0  0
    5.9323   10.2910   25.3276 H   0  0  0  0  0  0  0  0  0  0  0  0
    7.5794   14.2323   22.8008 H   0  0  0  0  0  0  0  0  0  0  0  0
   10.4776    9.1806   24.5900 H   0  0  0  0  0  0  0  0  0  0  0  0
    9.7990    9.5262   22.9911 H   0  0  0  0  0  0  0  0  0  0  0  0
   10.6782   11.6297   25.0693 H   0  0  0  0  0  0  0  0  0  0  0  0
   11.6281   11.1510   23.6441 H   0  0  0  0  0  0  0  0  0  0  0  0
  1  2  2  0  0  0  0
  1  3  1  0  0  0  0
  2  4  1  0  0  0  0
  3  5  2  0  0  0  0
  4  6  2  0  0  0  0
  5  6  1  0  0  0  0
  5  7  1  0  0  0  0
  6 13  1  0  0  0  0
  7  8  1  0  0  0  0
  7 10  2  0  0  0  0
  8  9  1  0  0  0  0
  9 13  1  0  0  0  0
 11 13  2  0  0  0  0
 12 13  2  0  0  0  0
  1 14  1  0  0  0  0
  2 15  1  0  0  0  0
  3 16  1  0  0  0  0
  4 17  1  0  0  0  0
  8 18  1  0  0  0  0
  8 19  1  0  0  0  0
  9 20  1  0  0  0  0
  9 21  1  0  0  0  0
M  END
> <Catalog ID>
Z56922070

> <PlateID>
1337959-R-14

> <Well>
H11

> <MW (desalted)>
196.223

> <CLogP>
0.363

> <HBD>
0

> <TPSA>
51.210

> <RotBonds>
0

> <ROCS_ShapeQuery>
x0446_0A_x1080_0A_x0929_0A_x0812_0A_x0719_0A_x1140_0A_x0528_0A_x0310_0A

> <ROCS_TanimotoCombo>
0.301 

> <ROCS_ShapeTanimoto>
0.178 

> <ROCS_ColorTanimoto>
0.123 

> <ROCS_RefTversky>
0.166 

> <ROCS_RefColorTversky>
0.130 

> <ROCS_RefTverskyCombo>
0.296 

> <ROCS_FitTversky>
1.700 

> <ROCS_FitColorTversky>
0.699 

> <ROCS_FitTverskyCombo>
2.398 

> <ROCS_ColorScore>
-4.621

> <ROCS_Overlap>
1959.925

> <ROCS_Rank>
354                 

$$$$
untitled-dbase-665_1
  -OEChem-02082415003D

 23 24  0     0  0  0  0  0  0999 V2000
    9.1447   14.7886   22.2003 C   0  0  0  0  0  0  0  0  0  0  0  0
   10.3840   14.2528   22.9017 C   0  0  0  0  0  0  0  0  0  0  0  0
    9.0378   11.1955   24.6769 C   0  0  0  0  0  0  0  0  0  0  0  0
    9.3650   11.2793   22.6209 C   0  0  0  0  0  0  0  0  0  0  0  0
    7.8054   13.1636   23.5619 C   0  0  0  0  0  0  0  0  0  0  0  0
    9.0982   12.3781   23.6806 C   0  0  0  0  0  0  0  0  0  0  0  0
    6.7204   14.5500   21.8195 C   0  0  0  0  0  0  0  0  0  0  0  0
    8.8124   10.2735   23.5476 N   0  0  0  0  0  0  0  0  0  0  0  0
    7.9515   14.1206   22.4671 N   0  0  0  0  0  0  0  0  0  0  0  0
    9.2576   15.7300   21.4118 O   0  0  0  0  0  0  0  0  0  0  0  0
   10.1724   13.3071   23.9210 O   0  0  0  0  0  0  0  0  0  0  0  0
   11.0237   13.7886   22.1441 H   0  0  0  0  0  0  0  0  0  0  0  0
   10.9247   15.1064   23.3252 H   0  0  0  0  0  0  0  0  0  0  0  0
    9.9778   11.0077   25.2156 H   0  0  0  0  0  0  0  0  0  0  0  0
    8.2218   11.2155   25.4098 H   0  0  0  0  0  0  0  0  0  0  0  0
    8.8167   11.3711   21.6765 H   0  0  0  0  0  0  0  0  0  0  0  0
   10.4277   11.1261   22.3883 H   0  0  0  0  0  0  0  0  0  0  0  0
    6.9607   12.5081   23.3220 H   0  0  0  0  0  0  0  0  0  0  0  0
    7.5764   13.7074   24.4852 H   0  0  0  0  0  0  0  0  0  0  0  0
    6.5974   14.0093   20.8695 H   0  0  0  0  0  0  0  0  0  0  0  0
    5.8657   14.3342   22.4774 H   0  0  0  0  0  0  0  0  0  0  0  0
    6.7678   15.6312   21.6225 H   0  0  0  0  0  0  0  0  0  0  0  0
    9.3335    9.4008   23.5951 H   0  0  0  0  0  0  0  0  0  0  0  0
  1  2  1  0  0  0  0
  1  9  1  0  0  0  0
  1 10  2  0  0  0  0
  2 11  1  0  0  0  0
  3  6  1  0  0  0  0
  3  8  1  0  0  0  0
  4  6  1  0  0  0  0
  4  8  1  0  0  0  0
  5  6  1  0  0  0  0
  5  9  1  0  0  0  0
  6 11  1  0  0  0  0
  7  9  1  0  0  0  0
  2 12  1  0  0  0  0
  2 13  1  0  0  0  0
  3 14  1  0  0  0  0
  3 15  1  0  0  0  0
  4 16  1  0  0  0  0
  4 17  1  0  0  0  0
  5 18  1  0  0  0  0
  5 19  1  0  0  0  0
  7 20  1  0  0  0  0
  7 21  1  0  0  0  0
  7 22  1  0  0  0  0
  8 23  1  0  0  0  0
M  END
> <Catalog ID>
Z4868845622

> <PlateID>
1337959-R-15

> <Well>
F05

> <MW (desalted)>
156.182

> <CLogP>
-0.560

> <HBD>
1

> <TPSA>
41.570

> <RotBonds>
0

> <ROCS_ShapeQuery>
x0446_0A_x1080_0A_x0929_0A_x0812_0A_x0719_0A_x1140_0A_x0528_0A_x0310_0A

> <ROCS_TanimotoCombo>
0.301 

> <ROCS_ShapeTanimoto>
0.166 

> <ROCS_ColorTanimoto>
0.135 

> <ROCS_RefTversky>
0.155 

> <ROCS_RefColorTversky>
0.144 

> <ROCS_RefTverskyCombo>
0.300 

> <ROCS_FitTversky>
1.695 

> <ROCS_FitColorTversky>
0.681 

> <ROCS_FitTverskyCombo>
2.375 

> <ROCS_ColorScore>
-5.149

> <ROCS_Overlap>
1831.194

> <ROCS_Rank>
355                 

$$$$
untitled-dbase-552_20
  -OEChem-02082415003D

 32 33  0     0  0  0  0  0  0999 V2000
   11.2845   16.3348   22.4784 C   0  0  0  0  0  0  0  0  0  0  0  0
   10.3360   15.3143   22.4117 C   0  0  0  0  0  0  0  0  0  0  0  0
   12.6179   16.0690   22.1668 C   0  0  0  0  0  0  0  0  0  0  0  0
   12.0543   13.7622   21.7221 C   0  0  0  0  0  0  0  0  0  0  0  0
   10.7209   14.0280   22.0337 C   0  0  0  0  0  0  0  0  0  0  0  0
   13.0028   14.7827   21.7887 C   0  0  0  0  0  0  0  0  0  0  0  0
    7.3380   12.0822   24.5121 C   0  0  0  0  0  0  0  0  0  0  0  0
    8.3170   10.0306   23.6792 C   0  0  0  0  0  0  0  0  0  0  0  0
    8.7134   12.7447   24.5570 C   0  0  0  0  0  0  0  0  0  0  0  0
    9.7091   10.6584   23.7098 C   0  0  0  0  0  0  0  0  0  0  0  0
    6.1291   10.0041   24.6916 C   0  0  0  0  0  0  0  0  0  0  0  0
    7.4510   10.6290   24.7058 N   0  0  0  0  0  0  0  0  0  0  0  0
    9.6166   12.1345   23.5437 N   0  0  0  0  0  0  0  0  0  0  0  0
    8.2242   13.3491   21.7521 O   0  0  0  0  0  0  0  0  0  0  0  0
   10.0148   11.7281   21.0354 O   0  0  0  0  0  0  0  0  0  0  0  0
    9.5205   12.7363   21.9486 S   0  0  0  0  0  0  0  0  0  0  0  0
   14.6483   14.4550   21.4059 Cl  0  0  0  0  0  0  0  0  0  0  0  0
   10.9846   17.3363   22.7725 H   0  0  0  0  0  0  0  0  0  0  0  0
    9.3002   15.5329   22.6564 H   0  0  0  0  0  0  0  0  0  0  0  0
   13.3467   16.8735   22.2237 H   0  0  0  0  0  0  0  0  0  0  0  0
   12.3507   12.7574   21.4294 H   0  0  0  0  0  0  0  0  0  0  0  0
    6.6890   12.5247   25.2796 H   0  0  0  0  0  0  0  0  0  0  0  0
    6.8853   12.2940   23.5361 H   0  0  0  0  0  0  0  0  0  0  0  0
    7.8853   10.1970   22.6851 H   0  0  0  0  0  0  0  0  0  0  0  0
    8.3983    8.9453   23.8260 H   0  0  0  0  0  0  0  0  0  0  0  0
    8.6299   13.8270   24.3744 H   0  0  0  0  0  0  0  0  0  0  0  0
    9.1442   12.6044   25.5589 H   0  0  0  0  0  0  0  0  0  0  0  0
   10.1817   10.4307   24.6761 H   0  0  0  0  0  0  0  0  0  0  0  0
   10.3437   10.2355   22.9159 H   0  0  0  0  0  0  0  0  0  0  0  0
    6.2343    8.9190   24.8376 H   0  0  0  0  0  0  0  0  0  0  0  0
    5.5158   10.4253   25.5019 H   0  0  0  0  0  0  0  0  0  0  0  0
    5.6422   10.1983   23.7244 H   0  0  0  0  0  0  0  0  0  0  0  0
  1  2  1  0  0  0  0
  1  3  2  0  0  0  0
  2  5  2  0  0  0  0
  3  6  1  0  0  0  0
  4  5  1  0  0  0  0
  4  6  2  0  0  0  0
  5 16  1  0  0  0  0
  6 17  1  0  0  0  0
  7  9  1  0  0  0  0
  7 12  1  0  0  0  0
  8 10  1  0  0  0  0
  8 12  1  0  0  0  0
  9 13  1  0  0  0  0
 10 13  1  0  0  0  0
 11 12  1  0  0  0  0
 13 16  1  0  0  0  0
 14 16  2  0  0  0  0
 15 16  2  0  0  0  0
  1 18  1  0  0  0  0
  2 19  1  0  0  0  0
  3 20  1  0  0  0  0
  4 21  1  0  0  0  0
  7 22  1  0  0  0  0
  7 23  1  0  0  0  0
  8 24  1  0  0  0  0
  8 25  1  0  0  0  0
  9 26  1  0  0  0  0
  9 27  1  0  0  0  0
 10 28  1  0  0  0  0
 10 29  1  0  0  0  0
 11 30  1  0  0  0  0
 11 31  1  0  0  0  0
 11 32  1  0  0  0  0
M  END
> <Catalog ID>
Z45507452

> <PlateID>
1337959-R-12

> <Well>
H11

> <MW (desalted)>
274.767

> <CLogP>
2.557

> <HBD>
0

> <TPSA>
40.620

> <RotBonds>
1

> <ROCS_ShapeQuery>
x0446_0A_x1080_0A_x0929_0A_x0812_0A_x0719_0A_x1140_0A_x0528_0A_x0310_0A

> <ROCS_TanimotoCombo>
0.301 

> <ROCS_ShapeTanimoto>
0.204 

> <ROCS_ColorTanimoto>
0.098 

> <ROCS_RefTversky>
0.188 

> <ROCS_RefColorTversky>
0.106 

> <ROCS_RefTverskyCombo>
0.293 

> <ROCS_FitTversky>
1.705 

> <ROCS_FitColorTversky>
0.568 

> <ROCS_FitTverskyCombo>
2.273 

> <ROCS_ColorScore>
-3.756

> <ROCS_Overlap>
2214.991

> <ROCS_Rank>
356                 

$$$$
untitled-dbase-558_0
  -OEChem-02082415003D

 29 31  0     0  0  0  0  0  0999 V2000
    5.6225   11.6665   25.0181 C   0  0  0  0  0  0  0  0  0  0  0  0
    5.5606   12.6762   24.0461 C   0  0  0  0  0  0  0  0  0  0  0  0
    6.8299   11.0238   25.2960 C   0  0  0  0  0  0  0  0  0  0  0  0
    6.7054   13.0541   23.3411 C   0  0  0  0  0  0  0  0  0  0  0  0
    7.9565   11.4149   24.5938 C   0  0  0  0  0  0  0  0  0  0  0  0
    7.8999   12.4126   23.6291 C   0  0  0  0  0  0  0  0  0  0  0  0
    9.3370   10.8860   24.6808 C   0  0  0  0  0  0  0  0  0  0  0  0
    9.3421   12.0425   21.6003 C   0  0  0  0  0  0  0  0  0  0  0  0
    9.7488   14.0524   23.0686 C   0  0  0  0  0  0  0  0  0  0  0  0
   10.7241   12.2781   20.9860 C   0  0  0  0  0  0  0  0  0  0  0  0
   11.1149   14.2030   22.3951 C   0  0  0  0  0  0  0  0  0  0  0  0
    9.2567   12.5996   23.0297 C   0  0  0  0  0  0  0  0  0  0  0  0
   11.0938   13.6928   21.0243 N   0  0  0  0  0  0  0  0  0  0  0  0
   10.1239   11.8072   23.8921 O   0  0  0  0  0  0  0  0  0  0  0  0
    4.7222   11.3813   25.5554 H   0  0  0  0  0  0  0  0  0  0  0  0
    4.6128   13.1652   23.8381 H   0  0  0  0  0  0  0  0  0  0  0  0
    6.8779   10.2386   26.0427 H   0  0  0  0  0  0  0  0  0  0  0  0
    6.6508   13.8295   22.5846 H   0  0  0  0  0  0  0  0  0  0  0  0
    9.7236   10.8875   25.7032 H   0  0  0  0  0  0  0  0  0  0  0  0
    9.4182    9.8886   24.2393 H   0  0  0  0  0  0  0  0  0  0  0  0
    8.5807   12.5137   20.9645 H   0  0  0  0  0  0  0  0  0  0  0  0
    9.1414   10.9636   21.5942 H   0  0  0  0  0  0  0  0  0  0  0  0
    9.8332   14.3983   24.1067 H   0  0  0  0  0  0  0  0  0  0  0  0
    9.0298   14.7133   22.5669 H   0  0  0  0  0  0  0  0  0  0  0  0
   11.4814   11.6753   21.5016 H   0  0  0  0  0  0  0  0  0  0  0  0
   10.7106   11.9453   19.9423 H   0  0  0  0  0  0  0  0  0  0  0  0
   11.3854   15.2645   22.3725 H   0  0  0  0  0  0  0  0  0  0  0  0
   11.8900   13.6905   22.9778 H   0  0  0  0  0  0  0  0  0  0  0  0
   12.0171   13.8101   20.6080 H   0  0  0  0  0  0  0  0  0  0  0  0
  1  2  2  0  0  0  0
  1  3  1  0  0  0  0
  2  4  1  0  0  0  0
  3  5  2  0  0  0  0
  4  6  2  0  0  0  0
  5  6  1  0  0  0  0
  5  7  1  0  0  0  0
  6 12  1  0  0  0  0
  7 14  1  0  0  0  0
  8 10  1  0  0  0  0
  8 12  1  0  0  0  0
  9 11  1  0  0  0  0
  9 12  1  0  0  0  0
 10 13  1  0  0  0  0
 11 13  1  0  0  0  0
 12 14  1  0  0  0  0
  1 15  1  0  0  0  0
  2 16  1  0  0  0  0
  3 17  1  0  0  0  0
  4 18  1  0  0  0  0
  7 19  1  0  0  0  0
  7 20  1  0  0  0  0
  8 21  1  0  0  0  0
  8 22  1  0  0  0  0
  9 23  1  0  0  0  0
  9 24  1  0  0  0  0
 10 25  1  0  0  0  0
 10 26  1  0  0  0  0
 11 27  1  0  0  0  0
 11 28  1  0  0  0  0
 13 29  1  0  0  0  0
M  END
> <Catalog ID>
Z1428158210

> <PlateID>
1337959-R-13

> <Well>
A10

> <MW (desalted)>
189.254

> <CLogP>
1.198

> <HBD>
1

> <TPSA>
21.260

> <RotBonds>
0

> <ROCS_ShapeQuery>
x0446_0A_x1080_0A_x0929_0A_x0812_0A_x0719_0A_x1140_0A_x0528_0A_x0310_0A

> <ROCS_TanimotoCombo>
0.301 

> <ROCS_ShapeTanimoto>
0.187 

> <ROCS_ColorTanimoto>
0.114 

> <ROCS_RefTversky>
0.174 

> <ROCS_RefColorTversky>
0.124 

> <ROCS_RefTverskyCombo>
0.298 

> <ROCS_FitTversky>
1.674 

> <ROCS_FitColorTversky>
0.585 

> <ROCS_FitTverskyCombo>
2.259 

> <ROCS_ColorScore>
-4.434

> <ROCS_Overlap>
2049.355

> <ROCS_Rank>
357                 

$$$$
untitled-dbase-374_3
  -OEChem-02082415003D

 20 20  0     0  0  0  0  0  0999 V2000
    9.9668   11.5469   23.2321 C   0  0  0  0  0  0  0  0  0  0  0  0
    7.9957   12.3123   24.4009 C   0  0  0  0  0  0  0  0  0  0  0  0
    9.6159   10.2250   23.5060 C   0  0  0  0  0  0  0  0  0  0  0  0
    7.6448   10.9903   24.6748 C   0  0  0  0  0  0  0  0  0  0  0  0
    9.1567   12.5906   23.6796 C   0  0  0  0  0  0  0  0  0  0  0  0
    8.4549    9.9467   24.2273 C   0  0  0  0  0  0  0  0  0  0  0  0
    9.5308   14.0041   23.3865 C   0  0  0  0  0  0  0  0  0  0  0  0
   10.5971   13.5995   20.9885 N   0  0  0  0  0  0  0  0  0  0  0  0
    8.0436   13.5312   21.2909 O   0  0  0  0  0  0  0  0  0  0  0  0
    9.2542   15.7431   21.4559 O   0  0  0  0  0  0  0  0  0  0  0  0
    8.1164    8.6771   24.4880 F   0  0  0  0  0  0  0  0  0  0  0  0
    9.2085   14.3081   21.6793 S   0  0  0  0  0  0  0  0  0  0  0  0
   10.8737   11.7539   22.6700 H   0  0  0  0  0  0  0  0  0  0  0  0
    7.3582   13.1189   24.7534 H   0  0  0  0  0  0  0  0  0  0  0  0
   10.2460    9.4124   23.1571 H   0  0  0  0  0  0  0  0  0  0  0  0
    6.7412   10.7733   25.2367 H   0  0  0  0  0  0  0  0  0  0  0  0
   10.5937   14.1996   23.5688 H   0  0  0  0  0  0  0  0  0  0  0  0
    8.9436   14.7201   23.9729 H   0  0  0  0  0  0  0  0  0  0  0  0
   11.4951   14.0812   21.1195 H   0  0  0  0  0  0  0  0  0  0  0  0
   10.6703   12.5749   21.0070 H   0  0  0  0  0  0  0  0  0  0  0  0
  1  3  1  0  0  0  0
  1  5  2  0  0  0  0
  2  4  2  0  0  0  0
  2  5  1  0  0  0  0
  3  6  2  0  0  0  0
  4  6  1  0  0  0  0
  5  7  1  0  0  0  0
  6 11  1  0  0  0  0
  7 12  1  0  0  0  0
  8 12  1  0  0  0  0
  9 12  2  0  0  0  0
 10 12  2  0  0  0  0
  1 13  1  0  0  0  0
  2 14  1  0  0  0  0
  3 15  1  0  0  0  0
  4 16  1  0  0  0  0
  7 17  1  0  0  0  0
  7 18  1  0  0  0  0
  8 19  1  0  0  0  0
  8 20  1  0  0  0  0
M  END
> <Catalog ID>
Z241725866

> <PlateID>
1337959-R-09

> <Well>
A09

> <MW (desalted)>
189.207

> <CLogP>
0.417

> <HBD>
1

> <TPSA>
60.160

> <RotBonds>
2

> <ROCS_ShapeQuery>
x0446_0A_x1080_0A_x0929_0A_x0812_0A_x0719_0A_x1140_0A_x0528_0A_x0310_0A

> <ROCS_TanimotoCombo>
0.301 

> <ROCS_ShapeTanimoto>
0.172 

> <ROCS_ColorTanimoto>
0.129 

> <ROCS_RefTversky>
0.161 

> <ROCS_RefColorTversky>
0.132 

> <ROCS_RefTverskyCombo>
0.293 

> <ROCS_FitTversky>
1.735 

> <ROCS_FitColorTversky>
0.829 

> <ROCS_FitTverskyCombo>
2.564 

> <ROCS_ColorScore>
-4.697

> <ROCS_Overlap>
1894.568

> <ROCS_Rank>
358                 

$$$$
untitled-dbase-554_17
  -OEChem-02082415003D

 32 33  0     1  0  0  0  0  0999 V2000
   12.7036   16.0934   22.1214 C   0  0  0  0  0  0  0  0  0  0  0  0
   11.3676   16.4563   22.2921 C   0  0  0  0  0  0  0  0  0  0  0  0
   13.0394   14.7603   21.8847 C   0  0  0  0  0  0  0  0  0  0  0  0
   10.3675   15.4862   22.2261 C   0  0  0  0  0  0  0  0  0  0  0  0
   12.0393   13.7903   21.8187 C   0  0  0  0  0  0  0  0  0  0  0  0
   10.7033   14.1532   21.9894 C   0  0  0  0  0  0  0  0  0  0  0  0
    7.0593   11.5974   23.8623 C   0  0  0  0  0  0  0  0  0  0  0  0
    7.1887   10.2566   24.5929 C   0  0  0  0  0  0  0  0  0  0  0  0
    8.0838   12.6469   24.2772 C   0  0  0  0  0  0  0  0  0  0  0  0
    9.5061    9.9838   23.8062 C   0  0  0  0  0  0  0  0  0  0  0  0
   10.2056   11.3299   23.9824 C   0  0  0  0  0  0  0  0  0  0  0  0
    8.5257    9.7375   24.8586 N   0  0  0  0  0  0  0  0  0  0  0  0
    9.3651   12.4701   23.5459 N   0  0  1  0  0  0  0  0  0  0  0  0
    8.1989   13.5936   21.5559 O   0  0  0  0  0  0  0  0  0  0  0  0
    9.9342   11.8167   21.1328 O   0  0  0  0  0  0  0  0  0  0  0  0
   12.3743   12.5125   21.5913 F   0  0  0  0  0  0  0  0  0  0  0  0
    9.4342   12.9303   21.9067 S   0  0  0  0  0  0  0  0  0  0  0  0
   13.4823   16.8487   22.1727 H   0  0  0  0  0  0  0  0  0  0  0  0
   11.1062   17.4943   22.4756 H   0  0  0  0  0  0  0  0  0  0  0  0
   14.0795   14.4776   21.7518 H   0  0  0  0  0  0  0  0  0  0  0  0
    9.3300   15.7802   22.3604 H   0  0  0  0  0  0  0  0  0  0  0  0
    7.1084   11.4333   22.7772 H   0  0  0  0  0  0  0  0  0  0  0  0
    6.0533   11.9872   24.0671 H   0  0  0  0  0  0  0  0  0  0  0  0
    6.6677   10.3323   25.5589 H   0  0  0  0  0  0  0  0  0  0  0  0
    6.6271    9.5003   24.0250 H   0  0  0  0  0  0  0  0  0  0  0  0
    7.6675   13.6373   24.0196 H   0  0  0  0  0  0  0  0  0  0  0  0
    8.2507   12.6557   25.3694 H   0  0  0  0  0  0  0  0  0  0  0  0
    9.0716    9.8689   22.8017 H   0  0  0  0  0  0  0  0  0  0  0  0
   10.2687    9.1966   23.8947 H   0  0  0  0  0  0  0  0  0  0  0  0
   10.5405   11.4817   25.0185 H   0  0  0  0  0  0  0  0  0  0  0  0
   11.1097   11.3105   23.3567 H   0  0  0  0  0  0  0  0  0  0  0  0
    8.8696   10.1072   25.7453 H   0  0  0  0  0  0  0  0  0  0  0  0
  1  2  2  0  0  0  0
  1  3  1  0  0  0  0
  2  4  1  0  0  0  0
  3  5  2  0  0  0  0
  4  6  2  0  0  0  0
  5  6  1  0  0  0  0
  5 16  1  0  0  0  0
  6 17  1  0  0  0  0
  7  8  1  0  0  0  0
  7  9  1  0  0  0  0
  8 12  1  0  0  0  0
  9 13  1  0  0  0  0
 10 11  1  0  0  0  0
 10 12  1  0  0  0  0
 11 13  1  0  0  0  0
 13 17  1  0  0  0  0
 14 17  2  0  0  0  0
 15 17  2  0  0  0  0
  1 18  1  0  0  0  0
  2 19  1  0  0  0  0
  3 20  1  0  0  0  0
  4 21  1  0  0  0  0
  7 22  1  0  0  0  0
  7 23  1  0  0  0  0
  8 24  1  0  0  0  0
  8 25  1  0  0  0  0
  9 26  1  0  0  0  0
  9 27  1  0  0  0  0
 10 28  1  0  0  0  0
 10 29  1  0  0  0  0
 11 30  1  0  0  0  0
 11 31  1  0  0  0  0
 12 32  1  0  0  0  0
M  END
> <Catalog ID>
Z228587722

> <PlateID>
1337959-R-13

> <Well>
A04

> <MW (desalted)>
258.312

> <CLogP>
1.392

> <HBD>
1

> <TPSA>
49.410

> <RotBonds>
1

> <ROCS_ShapeQuery>
x0446_0A_x1080_0A_x0929_0A_x0812_0A_x0719_0A_x1140_0A_x0528_0A_x0310_0A

> <ROCS_TanimotoCombo>
0.301 

> <ROCS_ShapeTanimoto>
0.202 

> <ROCS_ColorTanimoto>
0.099 

> <ROCS_RefTversky>
0.187 

> <ROCS_RefColorTversky>
0.109 

> <ROCS_RefTverskyCombo>
0.296 

> <ROCS_FitTversky>
1.686 

> <ROCS_FitColorTversky>
0.512 

> <ROCS_FitTverskyCombo>
2.199 

> <ROCS_ColorScore>
-3.876

> <ROCS_Overlap>
2206.934

> <ROCS_Rank>
359                 

$$$$
untitled-dbase-295_0
  -OEChem-02082415003D

 18 19  0     0  0  0  0  0  0999 V2000
    8.7133   11.8560   24.9861 C   0  0  0  0  0  0  0  0  0  0  0  0
    7.6910   11.1993   23.2680 C   0  0  0  0  0  0  0  0  0  0  0  0
   10.0163   10.6185   23.3909 C   0  0  0  0  0  0  0  0  0  0  0  0
    8.7361   10.5167   24.1953 C   0  0  0  0  0  0  0  0  0  0  0  0
    8.6372   12.4244   23.5256 C   0  0  0  0  0  0  0  0  0  0  0  0
    8.2255   13.8341   23.2354 C   0  0  0  0  0  0  0  0  0  0  0  0
    9.9297   12.0084   22.9260 N   0  0  0  0  0  0  0  0  0  0  0  0
    9.0588   14.7197   23.8271 F   0  0  0  0  0  0  0  0  0  0  0  0
    8.2377   14.0845   21.9066 F   0  0  0  0  0  0  0  0  0  0  0  0
    6.9755   14.0823   23.6878 F   0  0  0  0  0  0  0  0  0  0  0  0
    7.8284   12.0250   25.6115 H   0  0  0  0  0  0  0  0  0  0  0  0
    9.6044   12.1019   25.5730 H   0  0  0  0  0  0  0  0  0  0  0  0
    7.6226   10.8297   22.2395 H   0  0  0  0  0  0  0  0  0  0  0  0
    6.6764   11.2852   23.6750 H   0  0  0  0  0  0  0  0  0  0  0  0
   10.9039   10.4564   24.0113 H   0  0  0  0  0  0  0  0  0  0  0  0
   10.0341    9.9214   22.5474 H   0  0  0  0  0  0  0  0  0  0  0  0
    8.4728    9.5918   24.7044 H   0  0  0  0  0  0  0  0  0  0  0  0
   10.7328   12.5347   23.2696 H   0  0  0  0  0  0  0  0  0  0  0  0
  1  4  1  0  0  0  0
  1  5  1  0  0  0  0
  2  4  1  0  0  0  0
  2  5  1  0  0  0  0
  3  4  1  0  0  0  0
  3  7  1  0  0  0  0
  5  6  1  0  0  0  0
  5  7  1  0  0  0  0
  6  8  1  0  0  0  0
  6  9  1  0  0  0  0
  6 10  1  0  0  0  0
  1 11  1  0  0  0  0
  1 12  1  0  0  0  0
  2 13  1  0  0  0  0
  2 14  1  0  0  0  0
  3 15  1  0  0  0  0
  3 16  1  0  0  0  0
  4 17  1  0  0  0  0
  7 18  1  0  0  0  0
M  END
> <Catalog ID>
Z2286737486

> <PlateID>
1337959-R-07

> <Well>
B08

> <MW (desalted)>
151.130

> <CLogP>
0.824

> <HBD>
1

> <TPSA>
12.030

> <RotBonds>
1

> <ROCS_ShapeQuery>
x0446_0A_x1080_0A_x0929_0A_x0812_0A_x0719_0A_x1140_0A_x0528_0A_x0310_0A

> <ROCS_TanimotoCombo>
0.301 

> <ROCS_ShapeTanimoto>
0.168 

> <ROCS_ColorTanimoto>
0.133 

> <ROCS_RefTversky>
0.156 

> <ROCS_RefColorTversky>
0.151 

> <ROCS_RefTverskyCombo>
0.308 

> <ROCS_FitTversky>
1.750 

> <ROCS_FitColorTversky>
0.528 

> <ROCS_FitTverskyCombo>
2.278 

> <ROCS_ColorScore>
-5.415

> <ROCS_Overlap>
1842.219

> <ROCS_Rank>
360                 

$$$$
untitled-dbase-166_1
  -OEChem-02082415003D

 23 24  0     0  0  0  0  0  0999 V2000
    8.4988   14.2799   22.4774 C   0  0  0  0  0  0  0  0  0  0  0  0
    7.0245   14.3931   22.7818 C   0  0  0  0  0  0  0  0  0  0  0  0
    8.0165   12.8795   25.2498 C   0  0  0  0  0  0  0  0  0  0  0  0
    7.8436   11.0627   23.3156 C   0  0  0  0  0  0  0  0  0  0  0  0
    9.6532   11.1082   24.3404 C   0  0  0  0  0  0  0  0  0  0  0  0
    6.6736   13.5414   24.9667 C   0  0  0  0  0  0  0  0  0  0  0  0
    8.6122   12.2208   24.0092 C   0  0  0  0  0  0  0  0  0  0  0  0
    9.1739   13.2373   23.0757 N   0  0  0  0  0  0  0  0  0  0  0  0
    9.1175   10.3245   23.2107 N   0  0  0  0  0  0  0  0  0  0  0  0
    9.0520   15.0721   21.7131 O   0  0  0  0  0  0  0  0  0  0  0  0
    6.8085   14.6958   24.1454 O   0  0  0  0  0  0  0  0  0  0  0  0
    6.5345   15.1032   22.1080 H   0  0  0  0  0  0  0  0  0  0  0  0
    6.5728   13.4127   22.5934 H   0  0  0  0  0  0  0  0  0  0  0  0
    8.6966   13.6552   25.6228 H   0  0  0  0  0  0  0  0  0  0  0  0
    7.9079   12.1369   26.0500 H   0  0  0  0  0  0  0  0  0  0  0  0
    7.1006   10.5522   23.9436 H   0  0  0  0  0  0  0  0  0  0  0  0
    7.3713   11.2907   22.3533 H   0  0  0  0  0  0  0  0  0  0  0  0
   10.7065   11.3770   24.2385 H   0  0  0  0  0  0  0  0  0  0  0  0
    9.5061   10.6285   25.3141 H   0  0  0  0  0  0  0  0  0  0  0  0
    6.0518   12.8345   24.4065 H   0  0  0  0  0  0  0  0  0  0  0  0
    6.1270   13.7847   25.8851 H   0  0  0  0  0  0  0  0  0  0  0  0
   10.1595   13.1707   22.8313 H   0  0  0  0  0  0  0  0  0  0  0  0
    9.0482    9.3221   23.3774 H   0  0  0  0  0  0  0  0  0  0  0  0
  1  2  1  0  0  0  0
  1  8  1  0  0  0  0
  1 10  2  0  0  0  0
  2 11  1  0  0  0  0
  3  6  1  0  0  0  0
  3  7  1  0  0  0  0
  4  7  1  0  0  0  0
  4  9  1  0  0  0  0
  5  7  1  0  0  0  0
  5  9  1  0  0  0  0
  6 11  1  0  0  0  0
  7  8  1  0  0  0  0
  2 12  1  0  0  0  0
  2 13  1  0  0  0  0
  3 14  1  0  0  0  0
  3 15  1  0  0  0  0
  4 16  1  0  0  0  0
  4 17  1  0  0  0  0
  5 18  1  0  0  0  0
  5 19  1  0  0  0  0
  6 20  1  0  0  0  0
  6 21  1  0  0  0  0
  8 22  1  0  0  0  0
  9 23  1  0  0  0  0
M  END
> <Catalog ID>
Z3664711289

> <PlateID>
1337959-R-04

> <Well>
D04

> <MW (desalted)>
156.182

> <CLogP>
-1.122

> <HBD>
2

> <TPSA>
50.360

> <RotBonds>
0

> <ROCS_ShapeQuery>
x0446_0A_x1080_0A_x0929_0A_x0812_0A_x0719_0A_x1140_0A_x0528_0A_x0310_0A

> <ROCS_TanimotoCombo>
0.301 

> <ROCS_ShapeTanimoto>
0.167 

> <ROCS_ColorTanimoto>
0.134 

> <ROCS_RefTversky>
0.156 

> <ROCS_RefColorTversky>
0.146 

> <ROCS_RefTverskyCombo>
0.302 

> <ROCS_FitTversky>
1.709 

> <ROCS_FitColorTversky>
0.613 

> <ROCS_FitTverskyCombo>
2.322 

> <ROCS_ColorScore>
-5.221

> <ROCS_Overlap>
1837.356

> <ROCS_Rank>
361                 

$$$$
untitled-dbase-593_18
  -OEChem-02082415003D

 32 33  0     0  0  0  0  0  0999 V2000
   12.5855   15.9991   22.3280 C   0  0  0  0  0  0  0  0  0  0  0  0
   11.2272   16.3130   22.3739 C   0  0  0  0  0  0  0  0  0  0  0  0
   12.0362   13.6782   21.9425 C   0  0  0  0  0  0  0  0  0  0  0  0
   12.9900   14.6817   22.1123 C   0  0  0  0  0  0  0  0  0  0  0  0
   10.6778   13.9921   21.9883 C   0  0  0  0  0  0  0  0  0  0  0  0
   10.2734   15.3095   22.2041 C   0  0  0  0  0  0  0  0  0  0  0  0
    7.9981   12.5592   24.8260 C   0  0  0  0  0  0  0  0  0  0  0  0
    7.7828   10.3697   23.5905 C   0  0  0  0  0  0  0  0  0  0  0  0
    9.4872   12.5698   24.4991 C   0  0  0  0  0  0  0  0  0  0  0  0
    9.2760   10.4210   23.2871 C   0  0  0  0  0  0  0  0  0  0  0  0
    7.4512   11.1294   24.8790 C   0  0  0  0  0  0  0  0  0  0  0  0
    9.7497   11.8318   23.2329 N   0  0  0  0  0  0  0  0  0  0  0  0
    6.0293   11.1372   25.1202 N   0  0  0  0  0  0  0  0  0  0  0  0
    8.1910   13.2576   21.7655 O   0  0  0  0  0  0  0  0  0  0  0  0
    9.9769   11.8562   20.6727 O   0  0  0  0  0  0  0  0  0  0  0  0
   14.2944   14.3796   22.0692 F   0  0  0  0  0  0  0  0  0  0  0  0
    9.5175   12.6801   21.7696 S   0  0  0  0  0  0  0  0  0  0  0  0
    8.6051   15.7502   22.2725 Cl  0  0  0  0  0  0  0  0  0  0  0  0
   13.3290   16.7792   22.4617 H   0  0  0  0  0  0  0  0  0  0  0  0
   10.9295   17.3450   22.5413 H   0  0  0  0  0  0  0  0  0  0  0  0
   12.3652   12.6559   21.7761 H   0  0  0  0  0  0  0  0  0  0  0  0
    7.8467   13.0238   25.8035 H   0  0  0  0  0  0  0  0  0  0  0  0
    7.4516   13.1580   24.0957 H   0  0  0  0  0  0  0  0  0  0  0  0
    7.2170   10.7707   22.7465 H   0  0  0  0  0  0  0  0  0  0  0  0
    7.4800    9.3258   23.7149 H   0  0  0  0  0  0  0  0  0  0  0  0
    9.8659   13.5991   24.4127 H   0  0  0  0  0  0  0  0  0  0  0  0
   10.0318   12.0847   25.3220 H   0  0  0  0  0  0  0  0  0  0  0  0
    9.8149    9.8883   24.0847 H   0  0  0  0  0  0  0  0  0  0  0  0
    9.5074    9.9148   22.3374 H   0  0  0  0  0  0  0  0  0  0  0  0
    7.9374   10.6044   25.7248 H   0  0  0  0  0  0  0  0  0  0  0  0
    5.7322   12.0815   25.1659 H   0  0  0  0  0  0  0  0  0  0  0  0
    5.5898   10.6634   24.3689 H   0  0  0  0  0  0  0  0  0  0  0  0
  1  2  1  0  0  0  0
  1  4  2  0  0  0  0
  2  6  2  0  0  0  0
  3  4  1  0  0  0  0
  3  5  2  0  0  0  0
  4 16  1  0  0  0  0
  5  6  1  0  0  0  0
  5 17  1  0  0  0  0
  6 18  1  0  0  0  0
  7  9  1  0  0  0  0
  7 11  1  0  0  0  0
  8 10  1  0  0  0  0
  8 11  1  0  0  0  0
  9 12  1  0  0  0  0
 10 12  1  0  0  0  0
 11 13  1  0  0  0  0
 12 17  1  0  0  0  0
 14 17  2  0  0  0  0
 15 17  2  0  0  0  0
  1 19  1  0  0  0  0
  2 20  1  0  0  0  0
  3 21  1  0  0  0  0
  7 22  1  0  0  0  0
  7 23  1  0  0  0  0
  8 24  1  0  0  0  0
  8 25  1  0  0  0  0
  9 26  1  0  0  0  0
  9 27  1  0  0  0  0
 10 28  1  0  0  0  0
 10 29  1  0  0  0  0
 11 30  1  0  0  0  0
 13 31  1  0  0  0  0
 13 32  1  0  0  0  0
M  END
> <Catalog ID>
Z2242856087

> <PlateID>
1337959-R-13

> <Well>
G07

> <MW (desalted)>
292.757

> <CLogP>
1.099

> <HBD>
1

> <TPSA>
63.400

> <RotBonds>
1

> <ROCS_ShapeQuery>
x0446_0A_x1080_0A_x0929_0A_x0812_0A_x0719_0A_x1140_0A_x0528_0A_x0310_0A

> <ROCS_TanimotoCombo>
0.301 

> <ROCS_ShapeTanimoto>
0.212 

> <ROCS_ColorTanimoto>
0.088 

> <ROCS_RefTversky>
0.195 

> <ROCS_RefColorTversky>
0.098 

> <ROCS_RefTverskyCombo>
0.293 

> <ROCS_FitTversky>
1.717 

> <ROCS_FitColorTversky>
0.463 

> <ROCS_FitTverskyCombo>
2.180 

> <ROCS_ColorScore>
-3.502

> <ROCS_Overlap>
2301.653

> <ROCS_Rank>
362                 

$$$$
untitled-dbase-176_3
  -OEChem-02082415003D

 31 32  0     0  0  0  0  0  0999 V2000
    9.5373    9.9305   23.5483 C   0  0  0  0  0  0  0  0  0  0  0  0
    8.5520    9.7704   24.5225 C   0  0  0  0  0  0  0  0  0  0  0  0
    9.7550   11.1838   22.9759 C   0  0  0  0  0  0  0  0  0  0  0  0
    7.7843   10.8634   24.9243 C   0  0  0  0  0  0  0  0  0  0  0  0
    8.9872   12.2769   23.3777 C   0  0  0  0  0  0  0  0  0  0  0  0
    8.0019   12.1167   24.3519 C   0  0  0  0  0  0  0  0  0  0  0  0
    9.2195   13.5934   22.7730 C   0  0  0  0  0  0  0  0  0  0  0  0
    6.0990   13.2014   21.4990 C   0  0  0  0  0  0  0  0  0  0  0  0
    5.7348   14.5594   22.1029 C   0  0  0  0  0  0  0  0  0  0  0  0
    7.5234   13.0473   20.9650 C   0  0  0  0  0  0  0  0  0  0  0  0
    7.4562   16.1907   21.5724 C   0  0  0  0  0  0  0  0  0  0  0  0
    8.5861   15.2821   21.0902 C   0  0  0  0  0  0  0  0  0  0  0  0
    6.1082   15.6997   21.2642 N   0  0  0  0  0  0  0  0  0  0  0  0
    8.4954   13.9233   21.6229 N   0  0  0  0  0  0  0  0  0  0  0  0
   10.0386   14.3162   23.3379 O   0  0  0  0  0  0  0  0  0  0  0  0
    7.2574   13.1600   24.7460 F   0  0  0  0  0  0  0  0  0  0  0  0
   10.1349    9.0794   23.2354 H   0  0  0  0  0  0  0  0  0  0  0  0
    8.3826    8.7946   24.9683 H   0  0  0  0  0  0  0  0  0  0  0  0
   10.5257   11.2965   22.2178 H   0  0  0  0  0  0  0  0  0  0  0  0
    7.0171   10.7389   25.6829 H   0  0  0  0  0  0  0  0  0  0  0  0
    5.9417   12.4350   22.2817 H   0  0  0  0  0  0  0  0  0  0  0  0
    5.3747   12.9421   20.7018 H   0  0  0  0  0  0  0  0  0  0  0  0
    4.6514   14.5893   22.2397 H   0  0  0  0  0  0  0  0  0  0  0  0
    6.1711   14.6598   23.0995 H   0  0  0  0  0  0  0  0  0  0  0  0
    7.8772   12.0022   21.0310 H   0  0  0  0  0  0  0  0  0  0  0  0
    7.5111   13.2832   19.8855 H   0  0  0  0  0  0  0  0  0  0  0  0
    7.5658   16.4246   22.6448 H   0  0  0  0  0  0  0  0  0  0  0  0
    7.5720   17.1619   21.0651 H   0  0  0  0  0  0  0  0  0  0  0  0
    8.5681   15.2462   20.0085 H   0  0  0  0  0  0  0  0  0  0  0  0
    9.5381   15.6894   21.4091 H   0  0  0  0  0  0  0  0  0  0  0  0
    6.0438   15.4479   20.2792 H   0  0  0  0  0  0  0  0  0  0  0  0
  1  2  2  0  0  0  0
  1  3  1  0  0  0  0
  2  4  1  0  0  0  0
  3  5  2  0  0  0  0
  4  6  2  0  0  0  0
  5  6  1  0  0  0  0
  5  7  1  0  0  0  0
  6 16  1  0  0  0  0
  7 14  1  0  0  0  0
  7 15  2  0  0  0  0
  8  9  1  0  0  0  0
  8 10  1  0  0  0  0
  9 13  1  0  0  0  0
 10 14  1  0  0  0  0
 11 12  1  0  0  0  0
 11 13  1  0  0  0  0
 12 14  1  0  0  0  0
  1 17  1  0  0  0  0
  2 18  1  0  0  0  0
  3 19  1  0  0  0  0
  4 20  1  0  0  0  0
  8 21  1  0  0  0  0
  8 22  1  0  0  0  0
  9 23  1  0  0  0  0
  9 24  1  0  0  0  0
 10 25  1  0  0  0  0
 10 26  1  0  0  0  0
 11 27  1  0  0  0  0
 11 28  1  0  0  0  0
 12 29  1  0  0  0  0
 12 30  1  0  0  0  0
 13 31  1  0  0  0  0
M  END
> <Catalog ID>
Z228587480

> <PlateID>
1337959-R-04

> <Well>
E09

> <MW (desalted)>
222.259

> <CLogP>
0.847

> <HBD>
1

> <TPSA>
32.340

> <RotBonds>
1

> <ROCS_ShapeQuery>
x0446_0A_x1080_0A_x0929_0A_x0812_0A_x0719_0A_x1140_0A_x0528_0A_x0310_0A

> <ROCS_TanimotoCombo>
0.300 

> <ROCS_ShapeTanimoto>
0.201 

> <ROCS_ColorTanimoto>
0.100 

> <ROCS_RefTversky>
0.186 

> <ROCS_RefColorTversky>
0.107 

> <ROCS_RefTverskyCombo>
0.293 

> <ROCS_FitTversky>
1.699 

> <ROCS_FitColorTversky>
0.578 

> <ROCS_FitTverskyCombo>
2.277 

> <ROCS_ColorScore>
-3.820

> <ROCS_Overlap>
2189.376

> <ROCS_Rank>
363                 

$$$$
untitled-dbase-210_0
  -OEChem-02082415003D

 25 27  0     0  0  0  0  0  0999 V2000
   12.0463   11.7754   23.6360 C   0  0  0  0  0  0  0  0  0  0  0  0
   11.1866   10.7668   23.2028 C   0  0  0  0  0  0  0  0  0  0  0  0
   11.5431   12.8931   24.3127 C   0  0  0  0  0  0  0  0  0  0  0  0
    9.3065   12.0105   24.1397 C   0  0  0  0  0  0  0  0  0  0  0  0
    9.8287   10.9072   23.4444 C   0  0  0  0  0  0  0  0  0  0  0  0
   10.1745   13.0110   24.5684 C   0  0  0  0  0  0  0  0  0  0  0  0
    5.8957   12.5323   25.0917 C   0  0  0  0  0  0  0  0  0  0  0  0
    7.1354   11.8598   25.7133 C   0  0  0  0  0  0  0  0  0  0  0  0
    6.8145   13.0353   23.9611 C   0  0  0  0  0  0  0  0  0  0  0  0
    7.5202   10.5440   23.4663 C   0  0  0  0  0  0  0  0  0  0  0  0
    7.7654   11.8475   24.2878 C   0  0  0  0  0  0  0  0  0  0  0  0
    8.8312    9.9838   23.1278 N   0  0  0  0  0  0  0  0  0  0  0  0
    9.7061   14.0767   25.2300 F   0  0  0  0  0  0  0  0  0  0  0  0
   13.1138   11.6924   23.4521 H   0  0  0  0  0  0  0  0  0  0  0  0
   11.5789    9.8965   22.6871 H   0  0  0  0  0  0  0  0  0  0  0  0
   12.2236   13.6711   24.6477 H   0  0  0  0  0  0  0  0  0  0  0  0
    5.1295   11.8240   24.7566 H   0  0  0  0  0  0  0  0  0  0  0  0
    5.4216   13.3076   25.6987 H   0  0  0  0  0  0  0  0  0  0  0  0
    7.6603   12.5001   26.4326 H   0  0  0  0  0  0  0  0  0  0  0  0
    6.9585   10.8874   26.1812 H   0  0  0  0  0  0  0  0  0  0  0  0
    6.3669   13.0465   22.9635 H   0  0  0  0  0  0  0  0  0  0  0  0
    7.2422   14.0255   24.1597 H   0  0  0  0  0  0  0  0  0  0  0  0
    6.9379    9.8081   24.0305 H   0  0  0  0  0  0  0  0  0  0  0  0
    6.9837   10.7659   22.5367 H   0  0  0  0  0  0  0  0  0  0  0  0
    8.9646    9.2433   22.4544 H   0  0  0  0  0  0  0  0  0  0  0  0
  1  2  2  0  0  0  0
  1  3  1  0  0  0  0
  2  5  1  0  0  0  0
  3  6  2  0  0  0  0
  4  5  2  0  0  0  0
  4  6  1  0  0  0  0
  4 11  1  0  0  0  0
  5 12  1  0  0  0  0
  6 13  1  0  0  0  0
  7  8  1  0  0  0  0
  7  9  1  0  0  0  0
  8 11  1  0  0  0  0
  9 11  1  0  0  0  0
 10 11  1  0  0  0  0
 10 12  1  0  0  0  0
  1 14  1  0  0  0  0
  2 15  1  0  0  0  0
  3 16  1  0  0  0  0
  7 17  1  0  0  0  0
  7 18  1  0  0  0  0
  8 19  1  0  0  0  0
  8 20  1  0  0  0  0
  9 21  1  0  0  0  0
  9 22  1  0  0  0  0
 10 23  1  0  0  0  0
 10 24  1  0  0  0  0
 12 25  1  0  0  0  0
M  END
> <Catalog ID>
Z1891777174

> <PlateID>
1337959-R-05

> <Well>
B08

> <MW (desalted)>
177.218

> <CLogP>
3.094

> <HBD>
1

> <TPSA>
12.030

> <RotBonds>
0

> <ROCS_ShapeQuery>
x0446_0A_x1080_0A_x0929_0A_x0812_0A_x0719_0A_x1140_0A_x0528_0A_x0310_0A

> <ROCS_TanimotoCombo>
0.300 

> <ROCS_ShapeTanimoto>
0.181 

> <ROCS_ColorTanimoto>
0.119 

> <ROCS_RefTversky>
0.169 

> <ROCS_RefColorTversky>
0.124 

> <ROCS_RefTverskyCombo>
0.292 

> <ROCS_FitTversky>
1.686 

> <ROCS_FitColorTversky>
0.773 

> <ROCS_FitTverskyCombo>
2.458 

> <ROCS_ColorScore>
-4.390

> <ROCS_Overlap>
1989.923

> <ROCS_Rank>
364                 

$$$$
untitled-dbase-123_7
  -OEChem-02082415003D

 31 32  0     1  0  0  0  0  0999 V2000
    7.3709   14.1114   21.9522 C   0  0  0  0  0  0  0  0  0  0  0  0
    7.9088   15.1674   21.1923 C   0  0  0  0  0  0  0  0  0  0  0  0
    8.4025   13.7150   22.7677 C   0  0  0  0  0  0  0  0  0  0  0  0
    8.4095   10.3028   24.1956 C   0  0  0  0  0  0  0  0  0  0  0  0
    9.8381   10.7329   23.9466 C   0  0  0  0  0  0  0  0  0  0  0  0
    8.4777   12.6322   23.8162 C   0  0  1  0  0  0  0  0  0  0  0  0
    7.6368   11.3960   23.4872 C   0  0  2  0  0  0  0  0  0  0  0  0
   11.3943   15.8974   23.1215 C   0  0  0  0  0  0  0  0  0  0  0  0
   11.6974   13.5080   22.3436 C   0  0  0  0  0  0  0  0  0  0  0  0
   10.7726   14.5013   23.0497 C   0  0  0  0  0  0  0  0  0  0  0  0
    9.1831   15.4256   21.4980 N   0  0  0  0  0  0  0  0  0  0  0  0
    9.4545   14.5263   22.4591 N   0  0  0  0  0  0  0  0  0  0  0  0
    6.2634   11.4929   23.9530 N   0  0  0  0  0  0  0  0  0  0  0  0
    9.8377   12.1676   23.9689 O   0  0  0  0  0  0  0  0  0  0  0  0
    6.3739   13.6975   21.9118 H   0  0  0  0  0  0  0  0  0  0  0  0
    7.4252   15.7593   20.4286 H   0  0  0  0  0  0  0  0  0  0  0  0
    8.1954    9.2978   23.8209 H   0  0  0  0  0  0  0  0  0  0  0  0
    8.2046   10.3172   25.2737 H   0  0  0  0  0  0  0  0  0  0  0  0
   10.5303   10.3530   24.7029 H   0  0  0  0  0  0  0  0  0  0  0  0
   10.1857   10.4112   22.9590 H   0  0  0  0  0  0  0  0  0  0  0  0
    8.1787   13.0668   24.8012 H   0  0  0  0  0  0  0  0  0  0  0  0
    7.6400   11.1959   22.4069 H   0  0  0  0  0  0  0  0  0  0  0  0
   11.5551   16.3248   22.1260 H   0  0  0  0  0  0  0  0  0  0  0  0
   12.3643   15.8607   23.6286 H   0  0  0  0  0  0  0  0  0  0  0  0
   10.7480   16.5843   23.6791 H   0  0  0  0  0  0  0  0  0  0  0  0
   11.8654   13.8035   21.3020 H   0  0  0  0  0  0  0  0  0  0  0  0
   11.2560   12.5056   22.3426 H   0  0  0  0  0  0  0  0  0  0  0  0
   12.6750   13.4408   22.8329 H   0  0  0  0  0  0  0  0  0  0  0  0
   10.6464   14.1493   24.0817 H   0  0  0  0  0  0  0  0  0  0  0  0
    6.1114   10.7917   24.6419 H   0  0  0  0  0  0  0  0  0  0  0  0
    6.1242   12.3971   24.3436 H   0  0  0  0  0  0  0  0  0  0  0  0
  1  2  1  0  0  0  0
  1  3  2  0  0  0  0
  2 11  2  0  0  0  0
  3  6  1  6  0  0  0
  3 12  1  0  0  0  0
  4  5  1  0  0  0  0
  4  7  1  0  0  0  0
  5 14  1  0  0  0  0
  6  7  1  0  0  0  0
  6 14  1  0  0  0  0
  7 13  1  1  0  0  0
  8 10  1  0  0  0  0
  9 10  1  0  0  0  0
 10 12  1  0  0  0  0
 11 12  1  0  0  0  0
  1 15  1  0  0  0  0
  2 16  1  0  0  0  0
  4 17  1  0  0  0  0
  4 18  1  0  0  0  0
  5 19  1  0  0  0  0
  5 20  1  0  0  0  0
  6 21  1  0  0  0  0
  7 22  1  0  0  0  0
  8 23  1  0  0  0  0
  8 24  1  0  0  0  0
  8 25  1  0  0  0  0
  9 26  1  0  0  0  0
  9 27  1  0  0  0  0
  9 28  1  0  0  0  0
 10 29  1  0  0  0  0
 13 30  1  0  0  0  0
 13 31  1  0  0  0  0
M  END
> <Catalog ID>
Z2311273895

> <PlateID>
1337959-R-03

> <Well>
D11

> <MW (desalted)>
195.261

> <CLogP>
-0.193

> <HBD>
1

> <TPSA>
53.070

> <RotBonds>
2

> <ROCS_ShapeQuery>
x0446_0A_x1080_0A_x0929_0A_x0812_0A_x0719_0A_x1140_0A_x0528_0A_x0310_0A

> <ROCS_TanimotoCombo>
0.300 

> <ROCS_ShapeTanimoto>
0.187 

> <ROCS_ColorTanimoto>
0.114 

> <ROCS_RefTversky>
0.173 

> <ROCS_RefColorTversky>
0.127 

> <ROCS_RefTverskyCombo>
0.300 

> <ROCS_FitTversky>
1.693 

> <ROCS_FitColorTversky>
0.531 

> <ROCS_FitTverskyCombo>
2.224 

> <ROCS_ColorScore>
-4.517

> <ROCS_Overlap>
2043.571

> <ROCS_Rank>
365                 

$$$$
untitled-dbase-588_0
  -OEChem-02082415003D

 26 27  0     0  0  0  0  0  0999 V2000
    8.4769   11.8891   24.7680 C   0  0  0  0  0  0  0  0  0  0  0  0
    8.9323   10.7206   22.7031 C   0  0  0  0  0  0  0  0  0  0  0  0
    9.2645   13.1099   22.8376 C   0  0  0  0  0  0  0  0  0  0  0  0
    8.5180   10.7032   24.0349 C   0  0  0  0  0  0  0  0  0  0  0  0
    8.8501   13.0925   24.1694 C   0  0  0  0  0  0  0  0  0  0  0  0
    9.3055   11.9240   22.1044 C   0  0  0  0  0  0  0  0  0  0  0  0
    9.6560   14.3694   22.2123 C   0  0  0  0  0  0  0  0  0  0  0  0
   13.3495   14.5912   22.4060 C   0  0  0  0  0  0  0  0  0  0  0  0
   12.9518   16.0329   22.1170 C   0  0  0  0  0  0  0  0  0  0  0  0
   12.0710   13.9978   22.9812 C   0  0  0  0  0  0  0  0  0  0  0  0
   11.5248   15.8931   21.6098 C   0  0  0  0  0  0  0  0  0  0  0  0
   10.9981   14.7270   22.3058 N   0  0  0  0  0  0  0  0  0  0  0  0
    8.8191   15.0497   21.6195 O   0  0  0  0  0  0  0  0  0  0  0  0
    8.1599    9.5478   24.6099 F   0  0  0  0  0  0  0  0  0  0  0  0
    8.8074   14.2260   24.8837 F   0  0  0  0  0  0  0  0  0  0  0  0
    9.7020   11.9284   20.8238 F   0  0  0  0  0  0  0  0  0  0  0  0
    8.1546   11.8750   25.8049 H   0  0  0  0  0  0  0  0  0  0  0  0
    8.9654    9.7967   22.1333 H   0  0  0  0  0  0  0  0  0  0  0  0
   13.6217   14.0795   21.4753 H   0  0  0  0  0  0  0  0  0  0  0  0
   14.1919   14.5238   23.0999 H   0  0  0  0  0  0  0  0  0  0  0  0
   12.9714   16.6232   23.0406 H   0  0  0  0  0  0  0  0  0  0  0  0
   13.6122   16.5076   21.3862 H   0  0  0  0  0  0  0  0  0  0  0  0
   11.9884   12.9215   22.8051 H   0  0  0  0  0  0  0  0  0  0  0  0
   11.9847   14.1942   24.0556 H   0  0  0  0  0  0  0  0  0  0  0  0
   10.9084   16.7750   21.8080 H   0  0  0  0  0  0  0  0  0  0  0  0
   11.4985   15.6788   20.5357 H   0  0  0  0  0  0  0  0  0  0  0  0
  1  4  2  0  0  0  0
  1  5  1  0  0  0  0
  2  4  1  0  0  0  0
  2  6  2  0  0  0  0
  3  5  2  0  0  0  0
  3  6  1  0  0  0  0
  3  7  1  0  0  0  0
  4 14  1  0  0  0  0
  5 15  1  0  0  0  0
  6 16  1  0  0  0  0
  7 12  1  0  0  0  0
  7 13  2  0  0  0  0
  8  9  1  0  0  0  0
  8 10  1  0  0  0  0
  9 11  1  0  0  0  0
 10 12  1  0  0  0  0
 11 12  1  0  0  0  0
  1 17  1  0  0  0  0
  2 18  1  0  0  0  0
  8 19  1  0  0  0  0
  8 20  1  0  0  0  0
  9 21  1  0  0  0  0
  9 22  1  0  0  0  0
 10 23  1  0  0  0  0
 10 24  1  0  0  0  0
 11 25  1  0  0  0  0
 11 26  1  0  0  0  0
M  END
> <Catalog ID>
Z1258715612

> <PlateID>
1337959-R-13

> <Well>
F10

> <MW (desalted)>
229.198

> <CLogP>
1.781

> <HBD>
0

> <TPSA>
20.310

> <RotBonds>
1

> <ROCS_ShapeQuery>
x0446_0A_x1080_0A_x0929_0A_x0812_0A_x0719_0A_x1140_0A_x0528_0A_x0310_0A

> <ROCS_TanimotoCombo>
0.300 

> <ROCS_ShapeTanimoto>
0.202 

> <ROCS_ColorTanimoto>
0.098 

> <ROCS_RefTversky>
0.187 

> <ROCS_RefColorTversky>
0.101 

> <ROCS_RefTverskyCombo>
0.288 

> <ROCS_FitTversky>
1.687 

> <ROCS_FitColorTversky>
0.763 

> <ROCS_FitTverskyCombo>
2.449 

> <ROCS_ColorScore>
-3.592

> <ROCS_Overlap>
2201.079

> <ROCS_Rank>
366                 

$$$$
untitled-dbase-394_39
  -OEChem-02082415003D

 27 28  0     0  0  0  0  0  0999 V2000
   12.4629   15.8651   21.9951 C   0  0  0  0  0  0  0  0  0  0  0  0
    9.2846   10.1709   23.4014 C   0  0  0  0  0  0  0  0  0  0  0  0
    9.1026   11.1357   22.4106 C   0  0  0  0  0  0  0  0  0  0  0  0
    9.0461   10.4904   24.7381 C   0  0  0  0  0  0  0  0  0  0  0  0
   14.1443   14.9178   20.3675 C   0  0  0  0  0  0  0  0  0  0  0  0
    8.4438   12.7394   24.0932 C   0  0  0  0  0  0  0  0  0  0  0  0
   14.2760   13.8776   19.4742 C   0  0  0  0  0  0  0  0  0  0  0  0
   12.8776   14.9060   21.0198 C   0  0  0  0  0  0  0  0  0  0  0  0
    8.6822   12.4200   22.7565 C   0  0  0  0  0  0  0  0  0  0  0  0
    8.6257   11.7746   25.0840 C   0  0  0  0  0  0  0  0  0  0  0  0
   12.0892   13.8572   20.5999 C   0  0  0  0  0  0  0  0  0  0  0  0
    9.7371   14.2760   21.3980 C   0  0  0  0  0  0  0  0  0  0  0  0
    8.4880   13.4506   21.6963 C   0  0  0  0  0  0  0  0  0  0  0  0
   12.1262   16.6437   22.7870 N   0  0  0  0  0  0  0  0  0  0  0  0
   10.7814   13.4611   20.9683 N   0  0  0  0  0  0  0  0  0  0  0  0
    9.7556   15.4945   21.5397 O   0  0  0  0  0  0  0  0  0  0  0  0
    8.3970   12.0816   26.3676 F   0  0  0  0  0  0  0  0  0  0  0  0
   12.8763   12.8924   19.4242 S   0  0  0  0  0  0  0  0  0  0  0  0
    9.6115    9.1708   23.1321 H   0  0  0  0  0  0  0  0  0  0  0  0
    9.2911   10.8777   21.3717 H   0  0  0  0  0  0  0  0  0  0  0  0
    9.1883    9.7394   25.5093 H   0  0  0  0  0  0  0  0  0  0  0  0
   14.9256   15.6478   20.5401 H   0  0  0  0  0  0  0  0  0  0  0  0
    8.1154   13.7369   24.3724 H   0  0  0  0  0  0  0  0  0  0  0  0
   15.1279   13.6491   18.8492 H   0  0  0  0  0  0  0  0  0  0  0  0
    8.1608   12.9763   20.7562 H   0  0  0  0  0  0  0  0  0  0  0  0
    7.6798   14.1442   21.9814 H   0  0  0  0  0  0  0  0  0  0  0  0
   10.5808   12.4647   20.9127 H   0  0  0  0  0  0  0  0  0  0  0  0
  1  8  1  0  0  0  0
  1 14  3  0  0  0  0
  2  3  2  0  0  0  0
  2  4  1  0  0  0  0
  3  9  1  0  0  0  0
  4 10  2  0  0  0  0
  5  7  2  0  0  0  0
  5  8  1  0  0  0  0
  6  9  2  0  0  0  0
  6 10  1  0  0  0  0
  7 18  1  0  0  0  0
  8 11  2  0  0  0  0
  9 13  1  0  0  0  0
 10 17  1  0  0  0  0
 11 15  1  0  0  0  0
 11 18  1  0  0  0  0
 12 13  1  0  0  0  0
 12 15  1  0  0  0  0
 12 16  2  0  0  0  0
  2 19  1  0  0  0  0
  3 20  1  0  0  0  0
  4 21  1  0  0  0  0
  5 22  1  0  0  0  0
  6 23  1  0  0  0  0
  7 24  1  0  0  0  0
 13 25  1  0  0  0  0
 13 26  1  0  0  0  0
 15 27  1  0  0  0  0
M  END
> <Catalog ID>
Z29080917

> <PlateID>
1337959-R-09

> <Well>
D08

> <MW (desalted)>
260.287

> <CLogP>
1.913

> <HBD>
1

> <TPSA>
52.890

> <RotBonds>
3

> <ROCS_ShapeQuery>
x0446_0A_x1080_0A_x0929_0A_x0812_0A_x0719_0A_x1140_0A_x0528_0A_x0310_0A

> <ROCS_TanimotoCombo>
0.300 

> <ROCS_ShapeTanimoto>
0.171 

> <ROCS_ColorTanimoto>
0.129 

> <ROCS_RefTversky>
0.163 

> <ROCS_RefColorTversky>
0.136 

> <ROCS_RefTverskyCombo>
0.298 

> <ROCS_FitTversky>
1.406 

> <ROCS_FitColorTversky>
0.732 

> <ROCS_FitTverskyCombo>
2.138 

> <ROCS_ColorScore>
-4.835

> <ROCS_Overlap>
1918.043

> <ROCS_Rank>
367                 

$$$$
untitled-dbase-450_0
  -OEChem-02082415003D

 31 32  0     0  0  0  0  0  0999 V2000
    9.6847   14.9212   21.7230 C   0  0  0  0  0  0  0  0  0  0  0  0
   10.7354   12.7457   21.7307 C   0  0  0  0  0  0  0  0  0  0  0  0
   13.2616   14.9301   22.1593 C   0  0  0  0  0  0  0  0  0  0  0  0
   12.5743   15.3206   23.4536 C   0  0  0  0  0  0  0  0  0  0  0  0
   12.1020   14.7726   21.1826 C   0  0  0  0  0  0  0  0  0  0  0  0
   11.3547   14.4064   23.4944 C   0  0  0  0  0  0  0  0  0  0  0  0
    9.4763   10.6769   22.2364 C   0  0  0  0  0  0  0  0  0  0  0  0
    8.7902   12.7511   23.3677 C   0  0  0  0  0  0  0  0  0  0  0  0
    9.3176    9.9562   23.5675 C   0  0  0  0  0  0  0  0  0  0  0  0
    8.6549   11.9421   24.6516 C   0  0  0  0  0  0  0  0  0  0  0  0
   10.9379   14.2109   22.0231 C   0  0  0  0  0  0  0  0  0  0  0  0
    8.6965   15.4813   21.4864 N   0  0  0  0  0  0  0  0  0  0  0  0
    9.7356   12.0999   22.4548 N   0  0  0  0  0  0  0  0  0  0  0  0
   11.4466   12.1926   20.8881 O   0  0  0  0  0  0  0  0  0  0  0  0
    8.3038   10.5882   24.3534 O   0  0  0  0  0  0  0  0  0  0  0  0
   13.9842   15.6809   21.8270 H   0  0  0  0  0  0  0  0  0  0  0  0
   13.7880   13.9758   22.2795 H   0  0  0  0  0  0  0  0  0  0  0  0
   13.2207   15.1884   24.3259 H   0  0  0  0  0  0  0  0  0  0  0  0
   12.2594   16.3702   23.4160 H   0  0  0  0  0  0  0  0  0  0  0  0
   11.8513   15.7575   20.7668 H   0  0  0  0  0  0  0  0  0  0  0  0
   12.3893   14.1321   20.3416 H   0  0  0  0  0  0  0  0  0  0  0  0
   11.6436   13.4541   23.9582 H   0  0  0  0  0  0  0  0  0  0  0  0
   10.5649   14.8403   24.1186 H   0  0  0  0  0  0  0  0  0  0  0  0
   10.2724   10.2157   21.6446 H   0  0  0  0  0  0  0  0  0  0  0  0
    8.5457   10.6160   21.6599 H   0  0  0  0  0  0  0  0  0  0  0  0
    7.8292   12.7859   22.8413 H   0  0  0  0  0  0  0  0  0  0  0  0
    9.0822   13.7757   23.6034 H   0  0  0  0  0  0  0  0  0  0  0  0
    9.0067    8.9208   23.3960 H   0  0  0  0  0  0  0  0  0  0  0  0
   10.2595    9.9326   24.1285 H   0  0  0  0  0  0  0  0  0  0  0  0
    9.5802   11.9627   25.2395 H   0  0  0  0  0  0  0  0  0  0  0  0
    7.8572   12.3614   25.2728 H   0  0  0  0  0  0  0  0  0  0  0  0
  1 11  1  0  0  0  0
  1 12  3  0  0  0  0
  2 11  1  0  0  0  0
  2 13  1  0  0  0  0
  2 14  2  0  0  0  0
  3  4  1  0  0  0  0
  3  5  1  0  0  0  0
  4  6  1  0  0  0  0
  5 11  1  0  0  0  0
  6 11  1  0  0  0  0
  7  9  1  0  0  0  0
  7 13  1  0  0  0  0
  8 10  1  0  0  0  0
  8 13  1  0  0  0  0
  9 15  1  0  0  0  0
 10 15  1  0  0  0  0
  3 16  1  0  0  0  0
  3 17  1  0  0  0  0
  4 18  1  0  0  0  0
  4 19  1  0  0  0  0
  5 20  1  0  0  0  0
  5 21  1  0  0  0  0
  6 22  1  0  0  0  0
  6 23  1  0  0  0  0
  7 24  1  0  0  0  0
  7 25  1  0  0  0  0
  8 26  1  0  0  0  0
  8 27  1  0  0  0  0
  9 28  1  0  0  0  0
  9 29  1  0  0  0  0
 10 30  1  0  0  0  0
 10 31  1  0  0  0  0
M  END
> <Catalog ID>
Z131166820

> <PlateID>
1337959-R-10

> <Well>
G02

> <MW (desalted)>
208.257

> <CLogP>
0.500

> <HBD>
0

> <TPSA>
53.330

> <RotBonds>
1

> <ROCS_ShapeQuery>
x0446_0A_x1080_0A_x0929_0A_x0812_0A_x0719_0A_x1140_0A_x0528_0A_x0310_0A

> <ROCS_TanimotoCombo>
0.300 

> <ROCS_ShapeTanimoto>
0.187 

> <ROCS_ColorTanimoto>
0.113 

> <ROCS_RefTversky>
0.174 

> <ROCS_RefColorTversky>
0.120 

> <ROCS_RefTverskyCombo>
0.294 

> <ROCS_FitTversky>
1.649 

> <ROCS_FitColorTversky>
0.648 

> <ROCS_FitTverskyCombo>
2.297 

> <ROCS_ColorScore>
-4.283

> <ROCS_Overlap>
2051.420

> <ROCS_Rank>
368                 

$$$$
untitled-dbase-391_6
  -OEChem-02082415003D

 28 29  0     1  0  0  0  0  0999 V2000
    8.1873   10.4508   25.1573 C   0  0  0  0  0  0  0  0  0  0  0  0
    8.2125   11.8115   24.8520 C   0  0  0  0  0  0  0  0  0  0  0  0
    8.8433    9.5383   24.3311 C   0  0  0  0  0  0  0  0  0  0  0  0
    8.8937   12.2599   23.7204 C   0  0  0  0  0  0  0  0  0  0  0  0
    9.5245    9.9866   23.1994 C   0  0  0  0  0  0  0  0  0  0  0  0
    9.5497   11.3474   22.8940 C   0  0  0  0  0  0  0  0  0  0  0  0
    8.9185   13.6961   23.4015 C   0  0  0  0  0  0  0  0  0  0  0  0
    5.4182   14.9036   23.2877 C   0  0  0  0  0  0  0  0  0  0  0  0
    6.3737   13.7189   23.2201 C   0  0  0  0  0  0  0  0  0  0  0  0
    7.6188   15.7625   22.9532 C   0  0  0  0  0  0  0  0  0  0  0  0
    6.1665   16.0226   22.5579 C   0  0  1  0  0  0  0  0  0  0  0  0
    7.7026   14.3254   23.1825 N   0  0  0  0  0  0  0  0  0  0  0  0
    6.0046   15.9039   21.1105 N   0  0  0  0  0  0  0  0  0  0  0  0
   10.0171   14.2463   23.3599 O   0  0  0  0  0  0  0  0  0  0  0  0
   10.1535    9.1100   22.4057 F   0  0  0  0  0  0  0  0  0  0  0  0
   10.2074   11.7671   21.8040 F   0  0  0  0  0  0  0  0  0  0  0  0
    7.6576   10.1016   26.0389 H   0  0  0  0  0  0  0  0  0  0  0  0
    7.6984   12.5134   25.5036 H   0  0  0  0  0  0  0  0  0  0  0  0
    8.8239    8.4789   24.5691 H   0  0  0  0  0  0  0  0  0  0  0  0
    4.4781   14.6516   22.7705 H   0  0  0  0  0  0  0  0  0  0  0  0
    5.1657   15.1763   24.3227 H   0  0  0  0  0  0  0  0  0  0  0  0
    6.3115   13.1018   24.1231 H   0  0  0  0  0  0  0  0  0  0  0  0
    6.2031   13.0890   22.3425 H   0  0  0  0  0  0  0  0  0  0  0  0
    8.3251   16.0027   22.1446 H   0  0  0  0  0  0  0  0  0  0  0  0
    7.9279   16.3178   23.8492 H   0  0  0  0  0  0  0  0  0  0  0  0
    5.8437   16.9813   22.8881 H   0  0  0  0  0  0  0  0  0  0  0  0
    6.8958   15.7303   20.7035 H   0  0  0  0  0  0  0  0  0  0  0  0
    5.3857   15.1482   20.9208 H   0  0  0  0  0  0  0  0  0  0  0  0
  1  2  1  0  0  0  0
  1  3  2  0  0  0  0
  2  4  2  0  0  0  0
  3  5  1  0  0  0  0
  4  6  1  0  0  0  0
  4  7  1  0  0  0  0
  5  6  2  0  0  0  0
  5 15  1  0  0  0  0
  6 16  1  0  0  0  0
  7 12  1  0  0  0  0
  7 14  2  0  0  0  0
  8  9  1  0  0  0  0
  8 11  1  0  0  0  0
  9 12  1  0  0  0  0
 10 11  1  0  0  0  0
 10 12  1  0  0  0  0
 11 13  1  1  0  0  0
  1 17  1  0  0  0  0
  2 18  1  0  0  0  0
  3 19  1  0  0  0  0
  8 20  1  0  0  0  0
  8 21  1  0  0  0  0
  9 22  1  0  0  0  0
  9 23  1  0  0  0  0
 10 24  1  0  0  0  0
 10 25  1  0  0  0  0
 11 26  1  0  0  0  0
 13 27  1  0  0  0  0
 13 28  1  0  0  0  0
M  END
> <Catalog ID>
Z1460653484

> <PlateID>
1337959-R-09

> <Well>
D05

> <MW (desalted)>
226.223

> <CLogP>
0.575

> <HBD>
1

> <TPSA>
46.330

> <RotBonds>
1

> <ROCS_ShapeQuery>
x0446_0A_x1080_0A_x0929_0A_x0812_0A_x0719_0A_x1140_0A_x0528_0A_x0310_0A

> <ROCS_TanimotoCombo>
0.300 

> <ROCS_ShapeTanimoto>
0.207 

> <ROCS_ColorTanimoto>
0.092 

> <ROCS_RefTversky>
0.190 

> <ROCS_RefColorTversky>
0.100 

> <ROCS_RefTverskyCombo>
0.291 

> <ROCS_FitTversky>
1.728 

> <ROCS_FitColorTversky>
0.540 

> <ROCS_FitTverskyCombo>
2.269 

> <ROCS_ColorScore>
-3.571

> <ROCS_Overlap>
2247.204

> <ROCS_Rank>
369                 

$$$$
untitled-dbase-262_2
  -OEChem-02082415003D

 29 30  0     0  0  0  0  0  0999 V2000
    7.3082   11.4040   26.1649 C   0  0  0  0  0  0  0  0  0  0  0  0
    6.5829   11.4807   23.7725 C   0  0  0  0  0  0  0  0  0  0  0  0
   10.2391   10.7230   22.6295 C   0  0  0  0  0  0  0  0  0  0  0  0
    8.6831   10.2035   24.4411 C   0  0  0  0  0  0  0  0  0  0  0  0
    6.2170   12.4293   26.4576 C   0  0  0  0  0  0  0  0  0  0  0  0
    5.5166   12.4860   24.2026 C   0  0  0  0  0  0  0  0  0  0  0  0
   10.0326   12.2261   22.6806 C   0  0  0  0  0  0  0  0  0  0  0  0
    8.6357   12.8051   24.5191 C   0  0  0  0  0  0  0  0  0  0  0  0
    7.8318   11.4799   24.6996 C   0  0  0  0  0  0  0  0  0  0  0  0
    9.0554    9.9751   23.0424 N   0  0  0  0  0  0  0  0  0  0  0  0
    5.1262   12.2676   25.5552 O   0  0  0  0  0  0  0  0  0  0  0  0
    9.9660   12.6537   24.0341 O   0  0  0  0  0  0  0  0  0  0  0  0
    8.1244   11.5111   26.8912 H   0  0  0  0  0  0  0  0  0  0  0  0
    6.8789   10.4040   26.3293 H   0  0  0  0  0  0  0  0  0  0  0  0
    6.1274   10.4808   23.8000 H   0  0  0  0  0  0  0  0  0  0  0  0
    6.8739   11.6691   22.7317 H   0  0  0  0  0  0  0  0  0  0  0  0
   10.5766   10.4117   21.6340 H   0  0  0  0  0  0  0  0  0  0  0  0
   11.0661   10.4756   23.3052 H   0  0  0  0  0  0  0  0  0  0  0  0
    9.6146   10.2881   25.0115 H   0  0  0  0  0  0  0  0  0  0  0  0
    8.1740    9.3213   24.8441 H   0  0  0  0  0  0  0  0  0  0  0  0
    5.8323   12.2747   27.4705 H   0  0  0  0  0  0  0  0  0  0  0  0
    6.5923   13.4568   26.4063 H   0  0  0  0  0  0  0  0  0  0  0  0
    5.8513   13.5210   24.0798 H   0  0  0  0  0  0  0  0  0  0  0  0
    4.6260   12.3618   23.5783 H   0  0  0  0  0  0  0  0  0  0  0  0
   10.8687   12.7259   22.2371 H   0  0  0  0  0  0  0  0  0  0  0  0
    9.1268   12.4965   22.1820 H   0  0  0  0  0  0  0  0  0  0  0  0
    8.0716   13.5389   23.8923 H   0  0  0  0  0  0  0  0  0  0  0  0
    8.7387   13.3246   25.4956 H   0  0  0  0  0  0  0  0  0  0  0  0
    8.2663   10.2880   22.4590 H   0  0  0  0  0  0  0  0  0  0  0  0
  1  5  1  0  0  0  0
  1  9  1  0  0  0  0
  2  6  1  0  0  0  0
  2  9  1  0  0  0  0
  3  7  1  0  0  0  0
  3 10  1  0  0  0  0
  4  9  1  0  0  0  0
  4 10  1  0  0  0  0
  5 11  1  0  0  0  0
  6 11  1  0  0  0  0
  7 12  1  0  0  0  0
  8  9  1  0  0  0  0
  8 12  1  0  0  0  0
  1 13  1  0  0  0  0
  1 14  1  0  0  0  0
  2 15  1  0  0  0  0
  2 16  1  0  0  0  0
  3 17  1  0  0  0  0
  3 18  1  0  0  0  0
  4 19  1  0  0  0  0
  4 20  1  0  0  0  0
  5 21  1  0  0  0  0
  5 22  1  0  0  0  0
  6 23  1  0  0  0  0
  6 24  1  0  0  0  0
  7 25  1  0  0  0  0
  7 26  1  0  0  0  0
  8 27  1  0  0  0  0
  8 28  1  0  0  0  0
 10 29  1  0  0  0  0
M  END
> <Catalog ID>
Z1650031924

> <PlateID>
1337959-R-06

> <Well>
D05

> <MW (desalted)>
171.237

> <CLogP>
-0.433

> <HBD>
1

> <TPSA>
30.490

> <RotBonds>
0

> <ROCS_ShapeQuery>
x0446_0A_x1080_0A_x0929_0A_x0812_0A_x0719_0A_x1140_0A_x0528_0A_x0310_0A

> <ROCS_TanimotoCombo>
0.299 

> <ROCS_ShapeTanimoto>
0.167 

> <ROCS_ColorTanimoto>
0.132 

> <ROCS_RefTversky>
0.157 

> <ROCS_RefColorTversky>
0.142 

> <ROCS_RefTverskyCombo>
0.298 

> <ROCS_FitTversky>
1.670 

> <ROCS_FitColorTversky>
0.668 

> <ROCS_FitTverskyCombo>
2.338 

> <ROCS_ColorScore>
-5.051

> <ROCS_Overlap>
1845.518

> <ROCS_Rank>
370                 

$$$$
untitled-dbase-416_0
  -OEChem-02082415003D

 18 19  0     0  0  0  0  0  0999 V2000
    9.5153   12.7823   23.2316 C   0  0  0  0  0  0  0  0  0  0  0  0
   10.1282   10.6307   22.5910 C   0  0  0  0  0  0  0  0  0  0  0  0
    6.6139   12.6926   24.5217 C   0  0  0  0  0  0  0  0  0  0  0  0
    6.9051   12.1474   23.1094 C   0  0  0  0  0  0  0  0  0  0  0  0
    7.7740   11.8201   25.0409 C   0  0  0  0  0  0  0  0  0  0  0  0
    8.3299   11.8136   23.6009 C   0  0  0  0  0  0  0  0  0  0  0  0
   10.4834   11.9795   22.6597 N   0  0  0  0  0  0  0  0  0  0  0  0
    8.8449   10.5071   23.1476 N   0  0  0  0  0  0  0  0  0  0  0  0
    9.6033   13.9928   23.3973 O   0  0  0  0  0  0  0  0  0  0  0  0
   10.8078    9.7228   22.1312 O   0  0  0  0  0  0  0  0  0  0  0  0
    6.7943   13.7689   24.6229 H   0  0  0  0  0  0  0  0  0  0  0  0
    5.6262   12.4580   24.9263 H   0  0  0  0  0  0  0  0  0  0  0  0
    6.2988   11.2742   22.8412 H   0  0  0  0  0  0  0  0  0  0  0  0
    6.8336   12.8853   22.3055 H   0  0  0  0  0  0  0  0  0  0  0  0
    8.4049   12.2935   25.7985 H   0  0  0  0  0  0  0  0  0  0  0  0
    7.4550   10.8387   25.4112 H   0  0  0  0  0  0  0  0  0  0  0  0
   11.3700   12.3367   22.3212 H   0  0  0  0  0  0  0  0  0  0  0  0
    8.3603    9.6187   23.2134 H   0  0  0  0  0  0  0  0  0  0  0  0
  1  6  1  0  0  0  0
  1  7  1  0  0  0  0
  1  9  2  0  0  0  0
  2  7  1  0  0  0  0
  2  8  1  0  0  0  0
  2 10  2  0  0  0  0
  3  4  1  0  0  0  0
  3  5  1  0  0  0  0
  4  6  1  0  0  0  0
  5  6  1  0  0  0  0
  6  8  1  0  0  0  0
  3 11  1  0  0  0  0
  3 12  1  0  0  0  0
  4 13  1  0  0  0  0
  4 14  1  0  0  0  0
  5 15  1  0  0  0  0
  5 16  1  0  0  0  0
  7 17  1  0  0  0  0
  8 18  1  0  0  0  0
M  END
> <Catalog ID>
Z364003304

> <PlateID>
1337959-R-09

> <Well>
H02

> <MW (desalted)>
140.140

> <CLogP>
-0.818

> <HBD>
2

> <TPSA>
58.200

> <RotBonds>
0

> <ROCS_ShapeQuery>
x0446_0A_x1080_0A_x0929_0A_x0812_0A_x0719_0A_x1140_0A_x0528_0A_x0310_0A

> <ROCS_TanimotoCombo>
0.299 

> <ROCS_ShapeTanimoto>
0.166 

> <ROCS_ColorTanimoto>
0.134 

> <ROCS_RefTversky>
0.155 

> <ROCS_RefColorTversky>
0.143 

> <ROCS_RefTverskyCombo>
0.298 

> <ROCS_FitTversky>
1.749 

> <ROCS_FitColorTversky>
0.672 

> <ROCS_FitTverskyCombo>
2.421 

> <ROCS_ColorScore>
-5.090

> <ROCS_Overlap>
1825.895

> <ROCS_Rank>
371                 

$$$$
untitled-dbase-396_4
  -OEChem-02082415003D

 27 28  0     0  0  0  0  0  0999 V2000
    7.9563   10.0611   23.9640 C   0  0  0  0  0  0  0  0  0  0  0  0
    7.2969   11.2734   24.1668 C   0  0  0  0  0  0  0  0  0  0  0  0
    9.3034   10.0519   23.6021 C   0  0  0  0  0  0  0  0  0  0  0  0
    7.9845   12.4765   24.0076 C   0  0  0  0  0  0  0  0  0  0  0  0
    9.9910   11.2550   23.4429 C   0  0  0  0  0  0  0  0  0  0  0  0
    9.3316   12.4674   23.6456 C   0  0  0  0  0  0  0  0  0  0  0  0
    9.1988   15.0276   23.7350 C   0  0  0  0  0  0  0  0  0  0  0  0
   10.7717   14.0054   22.1019 C   0  0  0  0  0  0  0  0  0  0  0  0
    8.2668   15.3136   22.5640 C   0  0  0  0  0  0  0  0  0  0  0  0
    9.7850   14.3871   21.0005 C   0  0  0  0  0  0  0  0  0  0  0  0
   10.0864   13.7868   23.4706 C   0  0  0  0  0  0  0  0  0  0  0  0
    9.0209   15.5323   21.3731 O   0  0  0  0  0  0  0  0  0  0  0  0
   11.1498   13.7591   24.4370 O   0  0  0  0  0  0  0  0  0  0  0  0
    7.4211    9.1244   24.0893 H   0  0  0  0  0  0  0  0  0  0  0  0
    6.2482   11.2808   24.4496 H   0  0  0  0  0  0  0  0  0  0  0  0
    9.8174    9.1083   23.4452 H   0  0  0  0  0  0  0  0  0  0  0  0
    7.4625   13.4163   24.1675 H   0  0  0  0  0  0  0  0  0  0  0  0
   11.0404   11.2382   23.1606 H   0  0  0  0  0  0  0  0  0  0  0  0
    9.8212   15.9098   23.9235 H   0  0  0  0  0  0  0  0  0  0  0  0
    8.5904   14.8506   24.6311 H   0  0  0  0  0  0  0  0  0  0  0  0
   11.2909   13.0795   21.8024 H   0  0  0  0  0  0  0  0  0  0  0  0
   11.5384   14.7927   22.1803 H   0  0  0  0  0  0  0  0  0  0  0  0
    7.6178   14.4526   22.3904 H   0  0  0  0  0  0  0  0  0  0  0  0
    7.6255   16.1775   22.7548 H   0  0  0  0  0  0  0  0  0  0  0  0
   10.2891   14.5749   20.0430 H   0  0  0  0  0  0  0  0  0  0  0  0
    9.0822   13.5612   20.8348 H   0  0  0  0  0  0  0  0  0  0  0  0
   11.6389   14.5917   24.3380 H   0  0  0  0  0  0  0  0  0  0  0  0
  1  2  2  0  0  0  0
  1  3  1  0  0  0  0
  2  4  1  0  0  0  0
  3  5  2  0  0  0  0
  4  6  2  0  0  0  0
  5  6  1  0  0  0  0
  6 11  1  0  0  0  0
  7  9  1  0  0  0  0
  7 11  1  0  0  0  0
  8 10  1  0  0  0  0
  8 11  1  0  0  0  0
  9 12  1  0  0  0  0
 10 12  1  0  0  0  0
 11 13  1  0  0  0  0
  1 14  1  0  0  0  0
  2 15  1  0  0  0  0
  3 16  1  0  0  0  0
  4 17  1  0  0  0  0
  5 18  1  0  0  0  0
  7 19  1  0  0  0  0
  7 20  1  0  0  0  0
  8 21  1  0  0  0  0
  8 22  1  0  0  0  0
  9 23  1  0  0  0  0
  9 24  1  0  0  0  0
 10 25  1  0  0  0  0
 10 26  1  0  0  0  0
 13 27  1  0  0  0  0
M  END
> <Catalog ID>
Z1098923764

> <PlateID>
1337959-R-09

> <Well>
D11

> <MW (desalted)>
178.228

> <CLogP>
0.726

> <HBD>
1

> <TPSA>
29.460

> <RotBonds>
1

> <ROCS_ShapeQuery>
x0446_0A_x1080_0A_x0929_0A_x0812_0A_x0719_0A_x1140_0A_x0528_0A_x0310_0A

> <ROCS_TanimotoCombo>
0.299 

> <ROCS_ShapeTanimoto>
0.184 

> <ROCS_ColorTanimoto>
0.115 

> <ROCS_RefTversky>
0.171 

> <ROCS_RefColorTversky>
0.122 

> <ROCS_RefTverskyCombo>
0.293 

> <ROCS_FitTversky>
1.737 

> <ROCS_FitColorTversky>
0.658 

> <ROCS_FitTverskyCombo>
2.395 

> <ROCS_ColorScore>
-4.349

> <ROCS_Overlap>
2016.185

> <ROCS_Rank>
372                 

$$$$
untitled-dbase-10_4
  -OEChem-02082415003D

 32 33  0     1  0  0  0  0  0999 V2000
    6.1839   13.1997   22.2905 C   0  0  0  0  0  0  0  0  0  0  0  0
    7.6261   12.7104   22.3383 C   0  0  0  0  0  0  0  0  0  0  0  0
    7.8783   10.7352   23.9853 C   0  0  0  0  0  0  0  0  0  0  0  0
   10.2202   10.3918   23.7927 C   0  0  0  0  0  0  0  0  0  0  0  0
    5.9751   14.3545   23.2667 C   0  0  0  0  0  0  0  0  0  0  0  0
    7.1357   12.9735   24.8049 C   0  0  0  0  0  0  0  0  0  0  0  0
    8.0266   12.2539   23.7621 C   0  0  2  0  0  0  0  0  0  0  0  0
   10.4583   11.8908   23.5456 C   0  0  0  0  0  0  0  0  0  0  0  0
   10.7393   12.2000   22.0683 C   0  0  0  0  0  0  0  0  0  0  0  0
   11.6895   12.3347   24.3534 C   0  0  0  0  0  0  0  0  0  0  0  0
    8.9124    9.9572   23.3039 N   0  0  0  0  0  0  0  0  0  0  0  0
    6.8640   14.3091   24.3840 O   0  0  0  0  0  0  0  0  0  0  0  0
    9.3718   12.6783   24.0573 O   0  0  0  0  0  0  0  0  0  0  0  0
    5.9538   13.5440   21.2754 H   0  0  0  0  0  0  0  0  0  0  0  0
    5.4948   12.3815   22.5229 H   0  0  0  0  0  0  0  0  0  0  0  0
    7.7473   11.8789   21.6315 H   0  0  0  0  0  0  0  0  0  0  0  0
    8.2824   13.5233   22.0021 H   0  0  0  0  0  0  0  0  0  0  0  0
    7.9060   10.5023   25.0626 H   0  0  0  0  0  0  0  0  0  0  0  0
    6.8899   10.3895   23.6351 H   0  0  0  0  0  0  0  0  0  0  0  0
   10.9981    9.7866   23.2996 H   0  0  0  0  0  0  0  0  0  0  0  0
   10.2981   10.1634   24.8665 H   0  0  0  0  0  0  0  0  0  0  0  0
    6.1409   15.3136   22.7478 H   0  0  0  0  0  0  0  0  0  0  0  0
    4.9329   14.3773   23.6346 H   0  0  0  0  0  0  0  0  0  0  0  0
    6.1906   12.4410   24.9437 H   0  0  0  0  0  0  0  0  0  0  0  0
    7.6053   13.0377   25.7800 H   0  0  0  0  0  0  0  0  0  0  0  0
   10.8992   13.2664   21.9508 H   0  0  0  0  0  0  0  0  0  0  0  0
    9.8890   11.8894   21.4706 H   0  0  0  0  0  0  0  0  0  0  0  0
   11.6256   11.6599   21.7528 H   0  0  0  0  0  0  0  0  0  0  0  0
   11.8683   13.3930   24.1871 H   0  0  0  0  0  0  0  0  0  0  0  0
   12.5568   11.7653   24.0320 H   0  0  0  0  0  0  0  0  0  0  0  0
   11.5109   12.1585   25.4102 H   0  0  0  0  0  0  0  0  0  0  0  0
    8.7798    8.9636   23.4877 H   0  0  0  0  0  0  0  0  0  0  0  0
  1  2  1  0  0  0  0
  1  5  1  0  0  0  0
  2  7  1  0  0  0  0
  3  7  1  0  0  0  0
  3 11  1  0  0  0  0
  4  8  1  0  0  0  0
  4 11  1  0  0  0  0
  5 12  1  0  0  0  0
  6  7  1  0  0  0  0
  6 12  1  0  0  0  0
  7 13  1  0  0  0  0
  8  9  1  0  0  0  0
  8 10  1  0  0  0  0
  8 13  1  0  0  0  0
  1 14  1  0  0  0  0
  1 15  1  0  0  0  0
  2 16  1  0  0  0  0
  2 17  1  0  0  0  0
  3 18  1  0  0  0  0
  3 19  1  0  0  0  0
  4 20  1  0  0  0  0
  4 21  1  0  0  0  0
  5 22  1  0  0  0  0
  5 23  1  0  0  0  0
  6 24  1  0  0  0  0
  6 25  1  0  0  0  0
  9 26  1  0  0  0  0
  9 27  1  0  0  0  0
  9 28  1  0  0  0  0
 10 29  1  0  0  0  0
 10 30  1  0  0  0  0
 10 31  1  0  0  0  0
 11 32  1  0  0  0  0
M  END
> <Catalog ID>
Z1258763416

> <PlateID>
1337959-R-01

> <Well>
B07

> <MW (desalted)>
185.263

> <CLogP>
0.747

> <HBD>
1

> <TPSA>
30.490

> <RotBonds>
0

> <ROCS_ShapeQuery>
x0446_0A_x1080_0A_x0929_0A_x0812_0A_x0719_0A_x1140_0A_x0528_0A_x0310_0A

> <ROCS_TanimotoCombo>
0.299 

> <ROCS_ShapeTanimoto>
0.190 

> <ROCS_ColorTanimoto>
0.109 

> <ROCS_RefTversky>
0.175 

> <ROCS_RefColorTversky>
0.122 

> <ROCS_RefTverskyCombo>
0.297 

> <ROCS_FitTversky>
1.787 

> <ROCS_FitColorTversky>
0.512 

> <ROCS_FitTverskyCombo>
2.299 

> <ROCS_ColorScore>
-4.360

> <ROCS_Overlap>
2063.209

> <ROCS_Rank>
373                 

$$$$
untitled-dbase-470_0
  -OEChem-02082415003D

 37 38  0     0  0  0  0  0  0999 V2000
    9.3197   10.2428   23.9092 C   0  0  0  0  0  0  0  0  0  0  0  0
    9.4620   10.8602   22.6665 C   0  0  0  0  0  0  0  0  0  0  0  0
    8.8906   10.9832   25.0107 C   0  0  0  0  0  0  0  0  0  0  0  0
    9.1753   12.2180   22.5254 C   0  0  0  0  0  0  0  0  0  0  0  0
    8.6039   12.3409   24.8697 C   0  0  0  0  0  0  0  0  0  0  0  0
    8.7462   12.9584   23.6270 C   0  0  0  0  0  0  0  0  0  0  0  0
    9.2826   15.0635   22.3870 C   0  0  0  0  0  0  0  0  0  0  0  0
   12.7250   14.6210   21.2642 C   0  0  0  0  0  0  0  0  0  0  0  0
   12.5139   13.6128   23.4415 C   0  0  0  0  0  0  0  0  0  0  0  0
   11.5579   15.5599   21.5567 C   0  0  0  0  0  0  0  0  0  0  0  0
   11.3363   14.5240   23.7830 C   0  0  0  0  0  0  0  0  0  0  0  0
    8.6858   15.2881   24.7485 C   0  0  0  0  0  0  0  0  0  0  0  0
    6.9342   14.6162   23.1155 C   0  0  0  0  0  0  0  0  0  0  0  0
    8.4300   14.4556   23.4722 C   0  0  0  0  0  0  0  0  0  0  0  0
   13.4282   14.2547   22.4951 N   0  0  0  0  0  0  0  0  0  0  0  0
   10.6635   14.9966   22.5681 N   0  0  0  0  0  0  0  0  0  0  0  0
    8.7371   15.5779   21.4073 O   0  0  0  0  0  0  0  0  0  0  0  0
    9.5418    9.1853   24.0185 H   0  0  0  0  0  0  0  0  0  0  0  0
    9.7951   10.2837   21.8084 H   0  0  0  0  0  0  0  0  0  0  0  0
    8.7787   10.5026   25.9781 H   0  0  0  0  0  0  0  0  0  0  0  0
    9.2892   12.6907   21.5534 H   0  0  0  0  0  0  0  0  0  0  0  0
    8.2702   12.9098   25.7335 H   0  0  0  0  0  0  0  0  0  0  0  0
   12.3701   13.7211   20.7468 H   0  0  0  0  0  0  0  0  0  0  0  0
   13.4291   15.1217   20.5909 H   0  0  0  0  0  0  0  0  0  0  0  0
   13.0643   13.3789   24.3594 H   0  0  0  0  0  0  0  0  0  0  0  0
   12.1515   12.6616   23.0326 H   0  0  0  0  0  0  0  0  0  0  0  0
   11.9229   16.5178   21.9471 H   0  0  0  0  0  0  0  0  0  0  0  0
   11.0120   15.7721   20.6318 H   0  0  0  0  0  0  0  0  0  0  0  0
   10.6502   13.9919   24.4450 H   0  0  0  0  0  0  0  0  0  0  0  0
   11.6832   15.4142   24.3219 H   0  0  0  0  0  0  0  0  0  0  0  0
    8.4485   16.3483   24.5965 H   0  0  0  0  0  0  0  0  0  0  0  0
    9.7304   15.2202   25.0750 H   0  0  0  0  0  0  0  0  0  0  0  0
    8.0668   14.9359   25.5836 H   0  0  0  0  0  0  0  0  0  0  0  0
    6.6660   15.6729   22.9958 H   0  0  0  0  0  0  0  0  0  0  0  0
    6.6918   14.1047   22.1759 H   0  0  0  0  0  0  0  0  0  0  0  0
    6.2766   14.1978   23.8865 H   0  0  0  0  0  0  0  0  0  0  0  0
   14.1876   13.6122   22.2712 H   0  0  0  0  0  0  0  0  0  0  0  0
  1  2  2  0  0  0  0
  1  3  1  0  0  0  0
  2  4  1  0  0  0  0
  3  5  2  0  0  0  0
  4  6  2  0  0  0  0
  5  6  1  0  0  0  0
  6 14  1  0  0  0  0
  7 14  1  0  0  0  0
  7 16  1  0  0  0  0
  7 17  2  0  0  0  0
  8 10  1  0  0  0  0
  8 15  1  0  0  0  0
  9 11  1  0  0  0  0
  9 15  1  0  0  0  0
 10 16  1  0  0  0  0
 11 16  1  0  0  0  0
 12 14  1  0  0  0  0
 13 14  1  0  0  0  0
  1 18  1  0  0  0  0
  2 19  1  0  0  0  0
  3 20  1  0  0  0  0
  4 21  1  0  0  0  0
  5 22  1  0  0  0  0
  8 23  1  0  0  0  0
  8 24  1  0  0  0  0
  9 25  1  0  0  0  0
  9 26  1  0  0  0  0
 10 27  1  0  0  0  0
 10 28  1  0  0  0  0
 11 29  1  0  0  0  0
 11 30  1  0  0  0  0
 12 31  1  0  0  0  0
 12 32  1  0  0  0  0
 12 33  1  0  0  0  0
 13 34  1  0  0  0  0
 13 35  1  0  0  0  0
 13 36  1  0  0  0  0
 15 37  1  0  0  0  0
M  END
> <Catalog ID>
Z317046438

> <PlateID>
1337959-R-11

> <Well>
C04

> <MW (desalted)>
232.321

> <CLogP>
1.939

> <HBD>
1

> <TPSA>
32.340

> <RotBonds>
2

> <ROCS_ShapeQuery>
x0446_0A_x1080_0A_x0929_0A_x0812_0A_x0719_0A_x1140_0A_x0528_0A_x0310_0A

> <ROCS_TanimotoCombo>
0.299 

> <ROCS_ShapeTanimoto>
0.201 

> <ROCS_ColorTanimoto>
0.097 

> <ROCS_RefTversky>
0.187 

> <ROCS_RefColorTversky>
0.108 

> <ROCS_RefTverskyCombo>
0.294 

> <ROCS_FitTversky>
1.656 

> <ROCS_FitColorTversky>
0.507 

> <ROCS_FitTverskyCombo>
2.164 

> <ROCS_ColorScore>
-3.835

> <ROCS_Overlap>
2201.829

> <ROCS_Rank>
374                 

$$$$
untitled-dbase-464_8
  -OEChem-02082415003D

 29 30  0     0  0  0  0  0  0999 V2000
    6.3795   11.5886   25.0518 C   0  0  0  0  0  0  0  0  0  0  0  0
    9.3471    9.9508   23.5131 C   0  0  0  0  0  0  0  0  0  0  0  0
    8.1422   10.1274   24.1933 C   0  0  0  0  0  0  0  0  0  0  0  0
   10.0238   11.0550   22.9947 C   0  0  0  0  0  0  0  0  0  0  0  0
   13.5924   15.6077   22.0508 C   0  0  0  0  0  0  0  0  0  0  0  0
   14.0434   13.3218   21.4546 C   0  0  0  0  0  0  0  0  0  0  0  0
    8.2905   12.5124   23.8366 C   0  0  0  0  0  0  0  0  0  0  0  0
   14.8667   15.6614   22.5923 C   0  0  0  0  0  0  0  0  0  0  0  0
   15.2975   13.4778   22.0225 C   0  0  0  0  0  0  0  0  0  0  0  0
    7.6139   11.4082   24.3550 C   0  0  0  0  0  0  0  0  0  0  0  0
    9.4954   12.3357   23.1564 C   0  0  0  0  0  0  0  0  0  0  0  0
   13.1805   14.4120   21.4730 C   0  0  0  0  0  0  0  0  0  0  0  0
   10.2028   13.4862   22.6169 C   0  0  0  0  0  0  0  0  0  0  0  0
   11.8094   14.2982   20.8721 C   0  0  0  0  0  0  0  0  0  0  0  0
    5.3770   11.7351   25.6178 N   0  0  0  0  0  0  0  0  0  0  0  0
   15.7329   14.6235   22.5930 N   0  0  0  0  0  0  0  0  0  0  0  0
   11.0251   13.2631   21.5064 N   0  0  0  0  0  0  0  0  0  0  0  0
   10.0846   14.6053   23.1467 O   0  0  0  0  0  0  0  0  0  0  0  0
    9.7588    8.9539   23.3875 H   0  0  0  0  0  0  0  0  0  0  0  0
    7.6262    9.2569   24.5911 H   0  0  0  0  0  0  0  0  0  0  0  0
   10.9619   10.9054   22.4667 H   0  0  0  0  0  0  0  0  0  0  0  0
   12.9429   16.4760   22.0821 H   0  0  0  0  0  0  0  0  0  0  0  0
   13.7512   12.3762   21.0111 H   0  0  0  0  0  0  0  0  0  0  0  0
    7.8813   13.5132   23.9597 H   0  0  0  0  0  0  0  0  0  0  0  0
   15.2353   16.5706   23.0558 H   0  0  0  0  0  0  0  0  0  0  0  0
   16.0076   12.6575   22.0336 H   0  0  0  0  0  0  0  0  0  0  0  0
   11.2644   15.2432   20.9720 H   0  0  0  0  0  0  0  0  0  0  0  0
   11.8667   14.0672   19.8032 H   0  0  0  0  0  0  0  0  0  0  0  0
   11.1348   12.3185   21.1522 H   0  0  0  0  0  0  0  0  0  0  0  0
  1 10  1  0  0  0  0
  1 15  3  0  0  0  0
  2  3  2  0  0  0  0
  2  4  1  0  0  0  0
  3 10  1  0  0  0  0
  4 11  2  0  0  0  0
  5  8  1  0  0  0  0
  5 12  2  0  0  0  0
  6  9  2  0  0  0  0
  6 12  1  0  0  0  0
  7 10  2  0  0  0  0
  7 11  1  0  0  0  0
  8 16  2  0  0  0  0
  9 16  1  0  0  0  0
 11 13  1  0  0  0  0
 12 14  1  0  0  0  0
 13 17  1  0  0  0  0
 13 18  2  0  0  0  0
 14 17  1  0  0  0  0
  2 19  1  0  0  0  0
  3 20  1  0  0  0  0
  4 21  1  0  0  0  0
  5 22  1  0  0  0  0
  6 23  1  0  0  0  0
  7 24  1  0  0  0  0
  8 25  1  0  0  0  0
  9 26  1  0  0  0  0
 14 27  1  0  0  0  0
 14 28  1  0  0  0  0
 17 29  1  0  0  0  0
M  END
> <Catalog ID>
Z30167294

> <PlateID>
1337959-R-11

> <Well>
B02

> <MW (desalted)>
237.257

> <CLogP>
1.233

> <HBD>
1

> <TPSA>
65.780

> <RotBonds>
3

> <ROCS_ShapeQuery>
x0446_0A_x1080_0A_x0929_0A_x0812_0A_x0719_0A_x1140_0A_x0528_0A_x0310_0A

> <ROCS_TanimotoCombo>
0.299 

> <ROCS_ShapeTanimoto>
0.193 

> <ROCS_ColorTanimoto>
0.106 

> <ROCS_RefTversky>
0.181 

> <ROCS_RefColorTversky>
0.116 

> <ROCS_RefTverskyCombo>
0.297 

> <ROCS_FitTversky>
1.541 

> <ROCS_FitColorTversky>
0.548 

> <ROCS_FitTverskyCombo>
2.089 

> <ROCS_ColorScore>
-4.145

> <ROCS_Overlap>
2130.512

> <ROCS_Rank>
375                 

$$$$
untitled-dbase-532_2
  -OEChem-02082415003D

 25 25  0     0  0  0  0  0  0999 V2000
    8.6490   12.0710   23.4694 C   0  0  0  0  0  0  0  0  0  0  0  0
    7.7060   11.0513   23.6852 C   0  0  0  0  0  0  0  0  0  0  0  0
    9.8427   11.4860   23.8000 C   0  0  0  0  0  0  0  0  0  0  0  0
    6.2470   11.1059   23.4938 C   0  0  0  0  0  0  0  0  0  0  0  0
   11.2365   11.9494   23.8166 C   0  0  0  0  0  0  0  0  0  0  0  0
    7.8170   14.4040   25.5118 C   0  0  0  0  0  0  0  0  0  0  0  0
    6.5250   15.5723   23.7721 C   0  0  0  0  0  0  0  0  0  0  0  0
    8.2715    9.9204   24.1166 N   0  0  0  0  0  0  0  0  0  0  0  0
    7.3202   14.3653   24.1129 N   0  0  0  0  0  0  0  0  0  0  0  0
    9.6436   14.4190   22.9532 O   0  0  0  0  0  0  0  0  0  0  0  0
    7.6558   13.6345   21.6428 O   0  0  0  0  0  0  0  0  0  0  0  0
    9.6305   10.2025   24.1878 O   0  0  0  0  0  0  0  0  0  0  0  0
    8.3696   13.7256   22.9032 S   0  0  0  0  0  0  0  0  0  0  0  0
    5.9657   10.8078   22.4692 H   0  0  0  0  0  0  0  0  0  0  0  0
    5.7092   10.4405   24.1927 H   0  0  0  0  0  0  0  0  0  0  0  0
    5.8409   12.1184   23.6686 H   0  0  0  0  0  0  0  0  0  0  0  0
   11.5044   12.3903   24.7937 H   0  0  0  0  0  0  0  0  0  0  0  0
   11.9542   11.1320   23.6165 H   0  0  0  0  0  0  0  0  0  0  0  0
   11.4344   12.7161   23.0442 H   0  0  0  0  0  0  0  0  0  0  0  0
    8.3986   13.4939   25.7202 H   0  0  0  0  0  0  0  0  0  0  0  0
    8.4575   15.2877   25.6489 H   0  0  0  0  0  0  0  0  0  0  0  0
    6.9629   14.4595   26.2027 H   0  0  0  0  0  0  0  0  0  0  0  0
    6.1783   15.5017   22.7306 H   0  0  0  0  0  0  0  0  0  0  0  0
    5.6565   15.6408   24.4437 H   0  0  0  0  0  0  0  0  0  0  0  0
    7.1512   16.4690   23.8899 H   0  0  0  0  0  0  0  0  0  0  0  0
  1  2  1  0  0  0  0
  1  3  2  0  0  0  0
  1 13  1  0  0  0  0
  2  4  1  0  0  0  0
  2  8  2  0  0  0  0
  3  5  1  0  0  0  0
  3 12  1  0  0  0  0
  6  9  1  0  0  0  0
  7  9  1  0  0  0  0
  8 12  1  0  0  0  0
  9 13  1  0  0  0  0
 10 13  2  0  0  0  0
 11 13  2  0  0  0  0
  4 14  1  0  0  0  0
  4 15  1  0  0  0  0
  4 16  1  0  0  0  0
  5 17  1  0  0  0  0
  5 18  1  0  0  0  0
  5 19  1  0  0  0  0
  6 20  1  0  0  0  0
  6 21  1  0  0  0  0
  6 22  1  0  0  0  0
  7 23  1  0  0  0  0
  7 24  1  0  0  0  0
  7 25  1  0  0  0  0
M  END
> <Catalog ID>
Z45527644

> <PlateID>
1337959-R-12

> <Well>
E10

> <MW (desalted)>
204.247

> <CLogP>
0.130

> <HBD>
0

> <TPSA>
63.410

> <RotBonds>
1

> <ROCS_ShapeQuery>
x0446_0A_x1080_0A_x0929_0A_x0812_0A_x0719_0A_x1140_0A_x0528_0A_x0310_0A

> <ROCS_TanimotoCombo>
0.299 

> <ROCS_ShapeTanimoto>
0.179 

> <ROCS_ColorTanimoto>
0.120 

> <ROCS_RefTversky>
0.166 

> <ROCS_RefColorTversky>
0.124 

> <ROCS_RefTverskyCombo>
0.290 

> <ROCS_FitTversky>
1.731 

> <ROCS_FitColorTversky>
0.779 

> <ROCS_FitTverskyCombo>
2.510 

> <ROCS_ColorScore>
-4.410

> <ROCS_Overlap>
1961.213

> <ROCS_Rank>
376                 

$$$$
untitled-dbase-332_18
  -OEChem-02082415003D

 35 36  0     1  0  0  0  0  0999 V2000
   10.2320   10.3877   22.9691 C   0  0  0  0  0  0  0  0  0  0  0  0
   11.4665   10.7547   23.5046 C   0  0  0  0  0  0  0  0  0  0  0  0
    9.3335   11.3693   22.5510 C   0  0  0  0  0  0  0  0  0  0  0  0
   11.8025   12.1034   23.6221 C   0  0  0  0  0  0  0  0  0  0  0  0
    9.6695   12.7180   22.6685 C   0  0  0  0  0  0  0  0  0  0  0  0
   10.9040   13.0850   23.2040 C   0  0  0  0  0  0  0  0  0  0  0  0
    5.5673   13.5464   24.8055 C   0  0  0  0  0  0  0  0  0  0  0  0
    7.7552   12.3587   25.1284 C   0  0  0  0  0  0  0  0  0  0  0  0
    4.8829   12.3836   25.5218 C   0  0  0  0  0  0  0  0  0  0  0  0
    6.9910   11.2398   25.8338 C   0  0  0  0  0  0  0  0  0  0  0  0
    6.8619   13.0934   24.1275 C   0  0  0  0  0  0  0  0  0  0  0  0
    8.1310   15.1105   24.5730 C   0  0  0  0  0  0  0  0  0  0  0  0
    5.7811   11.7444   26.4840 N   0  0  0  0  0  0  0  0  0  0  0  0
    7.5590   14.2104   23.5406 N   0  0  1  0  0  0  0  0  0  0  0  0
    9.2275   15.1202   21.7725 O   0  0  0  0  0  0  0  0  0  0  0  0
    7.6575   13.2789   21.1178 O   0  0  0  0  0  0  0  0  0  0  0  0
    8.4899   13.9194   22.1194 S   0  0  0  0  0  0  0  0  0  0  0  0
   11.3687   14.7398   23.3715 Cl  0  0  0  0  0  0  0  0  0  0  0  0
    9.9708    9.3375   22.8769 H   0  0  0  0  0  0  0  0  0  0  0  0
   12.1662    9.9904   23.8296 H   0  0  0  0  0  0  0  0  0  0  0  0
    8.3753   11.0691   22.1351 H   0  0  0  0  0  0  0  0  0  0  0  0
   12.7689   12.3717   24.0416 H   0  0  0  0  0  0  0  0  0  0  0  0
    4.8896   13.9476   24.0459 H   0  0  0  0  0  0  0  0  0  0  0  0
    5.7676   14.3485   25.5199 H   0  0  0  0  0  0  0  0  0  0  0  0
    8.1545   13.0527   25.8707 H   0  0  0  0  0  0  0  0  0  0  0  0
    8.6052   11.9263   24.5933 H   0  0  0  0  0  0  0  0  0  0  0  0
    3.9693   12.7228   26.0254 H   0  0  0  0  0  0  0  0  0  0  0  0
    4.5759   11.6383   24.7793 H   0  0  0  0  0  0  0  0  0  0  0  0
    6.7038   10.4830   25.0956 H   0  0  0  0  0  0  0  0  0  0  0  0
    7.6325   10.7389   26.5686 H   0  0  0  0  0  0  0  0  0  0  0  0
    6.6011   12.3881   23.3043 H   0  0  0  0  0  0  0  0  0  0  0  0
    8.6523   15.9464   24.0835 H   0  0  0  0  0  0  0  0  0  0  0  0
    7.3215   15.5036   25.2058 H   0  0  0  0  0  0  0  0  0  0  0  0
    8.8430   14.5487   25.1954 H   0  0  0  0  0  0  0  0  0  0  0  0
    6.0424   12.4206   27.2008 H   0  0  0  0  0  0  0  0  0  0  0  0
  1  2  2  0  0  0  0
  1  3  1  0  0  0  0
  2  4  1  0  0  0  0
  3  5  2  0  0  0  0
  4  6  2  0  0  0  0
  5  6  1  0  0  0  0
  5 17  1  0  0  0  0
  6 18  1  0  0  0  0
  7  9  1  0  0  0  0
  7 11  1  0  0  0  0
  8 10  1  0  0  0  0
  8 11  1  0  0  0  0
  9 13  1  0  0  0  0
 10 13  1  0  0  0  0
 11 14  1  0  0  0  0
 12 14  1  0  0  0  0
 14 17  1  0  0  0  0
 15 17  2  0  0  0  0
 16 17  2  0  0  0  0
  1 19  1  0  0  0  0
  2 20  1  0  0  0  0
  3 21  1  0  0  0  0
  4 22  1  0  0  0  0
  7 23  1  0  0  0  0
  7 24  1  0  0  0  0
  8 25  1  0  0  0  0
  8 26  1  0  0  0  0
  9 27  1  0  0  0  0
  9 28  1  0  0  0  0
 10 29  1  0  0  0  0
 10 30  1  0  0  0  0
 11 31  1  0  0  0  0
 12 32  1  0  0  0  0
 12 33  1  0  0  0  0
 12 34  1  0  0  0  0
 13 35  1  0  0  0  0
M  END
> <Catalog ID>
Z1491244885

> <PlateID>
1337959-R-08

> <Well>
A08

> <MW (desalted)>
288.794

> <CLogP>
1.362

> <HBD>
1

> <TPSA>
49.410

> <RotBonds>
2

> <ROCS_ShapeQuery>
x0446_0A_x1080_0A_x0929_0A_x0812_0A_x0719_0A_x1140_0A_x0528_0A_x0310_0A

> <ROCS_TanimotoCombo>
0.299 

> <ROCS_ShapeTanimoto>
0.200 

> <ROCS_ColorTanimoto>
0.098 

> <ROCS_RefTversky>
0.186 

> <ROCS_RefColorTversky>
0.109 

> <ROCS_RefTverskyCombo>
0.294 

> <ROCS_FitTversky>
1.640 

> <ROCS_FitColorTversky>
0.512 

> <ROCS_FitTverskyCombo>
2.152 

> <ROCS_ColorScore>
-3.872

> <ROCS_Overlap>
2191.908

> <ROCS_Rank>
377                 

$$$$
untitled-dbase-672_14
  -OEChem-02082415003D

 22 23  0     0  0  0  0  0  0999 V2000
    9.7561   14.4915   22.4684 C   0  0  0  0  0  0  0  0  0  0  0  0
    9.6876   12.4274   23.2693 C   0  0  0  0  0  0  0  0  0  0  0  0
    9.5508   15.6996   21.6488 C   0  0  0  0  0  0  0  0  0  0  0  0
    9.1175   13.2001   22.1290 C   0  0  0  0  0  0  0  0  0  0  0  0
    7.9664   10.4383   23.2261 C   0  0  0  0  0  0  0  0  0  0  0  0
    9.2024   10.4710   24.9696 C   0  0  0  0  0  0  0  0  0  0  0  0
    9.4014   10.9380   23.5095 C   0  0  0  0  0  0  0  0  0  0  0  0
    7.6775   10.5317   24.7393 C   0  0  0  0  0  0  0  0  0  0  0  0
   10.4989   14.4689   23.5265 N   0  0  0  0  0  0  0  0  0  0  0  0
   10.4538   13.1346   24.0445 N   0  0  0  0  0  0  0  0  0  0  0  0
   10.3697   16.5849   21.5242 O   0  0  0  0  0  0  0  0  0  0  0  0
    8.3311   15.6481   21.0810 O   0  0  0  0  0  0  0  0  0  0  0  0
    6.9647    9.5107   25.2638 F   0  0  0  0  0  0  0  0  0  0  0  0
    7.0777   11.6754   25.1431 F   0  0  0  0  0  0  0  0  0  0  0  0
    8.0302   13.2559   22.1886 H   0  0  0  0  0  0  0  0  0  0  0  0
    9.4665   12.8131   21.1713 H   0  0  0  0  0  0  0  0  0  0  0  0
    7.3553   11.1186   22.6186 H   0  0  0  0  0  0  0  0  0  0  0  0
    7.8977    9.4315   22.8005 H   0  0  0  0  0  0  0  0  0  0  0  0
    9.5987    9.4764   25.2004 H   0  0  0  0  0  0  0  0  0  0  0  0
    9.5613   11.1770   25.7299 H   0  0  0  0  0  0  0  0  0  0  0  0
   10.1518   10.3268   22.9877 H   0  0  0  0  0  0  0  0  0  0  0  0
    8.1575   16.4381   20.5260 H   0  0  0  0  0  0  0  0  0  0  0  0
  1  3  1  0  0  0  0
  1  4  1  0  0  0  0
  1  9  2  0  0  0  0
  2  4  1  0  0  0  0
  2  7  1  0  0  0  0
  2 10  2  0  0  0  0
  3 11  2  0  0  0  0
  3 12  1  0  0  0  0
  5  7  1  0  0  0  0
  5  8  1  0  0  0  0
  6  7  1  0  0  0  0
  6  8  1  0  0  0  0
  8 13  1  0  0  0  0
  8 14  1  0  0  0  0
  9 10  1  0  0  0  0
  4 15  1  0  0  0  0
  4 16  1  0  0  0  0
  5 17  1  0  0  0  0
  5 18  1  0  0  0  0
  6 19  1  0  0  0  0
  6 20  1  0  0  0  0
  7 21  1  0  0  0  0
 12 22  1  0  0  0  0
M  END
> <Catalog ID>
Z3271471364

> <PlateID>
1337959-R-15

> <Well>
G03

> <MW (desalted)>
202.158

> <CLogP>
1.195

> <HBD>
2

> <TPSA>
65.980

> <RotBonds>
2

> <ROCS_ShapeQuery>
x0446_0A_x1080_0A_x0929_0A_x0812_0A_x0719_0A_x1140_0A_x0528_0A_x0310_0A

> <ROCS_TanimotoCombo>
0.299 

> <ROCS_ShapeTanimoto>
0.178 

> <ROCS_ColorTanimoto>
0.121 

> <ROCS_RefTversky>
0.167 

> <ROCS_RefColorTversky>
0.134 

> <ROCS_RefTverskyCombo>
0.301 

> <ROCS_FitTversky>
1.617 

> <ROCS_FitColorTversky>
0.547 

> <ROCS_FitTverskyCombo>
2.164 

> <ROCS_ColorScore>
-4.793

> <ROCS_Overlap>
1964.483

> <ROCS_Rank>
378                 

$$$$
untitled-dbase-249_2
  -OEChem-02082415003D

 21 21  0     1  0  0  0  0  0999 V2000
   10.3323   13.0070   23.5844 C   0  0  0  0  0  0  0  0  0  0  0  0
    9.7164   10.6884   24.2826 C   0  0  0  0  0  0  0  0  0  0  0  0
    7.5151   10.7265   23.5255 C   0  0  0  0  0  0  0  0  0  0  0  0
    9.2906   12.1565   24.2427 C   0  0  2  0  0  0  0  0  0  0  0  0
    7.9918   12.1683   23.4348 C   0  0  2  0  0  0  0  0  0  0  0  0
    6.9650   13.1618   23.9579 C   0  0  0  0  0  0  0  0  0  0  0  0
    8.7601    9.9567   23.4379 N   0  0  0  0  0  0  0  0  0  0  0  0
   10.6008   12.6483   22.2846 N   0  0  0  0  0  0  0  0  0  0  0  0
   10.8720   13.9452   24.1657 O   0  0  0  0  0  0  0  0  0  0  0  0
    5.8324   13.0823   23.2396 F   0  0  0  0  0  0  0  0  0  0  0  0
    6.6779   12.9005   25.2441 F   0  0  0  0  0  0  0  0  0  0  0  0
    7.4429   14.4145   23.8699 F   0  0  0  0  0  0  0  0  0  0  0  0
   10.7430   10.5163   23.9426 H   0  0  0  0  0  0  0  0  0  0  0  0
    9.6423   10.3071   25.3079 H   0  0  0  0  0  0  0  0  0  0  0  0
    7.0130   10.5162   24.4774 H   0  0  0  0  0  0  0  0  0  0  0  0
    6.8285   10.4673   22.7136 H   0  0  0  0  0  0  0  0  0  0  0  0
    9.1412   12.5328   25.2614 H   0  0  0  0  0  0  0  0  0  0  0  0
    8.2006   12.4136   22.3832 H   0  0  0  0  0  0  0  0  0  0  0  0
    9.0928    9.9954   22.4734 H   0  0  0  0  0  0  0  0  0  0  0  0
   10.0958   11.8662   21.8810 H   0  0  0  0  0  0  0  0  0  0  0  0
   11.2839   13.1343   21.7126 H   0  0  0  0  0  0  0  0  0  0  0  0
  1  4  1  6  0  0  0
  1  8  1  0  0  0  0
  1  9  2  0  0  0  0
  2  4  1  0  0  0  0
  2  7  1  0  0  0  0
  3  5  1  0  0  0  0
  3  7  1  0  0  0  0
  4  5  1  0  0  0  0
  5  6  1  1  0  0  0
  6 10  1  0  0  0  0
  6 11  1  0  0  0  0
  6 12  1  0  0  0  0
  2 13  1  0  0  0  0
  2 14  1  0  0  0  0
  3 15  1  0  0  0  0
  3 16  1  0  0  0  0
  4 17  1  0  0  0  0
  5 18  1  0  0  0  0
  7 19  1  0  0  0  0
  8 20  1  0  0  0  0
  8 21  1  0  0  0  0
M  END
> <Catalog ID>
Z2311280950

> <PlateID>
1337959-R-05

> <Well>
H10

> <MW (desalted)>
182.144

> <CLogP>
-0.553

> <HBD>
2

> <TPSA>
55.120

> <RotBonds>
2

> <ROCS_ShapeQuery>
x0446_0A_x1080_0A_x0929_0A_x0812_0A_x0719_0A_x1140_0A_x0528_0A_x0310_0A

> <ROCS_TanimotoCombo>
0.299 

> <ROCS_ShapeTanimoto>
0.181 

> <ROCS_ColorTanimoto>
0.118 

> <ROCS_RefTversky>
0.168 

> <ROCS_RefColorTversky>
0.125 

> <ROCS_RefTverskyCombo>
0.293 

> <ROCS_FitTversky>
1.766 

> <ROCS_FitColorTversky>
0.671 

> <ROCS_FitTverskyCombo>
2.437 

> <ROCS_ColorScore>
-4.438

> <ROCS_Overlap>
1978.386

> <ROCS_Rank>
379                 

$$$$
untitled-dbase-465_0
  -OEChem-02082415003D

 28 29  0     0  0  0  0  0  0999 V2000
    8.8649   13.9078   22.3780 C   0  0  0  0  0  0  0  0  0  0  0  0
   10.2364   10.6839   23.6071 C   0  0  0  0  0  0  0  0  0  0  0  0
    9.1900   10.2188   24.4036 C   0  0  0  0  0  0  0  0  0  0  0  0
   10.1177   11.9045   22.9425 C   0  0  0  0  0  0  0  0  0  0  0  0
    8.0249   10.9743   24.5354 C   0  0  0  0  0  0  0  0  0  0  0  0
    8.9525   12.6600   23.0743 C   0  0  0  0  0  0  0  0  0  0  0  0
    7.9061   12.1949   23.8707 C   0  0  0  0  0  0  0  0  0  0  0  0
    4.1259   11.8644   21.2724 C   0  0  0  0  0  0  0  0  0  0  0  0
    4.0270   13.3401   20.9385 C   0  0  0  0  0  0  0  0  0  0  0  0
    5.5167   11.7348   21.8789 C   0  0  0  0  0  0  0  0  0  0  0  0
    4.6870   13.9922   22.1430 C   0  0  0  0  0  0  0  0  0  0  0  0
    8.7939   14.9193   21.8136 N   0  0  0  0  0  0  0  0  0  0  0  0
    5.8026   13.0679   22.4858 N   0  0  0  0  0  0  0  0  0  0  0  0
    5.5407   12.3436   24.9459 O   0  0  0  0  0  0  0  0  0  0  0  0
    6.7720   14.4761   24.4130 O   0  0  0  0  0  0  0  0  0  0  0  0
    6.4084   13.1125   24.0718 S   0  0  0  0  0  0  0  0  0  0  0  0
   11.1435   10.0955   23.5046 H   0  0  0  0  0  0  0  0  0  0  0  0
    9.2826    9.2684   24.9210 H   0  0  0  0  0  0  0  0  0  0  0  0
   10.9432   12.2521   22.3256 H   0  0  0  0  0  0  0  0  0  0  0  0
    7.2171   10.6004   25.1590 H   0  0  0  0  0  0  0  0  0  0  0  0
    3.3658   11.5969   22.0165 H   0  0  0  0  0  0  0  0  0  0  0  0
    3.9895   11.2199   20.3996 H   0  0  0  0  0  0  0  0  0  0  0  0
    4.5949   13.5599   20.0265 H   0  0  0  0  0  0  0  0  0  0  0  0
    2.9964   13.6752   20.7932 H   0  0  0  0  0  0  0  0  0  0  0  0
    5.5533   10.9269   22.6154 H   0  0  0  0  0  0  0  0  0  0  0  0
    6.2681   11.5421   21.1060 H   0  0  0  0  0  0  0  0  0  0  0  0
    5.0680   14.9890   21.9064 H   0  0  0  0  0  0  0  0  0  0  0  0
    3.9811   14.0566   22.9786 H   0  0  0  0  0  0  0  0  0  0  0  0
  1  6  1  0  0  0  0
  1 12  3  0  0  0  0
  2  3  2  0  0  0  0
  2  4  1  0  0  0  0
  3  5  1  0  0  0  0
  4  6  2  0  0  0  0
  5  7  2  0  0  0  0
  6  7  1  0  0  0  0
  7 16  1  0  0  0  0
  8  9  1  0  0  0  0
  8 10  1  0  0  0  0
  9 11  1  0  0  0  0
 10 13  1  0  0  0  0
 11 13  1  0  0  0  0
 13 16  1  0  0  0  0
 14 16  2  0  0  0  0
 15 16  2  0  0  0  0
  2 17  1  0  0  0  0
  3 18  1  0  0  0  0
  4 19  1  0  0  0  0
  5 20  1  0  0  0  0
  8 21  1  0  0  0  0
  8 22  1  0  0  0  0
  9 23  1  0  0  0  0
  9 24  1  0  0  0  0
 10 25  1  0  0  0  0
 10 26  1  0  0  0  0
 11 27  1  0  0  0  0
 11 28  1  0  0  0  0
M  END
> <Catalog ID>
Z45509084

> <PlateID>
1337959-R-11

> <Well>
B04

> <MW (desalted)>
236.290

> <CLogP>
1.404

> <HBD>
0

> <TPSA>
61.170

> <RotBonds>
1

> <ROCS_ShapeQuery>
x0446_0A_x1080_0A_x0929_0A_x0812_0A_x0719_0A_x1140_0A_x0528_0A_x0310_0A

> <ROCS_TanimotoCombo>
0.298 

> <ROCS_ShapeTanimoto>
0.183 

> <ROCS_ColorTanimoto>
0.115 

> <ROCS_RefTversky>
0.171 

> <ROCS_RefColorTversky>
0.123 

> <ROCS_RefTverskyCombo>
0.294 

> <ROCS_FitTversky>
1.590 

> <ROCS_FitColorTversky>
0.660 

> <ROCS_FitTverskyCombo>
2.250 

> <ROCS_ColorScore>
-4.365

> <ROCS_Overlap>
2021.079

> <ROCS_Rank>
380                 

$$$$
untitled-dbase-215_0
  -OEChem-02082415003D

 24 25  0     0  0  0  0  0  0999 V2000
    5.5299   12.0763   25.2155 C   0  0  0  0  0  0  0  0  0  0  0  0
    6.3309   10.9725   24.9634 C   0  0  0  0  0  0  0  0  0  0  0  0
    6.0110   13.3170   24.8417 C   0  0  0  0  0  0  0  0  0  0  0  0
    7.5697   11.1483   24.3510 C   0  0  0  0  0  0  0  0  0  0  0  0
    7.9969   12.4365   24.0230 C   0  0  0  0  0  0  0  0  0  0  0  0
   10.1714   11.5118   23.5003 C   0  0  0  0  0  0  0  0  0  0  0  0
    9.4326   10.1932   23.2228 C   0  0  0  0  0  0  0  0  0  0  0  0
    8.9470   10.0860   21.7683 C   0  0  0  0  0  0  0  0  0  0  0  0
   10.3811    9.0206   23.5090 C   0  0  0  0  0  0  0  0  0  0  0  0
    7.2138   13.5194   24.2558 N   0  0  0  0  0  0  0  0  0  0  0  0
    9.2446   12.6177   23.4428 N   0  0  0  0  0  0  0  0  0  0  0  0
    8.3119   10.0215   24.1143 O   0  0  0  0  0  0  0  0  0  0  0  0
    4.5592   11.9687   25.6853 H   0  0  0  0  0  0  0  0  0  0  0  0
    5.9844    9.9798   25.2364 H   0  0  0  0  0  0  0  0  0  0  0  0
    5.4246   14.2143   25.0102 H   0  0  0  0  0  0  0  0  0  0  0  0
   10.6192   11.4936   24.5021 H   0  0  0  0  0  0  0  0  0  0  0  0
   10.9825   11.6706   22.7809 H   0  0  0  0  0  0  0  0  0  0  0  0
    8.4345    9.1393   21.6295 H   0  0  0  0  0  0  0  0  0  0  0  0
    9.8005   10.1397   21.0998 H   0  0  0  0  0  0  0  0  0  0  0  0
    8.2656   10.9039   21.5559 H   0  0  0  0  0  0  0  0  0  0  0  0
    9.8664    8.0840   23.3152 H   0  0  0  0  0  0  0  0  0  0  0  0
   10.6938    9.0543   24.5486 H   0  0  0  0  0  0  0  0  0  0  0  0
   11.2527    9.0955   22.8652 H   0  0  0  0  0  0  0  0  0  0  0  0
    9.5631   13.5548   23.2336 H   0  0  0  0  0  0  0  0  0  0  0  0
  1  2  1  0  0  0  0
  1  3  2  0  0  0  0
  2  4  2  0  0  0  0
  3 10  1  0  0  0  0
  4  5  1  0  0  0  0
  4 12  1  0  0  0  0
  5 10  2  0  0  0  0
  5 11  1  0  0  0  0
  6  7  1  0  0  0  0
  6 11  1  0  0  0  0
  7  8  1  0  0  0  0
  7  9  1  0  0  0  0
  7 12  1  0  0  0  0
  1 13  1  0  0  0  0
  2 14  1  0  0  0  0
  3 15  1  0  0  0  0
  6 16  1  0  0  0  0
  6 17  1  0  0  0  0
  8 18  1  0  0  0  0
  8 19  1  0  0  0  0
  8 20  1  0  0  0  0
  9 21  1  0  0  0  0
  9 22  1  0  0  0  0
  9 23  1  0  0  0  0
 11 24  1  0  0  0  0
M  END
> <Catalog ID>
Z1255421457

> <PlateID>
1337959-R-05

> <Well>
C07

> <MW (desalted)>
164.204

> <CLogP>
2.519

> <HBD>
1

> <TPSA>
34.150

> <RotBonds>
0

> <ROCS_ShapeQuery>
x0446_0A_x1080_0A_x0929_0A_x0812_0A_x0719_0A_x1140_0A_x0528_0A_x0310_0A

> <ROCS_TanimotoCombo>
0.298 

> <ROCS_ShapeTanimoto>
0.188 

> <ROCS_ColorTanimoto>
0.111 

> <ROCS_RefTversky>
0.173 

> <ROCS_RefColorTversky>
0.121 

> <ROCS_RefTverskyCombo>
0.294 

> <ROCS_FitTversky>
1.799 

> <ROCS_FitColorTversky>
0.568 

> <ROCS_FitTverskyCombo>
2.367 

> <ROCS_ColorScore>
-4.299

> <ROCS_Overlap>
2043.713

> <ROCS_Rank>
381                 

$$$$
untitled-dbase-62_2
  -OEChem-02082415003D

 19 19  0     1  0  0  0  0  0999 V2000
    7.6053   10.4703   23.7332 C   0  0  0  0  0  0  0  0  0  0  0  0
    8.7246   10.3838   23.0082 C   0  0  0  0  0  0  0  0  0  0  0  0
    9.4412   14.5343   22.7709 C   0  0  0  0  0  0  0  0  0  0  0  0
    7.6573   11.6098   24.6983 C   0  0  0  0  0  0  0  0  0  0  0  0
    9.7047   11.4475   23.3867 C   0  0  2  0  0  0  0  0  0  0  0  0
    8.8372   12.4503   24.1761 C   0  0  1  0  0  0  0  0  0  0  0  0
    8.3426   13.6358   23.3401 C   0  0  0  0  0  0  0  0  0  0  0  0
   10.4924   14.6522   23.4582 O   0  5  0  0  0  0  0  0  0  0  0  0
    9.1495   15.0568   21.6561 O   0  0  0  0  0  0  0  0  0  0  0  0
   10.3030   12.0286   22.2435 O   0  0  0  0  0  0  0  0  0  0  0  0
    6.7481    9.8245   23.6101 H   0  0  0  0  0  0  0  0  0  0  0  0
    8.8905    9.6592   22.2261 H   0  0  0  0  0  0  0  0  0  0  0  0
    6.7078   12.1588   24.6856 H   0  0  0  0  0  0  0  0  0  0  0  0
    7.8490   11.2625   25.7201 H   0  0  0  0  0  0  0  0  0  0  0  0
   10.5048   11.0412   24.0379 H   0  0  0  0  0  0  0  0  0  0  0  0
    9.3984   12.8207   25.0123 H   0  0  0  0  0  0  0  0  0  0  0  0
    7.6840   14.2534   23.9595 H   0  0  0  0  0  0  0  0  0  0  0  0
    7.7472   13.2540   22.5043 H   0  0  0  0  0  0  0  0  0  0  0  0
   10.7598   11.3145   21.7677 H   0  0  0  0  0  0  0  0  0  0  0  0
  1  2  2  0  0  0  0
  1  4  1  0  0  0  0
  2  5  1  0  0  0  0
  3  7  1  0  0  0  0
  3  8  1  0  0  0  0
  3  9  2  0  0  0  0
  4  6  1  0  0  0  0
  5  6  1  0  0  0  0
  5 10  1  6  0  0  0
  6  7  1  6  0  0  0
  1 11  1  0  0  0  0
  2 12  1  0  0  0  0
  4 13  1  0  0  0  0
  4 14  1  0  0  0  0
  5 15  1  0  0  0  0
  6 16  1  0  0  0  0
  7 17  1  0  0  0  0
  7 18  1  0  0  0  0
 10 19  1  0  0  0  0
M  CHG  1   8  -1
M  END
> <Catalog ID>
Z4284179673

> <PlateID>
1337959-R-02

> <Well>
B02

> <MW (desalted)>
142.153

> <CLogP>
-3.132

> <HBD>
1

> <TPSA>
60.360

> <RotBonds>
2

> <ROCS_ShapeQuery>
x0446_0A_x1080_0A_x0929_0A_x0812_0A_x0719_0A_x1140_0A_x0528_0A_x0310_0A

> <ROCS_TanimotoCombo>
0.298 

> <ROCS_ShapeTanimoto>
0.161 

> <ROCS_ColorTanimoto>
0.137 

> <ROCS_RefTversky>
0.151 

> <ROCS_RefColorTversky>
0.146 

> <ROCS_RefTverskyCombo>
0.297 

> <ROCS_FitTversky>
1.740 

> <ROCS_FitColorTversky>
0.689 

> <ROCS_FitTverskyCombo>
2.430 

> <ROCS_ColorScore>
-5.219

> <ROCS_Overlap>
1774.190

> <ROCS_Rank>
382                 

$$$$
untitled-dbase-313_36
  -OEChem-02082415003D

 26 26  0     1  0  0  0  0  0999 V2000
    9.3713   10.4753   24.5943 C   0  0  0  0  0  0  0  0  0  0  0  0
    8.2113   11.1747   24.9269 C   0  0  0  0  0  0  0  0  0  0  0  0
   10.1574   10.8980   23.5223 C   0  0  0  0  0  0  0  0  0  0  0  0
    7.8372   12.2967   24.1874 C   0  0  0  0  0  0  0  0  0  0  0  0
    8.6232   12.7194   23.1154 C   0  0  0  0  0  0  0  0  0  0  0  0
    9.7833   12.0200   22.7828 C   0  0  0  0  0  0  0  0  0  0  0  0
    8.0450   15.5038   24.6053 C   0  0  0  0  0  0  0  0  0  0  0  0
    6.3350   16.1251   22.9468 C   0  0  0  0  0  0  0  0  0  0  0  0
    4.9383   15.5597   22.7955 C   0  0  0  0  0  0  0  0  0  0  0  0
    7.2765   15.0739   23.4095 N   0  0  1  0  0  0  0  0  0  0  0  0
    9.3009   14.8573   21.7967 O   0  0  0  0  0  0  0  0  0  0  0  0
    7.1554   13.7032   21.2062 O   0  0  0  0  0  0  0  0  0  0  0  0
    6.7197   12.9592   24.5181 F   0  0  0  0  0  0  0  0  0  0  0  0
    4.8200   14.9335   21.5980 F   0  0  0  0  0  0  0  0  0  0  0  0
    4.0441   16.5813   22.7858 F   0  0  0  0  0  0  0  0  0  0  0  0
    8.1030   14.1501   22.2105 S   0  0  0  0  0  0  0  0  0  0  0  0
   10.7918   12.5010   21.4656 Cl  0  0  0  0  0  0  0  0  0  0  0  0
    9.6630    9.6023   25.1709 H   0  0  0  0  0  0  0  0  0  0  0  0
    7.5989   10.8453   25.7611 H   0  0  0  0  0  0  0  0  0  0  0  0
   11.0577   10.3402   23.2766 H   0  0  0  0  0  0  0  0  0  0  0  0
    8.7274   14.6976   24.9125 H   0  0  0  0  0  0  0  0  0  0  0  0
    8.6278   16.4045   24.3621 H   0  0  0  0  0  0  0  0  0  0  0  0
    7.3491   15.7280   25.4271 H   0  0  0  0  0  0  0  0  0  0  0  0
    6.6785   16.5161   21.9836 H   0  0  0  0  0  0  0  0  0  0  0  0
    6.3255   16.9599   23.6550 H   0  0  0  0  0  0  0  0  0  0  0  0
    4.6645   14.8628   23.5931 H   0  0  0  0  0  0  0  0  0  0  0  0
  1  2  2  0  0  0  0
  1  3  1  0  0  0  0
  2  4  1  0  0  0  0
  3  6  2  0  0  0  0
  4  5  2  0  0  0  0
  4 13  1  0  0  0  0
  5  6  1  0  0  0  0
  5 16  1  0  0  0  0
  6 17  1  0  0  0  0
  7 10  1  0  0  0  0
  8  9  1  0  0  0  0
  8 10  1  0  0  0  0
  9 14  1  0  0  0  0
  9 15  1  0  0  0  0
 10 16  1  0  0  0  0
 11 16  2  0  0  0  0
 12 16  2  0  0  0  0
  1 18  1  0  0  0  0
  2 19  1  0  0  0  0
  3 20  1  0  0  0  0
  7 21  1  0  0  0  0
  7 22  1  0  0  0  0
  7 23  1  0  0  0  0
  8 24  1  0  0  0  0
  8 25  1  0  0  0  0
  9 26  1  0  0  0  0
M  END
> <Catalog ID>
Z1697235531

> <PlateID>
1337959-R-07

> <Well>
E10

> <MW (desalted)>
287.686

> <CLogP>
2.468

> <HBD>
0

> <TPSA>
37.380

> <RotBonds>
3

> <ROCS_ShapeQuery>
x0446_0A_x1080_0A_x0929_0A_x0812_0A_x0719_0A_x1140_0A_x0528_0A_x0310_0A

> <ROCS_TanimotoCombo>
0.298 

> <ROCS_ShapeTanimoto>
0.194 

> <ROCS_ColorTanimoto>
0.104 

> <ROCS_RefTversky>
0.181 

> <ROCS_RefColorTversky>
0.106 

> <ROCS_RefTverskyCombo>
0.287 

> <ROCS_FitTversky>
1.641 

> <ROCS_FitColorTversky>
0.800 

> <ROCS_FitTverskyCombo>
2.442 

> <ROCS_ColorScore>
-3.773

> <ROCS_Overlap>
2132.074

> <ROCS_Rank>
383                 

$$$$
untitled-dbase-47_10
  -OEChem-02082415003D

 28 29  0     0  0  0  0  0  0999 V2000
    9.4712   12.2952   23.7664 C   0  0  0  0  0  0  0  0  0  0  0  0
    8.3366   11.9754   24.3882 C   0  0  0  0  0  0  0  0  0  0  0  0
   10.0938   13.5940   23.6029 C   0  0  0  0  0  0  0  0  0  0  0  0
   10.0192   11.0277   23.2411 C   0  0  0  0  0  0  0  0  0  0  0  0
    4.6161   11.7452   24.9576 C   0  0  0  0  0  0  0  0  0  0  0  0
    5.2466   12.4137   23.7415 C   0  0  0  0  0  0  0  0  0  0  0  0
    5.6714   11.1032   25.8506 C   0  0  0  0  0  0  0  0  0  0  0  0
    6.3182   13.4278   24.1404 C   0  0  0  0  0  0  0  0  0  0  0  0
    6.7341   12.1121   26.2827 C   0  0  0  0  0  0  0  0  0  0  0  0
    7.3616   12.8628   25.1063 C   0  0  0  0  0  0  0  0  0  0  0  0
    8.0854   10.6247   24.3229 N   0  0  0  0  0  0  0  0  0  0  0  0
    9.0055   10.0368   23.6849 N   0  0  0  0  0  0  0  0  0  0  0  0
    9.5823   14.5554   23.0388 O   0  0  0  0  0  0  0  0  0  0  0  0
   11.3269   13.5958   24.1638 O   0  0  0  0  0  0  0  0  0  0  0  0
   10.0876   11.0279   22.1492 H   0  0  0  0  0  0  0  0  0  0  0  0
   10.9931   10.7861   23.6771 H   0  0  0  0  0  0  0  0  0  0  0  0
    4.0510   12.4886   25.5332 H   0  0  0  0  0  0  0  0  0  0  0  0
    3.8994   10.9840   24.6287 H   0  0  0  0  0  0  0  0  0  0  0  0
    5.6872   11.6481   23.0914 H   0  0  0  0  0  0  0  0  0  0  0  0
    4.4690   12.9155   23.1545 H   0  0  0  0  0  0  0  0  0  0  0  0
    5.1898   10.6778   26.7386 H   0  0  0  0  0  0  0  0  0  0  0  0
    6.1448   10.2691   25.3186 H   0  0  0  0  0  0  0  0  0  0  0  0
    6.7926   13.8352   23.2391 H   0  0  0  0  0  0  0  0  0  0  0  0
    5.8195   14.2747   24.6310 H   0  0  0  0  0  0  0  0  0  0  0  0
    6.2609   12.8459   26.9485 H   0  0  0  0  0  0  0  0  0  0  0  0
    7.5007   11.6057   26.8820 H   0  0  0  0  0  0  0  0  0  0  0  0
    7.9463   13.7000   25.5106 H   0  0  0  0  0  0  0  0  0  0  0  0
   11.7809   14.4605   24.0727 H   0  0  0  0  0  0  0  0  0  0  0  0
  1  2  2  0  0  0  0
  1  3  1  0  0  0  0
  1  4  1  0  0  0  0
  2 10  1  0  0  0  0
  2 11  1  0  0  0  0
  3 13  2  0  0  0  0
  3 14  1  0  0  0  0
  4 12  1  0  0  0  0
  5  6  1  0  0  0  0
  5  7  1  0  0  0  0
  6  8  1  0  0  0  0
  7  9  1  0  0  0  0
  8 10  1  0  0  0  0
  9 10  1  0  0  0  0
 11 12  2  0  0  0  0
  4 15  1  0  0  0  0
  4 16  1  0  0  0  0
  5 17  1  0  0  0  0
  5 18  1  0  0  0  0
  6 19  1  0  0  0  0
  6 20  1  0  0  0  0
  7 21  1  0  0  0  0
  7 22  1  0  0  0  0
  8 23  1  0  0  0  0
  8 24  1  0  0  0  0
  9 25  1  0  0  0  0
  9 26  1  0  0  0  0
 10 27  1  0  0  0  0
 14 28  1  0  0  0  0
M  END
> <Catalog ID>
Z448247842

> <PlateID>
1337959-R-01

> <Well>
G10

> <MW (desalted)>
194.230

> <CLogP>
1.828

> <HBD>
2

> <TPSA>
65.980

> <RotBonds>
2

> <ROCS_ShapeQuery>
x0446_0A_x1080_0A_x0929_0A_x0812_0A_x0719_0A_x1140_0A_x0528_0A_x0310_0A

> <ROCS_TanimotoCombo>
0.298 

> <ROCS_ShapeTanimoto>
0.188 

> <ROCS_ColorTanimoto>
0.110 

> <ROCS_RefTversky>
0.175 

> <ROCS_RefColorTversky>
0.117 

> <ROCS_RefTverskyCombo>
0.292 

> <ROCS_FitTversky>
1.711 

> <ROCS_FitColorTversky>
0.630 

> <ROCS_FitTverskyCombo>
2.341 

> <ROCS_ColorScore>
-4.169

> <ROCS_Overlap>
2060.462

> <ROCS_Rank>
384                 

$$$$
untitled-dbase-155_7
  -OEChem-02082415003D

 20 20  0     0  0  0  0  0  0999 V2000
    9.3721   12.3493   23.6531 C   0  0  0  0  0  0  0  0  0  0  0  0
    8.7525   11.7696   24.6779 C   0  0  0  0  0  0  0  0  0  0  0  0
    9.3496   11.2598   22.6740 C   0  0  0  0  0  0  0  0  0  0  0  0
    9.9249   13.6815   23.5139 C   0  0  0  0  0  0  0  0  0  0  0  0
    8.4413   12.3445   26.0157 C   0  0  0  0  0  0  0  0  0  0  0  0
   10.8778   15.6149   21.2204 C   0  0  0  0  0  0  0  0  0  0  0  0
    9.7425   15.6586   22.2208 C   0  0  0  0  0  0  0  0  0  0  0  0
    8.3750   10.4811   24.4137 N   0  0  0  0  0  0  0  0  0  0  0  0
    8.7195   10.1729   23.2452 N   0  0  0  0  0  0  0  0  0  0  0  0
    9.8196   11.3355   21.5493 O   0  0  0  0  0  0  0  0  0  0  0  0
   10.8174   14.1382   24.2263 O   0  0  0  0  0  0  0  0  0  0  0  0
    9.3026   14.3225   22.4854 O   0  0  0  0  0  0  0  0  0  0  0  0
    7.4619   12.8257   25.9972 H   0  0  0  0  0  0  0  0  0  0  0  0
    9.1961   13.0838   26.2904 H   0  0  0  0  0  0  0  0  0  0  0  0
    8.4363   11.5553   26.7700 H   0  0  0  0  0  0  0  0  0  0  0  0
   11.7219   15.0410   21.6128 H   0  0  0  0  0  0  0  0  0  0  0  0
   10.5472   15.1600   20.2809 H   0  0  0  0  0  0  0  0  0  0  0  0
   11.2200   16.6272   20.9807 H   0  0  0  0  0  0  0  0  0  0  0  0
    8.9017   16.2340   21.8222 H   0  0  0  0  0  0  0  0  0  0  0  0
   10.0748   16.1126   23.1591 H   0  0  0  0  0  0  0  0  0  0  0  0
  1  2  2  0  0  0  0
  1  3  1  0  0  0  0
  1  4  1  0  0  0  0
  2  5  1  0  0  0  0
  2  8  1  0  0  0  0
  3  9  1  0  0  0  0
  3 10  2  0  0  0  0
  4 11  2  0  0  0  0
  4 12  1  0  0  0  0
  6  7  1  0  0  0  0
  7 12  1  0  0  0  0
  8  9  2  0  0  0  0
  5 13  1  0  0  0  0
  5 14  1  0  0  0  0
  5 15  1  0  0  0  0
  6 16  1  0  0  0  0
  6 17  1  0  0  0  0
  6 18  1  0  0  0  0
  7 19  1  0  0  0  0
  7 20  1  0  0  0  0
M  END
> <Catalog ID>
Z1255393169

> <PlateID>
1337959-R-04

> <Well>
A11

> <MW (desalted)>
170.166

> <CLogP>
0.702

> <HBD>
2

> <TPSA>
67.430

> <RotBonds>
3

> <ROCS_ShapeQuery>
x0446_0A_x1080_0A_x0929_0A_x0812_0A_x0719_0A_x1140_0A_x0528_0A_x0310_0A

> <ROCS_TanimotoCombo>
0.298 

> <ROCS_ShapeTanimoto>
0.171 

> <ROCS_ColorTanimoto>
0.126 

> <ROCS_RefTversky>
0.160 

> <ROCS_RefColorTversky>
0.130 

> <ROCS_RefTverskyCombo>
0.290 

> <ROCS_FitTversky>
1.675 

> <ROCS_FitColorTversky>
0.817 

> <ROCS_FitTverskyCombo>
2.492 

> <ROCS_ColorScore>
-4.622

> <ROCS_Overlap>
1888.862

> <ROCS_Rank>
385                 

$$$$
untitled-dbase-333_0
  -OEChem-02082415003D

 32 33  0     0  0  0  0  0  0999 V2000
    9.2294   10.2145   23.9058 C   0  0  0  0  0  0  0  0  0  0  0  0
    9.3095   10.8170   22.6503 C   0  0  0  0  0  0  0  0  0  0  0  0
    8.9709   10.9898   25.0362 C   0  0  0  0  0  0  0  0  0  0  0  0
    9.1313   12.1947   22.5252 C   0  0  0  0  0  0  0  0  0  0  0  0
    8.7928   12.3676   24.9111 C   0  0  0  0  0  0  0  0  0  0  0  0
    8.8730   12.9701   23.6556 C   0  0  0  0  0  0  0  0  0  0  0  0
    9.4726   15.0221   22.3567 C   0  0  0  0  0  0  0  0  0  0  0  0
   12.7853   14.2476   22.4150 C   0  0  0  0  0  0  0  0  0  0  0  0
   11.9042   15.1651   21.5590 C   0  0  0  0  0  0  0  0  0  0  0  0
   11.6732   14.2326   23.4708 C   0  0  0  0  0  0  0  0  0  0  0  0
    9.1197   15.2948   24.7619 C   0  0  0  0  0  0  0  0  0  0  0  0
    7.1722   14.7800   23.3031 C   0  0  0  0  0  0  0  0  0  0  0  0
    8.6765   14.4904   23.5184 C   0  0  0  0  0  0  0  0  0  0  0  0
   10.8201   14.8145   22.4545 N   0  0  0  0  0  0  0  0  0  0  0  0
    8.9271   15.5877   21.4104 O   0  0  0  0  0  0  0  0  0  0  0  0
    9.3668    9.1415   24.0028 H   0  0  0  0  0  0  0  0  0  0  0  0
    9.5096   10.2133   21.7698 H   0  0  0  0  0  0  0  0  0  0  0  0
    8.9074   10.5210   26.0137 H   0  0  0  0  0  0  0  0  0  0  0  0
    9.1957   12.6556   21.5430 H   0  0  0  0  0  0  0  0  0  0  0  0
    8.5920   12.9637   25.7974 H   0  0  0  0  0  0  0  0  0  0  0  0
   12.9798   13.2693   21.9612 H   0  0  0  0  0  0  0  0  0  0  0  0
   13.7337   14.6831   22.7421 H   0  0  0  0  0  0  0  0  0  0  0  0
   12.1551   16.2284   21.5970 H   0  0  0  0  0  0  0  0  0  0  0  0
   11.7552   14.8395   20.5270 H   0  0  0  0  0  0  0  0  0  0  0  0
   11.3662   13.2390   23.8047 H   0  0  0  0  0  0  0  0  0  0  0  0
   11.8272   14.8979   24.3248 H   0  0  0  0  0  0  0  0  0  0  0  0
    8.9639   16.3721   24.6248 H   0  0  0  0  0  0  0  0  0  0  0  0
   10.1791   15.1347   24.9949 H   0  0  0  0  0  0  0  0  0  0  0  0
    8.5489   14.9973   25.6508 H   0  0  0  0  0  0  0  0  0  0  0  0
    6.9841   15.8556   23.1996 H   0  0  0  0  0  0  0  0  0  0  0  0
    6.7991   14.2901   22.3953 H   0  0  0  0  0  0  0  0  0  0  0  0
    6.5577   14.4199   24.1366 H   0  0  0  0  0  0  0  0  0  0  0  0
  1  2  2  0  0  0  0
  1  3  1  0  0  0  0
  2  4  1  0  0  0  0
  3  5  2  0  0  0  0
  4  6  2  0  0  0  0
  5  6  1  0  0  0  0
  6 13  1  0  0  0  0
  7 13  1  0  0  0  0
  7 14  1  0  0  0  0
  7 15  2  0  0  0  0
  8  9  1  0  0  0  0
  8 10  1  0  0  0  0
  9 14  1  0  0  0  0
 10 14  1  0  0  0  0
 11 13  1  0  0  0  0
 12 13  1  0  0  0  0
  1 16  1  0  0  0  0
  2 17  1  0  0  0  0
  3 18  1  0  0  0  0
  4 19  1  0  0  0  0
  5 20  1  0  0  0  0
  8 21  1  0  0  0  0
  8 22  1  0  0  0  0
  9 23  1  0  0  0  0
  9 24  1  0  0  0  0
 10 25  1  0  0  0  0
 10 26  1  0  0  0  0
 11 27  1  0  0  0  0
 11 28  1  0  0  0  0
 11 29  1  0  0  0  0
 12 30  1  0  0  0  0
 12 31  1  0  0  0  0
 12 32  1  0  0  0  0
M  END
> <Catalog ID>
Z365467426

> <PlateID>
1337959-R-08

> <Well>
A09

> <MW (desalted)>
203.280

> <CLogP>
1.839

> <HBD>
0

> <TPSA>
20.310

> <RotBonds>
2

> <ROCS_ShapeQuery>
x0446_0A_x1080_0A_x0929_0A_x0812_0A_x0719_0A_x1140_0A_x0528_0A_x0310_0A

> <ROCS_TanimotoCombo>
0.298 

> <ROCS_ShapeTanimoto>
0.190 

> <ROCS_ColorTanimoto>
0.107 

> <ROCS_RefTversky>
0.177 

> <ROCS_RefColorTversky>
0.112 

> <ROCS_RefTverskyCombo>
0.289 

> <ROCS_FitTversky>
1.670 

> <ROCS_FitColorTversky>
0.704 

> <ROCS_FitTverskyCombo>
2.375 

> <ROCS_ColorScore>
-3.985

> <ROCS_Overlap>
2087.125

> <ROCS_Rank>
386                 

$$$$
untitled-dbase-544_12
  -OEChem-02082415003D

 29 30  0     1  0  0  0  0  0999 V2000
    7.6805   10.0042   24.2768 C   0  0  0  0  0  0  0  0  0  0  0  0
    7.7026   11.2264   24.9485 C   0  0  0  0  0  0  0  0  0  0  0  0
    9.3736   10.8105   22.7536 C   0  0  0  0  0  0  0  0  0  0  0  0
    8.5160    9.7962   23.1794 C   0  0  0  0  0  0  0  0  0  0  0  0
    9.3957   12.0329   23.4253 C   0  0  0  0  0  0  0  0  0  0  0  0
    8.5602   12.2408   24.5227 C   0  0  0  0  0  0  0  0  0  0  0  0
    7.7055   14.0364   20.1660 C   0  0  0  0  0  0  0  0  0  0  0  0
    8.9605   13.2819   20.5823 C   0  0  0  0  0  0  0  0  0  0  0  0
    8.4079   14.9502   22.2510 C   0  0  0  0  0  0  0  0  0  0  0  0
    7.1538   14.4949   21.5075 C   0  0  1  0  0  0  0  0  0  0  0  0
    9.5010   14.0792   21.7204 N   0  0  1  0  0  0  0  0  0  0  0  0
    6.1630   15.5480   21.3778 N   0  0  0  0  0  0  0  0  0  0  0  0
   10.7889   14.1671   23.9519 O   0  0  0  0  0  0  0  0  0  0  0  0
   11.5804   12.6150   22.1320 O   0  0  0  0  0  0  0  0  0  0  0  0
    8.4944    8.6229   22.5334 F   0  0  0  0  0  0  0  0  0  0  0  0
   10.5010   13.2814   22.8382 S   0  0  0  0  0  0  0  0  0  0  0  0
    8.5468   13.7359   25.3868 Cl  0  0  0  0  0  0  0  0  0  0  0  0
    7.0121    9.2143   24.6063 H   0  0  0  0  0  0  0  0  0  0  0  0
    7.0460   11.3709   25.8028 H   0  0  0  0  0  0  0  0  0  0  0  0
   10.0186   10.6355   21.8967 H   0  0  0  0  0  0  0  0  0  0  0  0
    7.9761   14.8925   19.5346 H   0  0  0  0  0  0  0  0  0  0  0  0
    7.0071   13.4058   19.6075 H   0  0  0  0  0  0  0  0  0  0  0  0
    8.7058   12.2705   20.9178 H   0  0  0  0  0  0  0  0  0  0  0  0
    9.6886   13.2267   19.7689 H   0  0  0  0  0  0  0  0  0  0  0  0
    8.6724   15.9900   22.0257 H   0  0  0  0  0  0  0  0  0  0  0  0
    8.2865   14.8504   23.3340 H   0  0  0  0  0  0  0  0  0  0  0  0
    6.7068   13.6437   22.0284 H   0  0  0  0  0  0  0  0  0  0  0  0
    6.5005   16.3611   21.8413 H   0  0  0  0  0  0  0  0  0  0  0  0
    6.0231   15.7350   20.4107 H   0  0  0  0  0  0  0  0  0  0  0  0
  1  2  1  0  0  0  0
  1  4  2  0  0  0  0
  2  6  2  0  0  0  0
  3  4  1  0  0  0  0
  3  5  2  0  0  0  0
  4 15  1  0  0  0  0
  5  6  1  0  0  0  0
  5 16  1  0  0  0  0
  6 17  1  0  0  0  0
  7  8  1  0  0  0  0
  7 10  1  0  0  0  0
  8 11  1  0  0  0  0
  9 10  1  0  0  0  0
  9 11  1  0  0  0  0
 10 12  1  1  0  0  0
 11 16  1  0  0  0  0
 13 16  2  0  0  0  0
 14 16  2  0  0  0  0
  1 18  1  0  0  0  0
  2 19  1  0  0  0  0
  3 20  1  0  0  0  0
  7 21  1  0  0  0  0
  7 22  1  0  0  0  0
  8 23  1  0  0  0  0
  8 24  1  0  0  0  0
  9 25  1  0  0  0  0
  9 26  1  0  0  0  0
 10 27  1  0  0  0  0
 12 28  1  0  0  0  0
 12 29  1  0  0  0  0
M  END
> <Catalog ID>
Z2242852374

> <PlateID>
1337959-R-12

> <Well>
G10

> <MW (desalted)>
278.731

> <CLogP>
1.375

> <HBD>
1

> <TPSA>
63.400

> <RotBonds>
1

> <ROCS_ShapeQuery>
x0446_0A_x1080_0A_x0929_0A_x0812_0A_x0719_0A_x1140_0A_x0528_0A_x0310_0A

> <ROCS_TanimotoCombo>
0.297 

> <ROCS_ShapeTanimoto>
0.204 

> <ROCS_ColorTanimoto>
0.094 

> <ROCS_RefTversky>
0.188 

> <ROCS_RefColorTversky>
0.104 

> <ROCS_RefTverskyCombo>
0.292 

> <ROCS_FitTversky>
1.701 

> <ROCS_FitColorTversky>
0.489 

> <ROCS_FitTverskyCombo>
2.191 

> <ROCS_ColorScore>
-3.700

> <ROCS_Overlap>
2218.153

> <ROCS_Rank>
387                 

$$$$
untitled-dbase-5_0
  -OEChem-02082415003D

 31 32  0     0  0  0  0  0  0999 V2000
    6.0043   12.1865   25.7153 C   0  0  0  0  0  0  0  0  0  0  0  0
    5.6427   12.4019   24.2496 C   0  0  0  0  0  0  0  0  0  0  0  0
    7.5064   12.4052   25.7931 C   0  0  0  0  0  0  0  0  0  0  0  0
    6.9648   12.5258   23.4898 C   0  0  0  0  0  0  0  0  0  0  0  0
    8.1780   10.4296   24.3550 C   0  0  0  0  0  0  0  0  0  0  0  0
   10.2111   10.6111   23.1309 C   0  0  0  0  0  0  0  0  0  0  0  0
    8.0462   11.9612   24.4238 C   0  0  0  0  0  0  0  0  0  0  0  0
   10.1380   12.1467   23.1654 C   0  0  0  0  0  0  0  0  0  0  0  0
   11.5388   12.7068   23.4583 C   0  0  0  0  0  0  0  0  0  0  0  0
    9.6687   12.7335   21.8268 C   0  0  0  0  0  0  0  0  0  0  0  0
    8.8728   10.0191   23.1334 N   0  0  0  0  0  0  0  0  0  0  0  0
    9.3165   12.5955   24.2540 O   0  0  0  0  0  0  0  0  0  0  0  0
    5.4742   12.8862   26.3632 H   0  0  0  0  0  0  0  0  0  0  0  0
    5.7348   11.1743   26.0233 H   0  0  0  0  0  0  0  0  0  0  0  0
    5.0702   11.5416   23.8729 H   0  0  0  0  0  0  0  0  0  0  0  0
    5.0131   13.2907   24.1062 H   0  0  0  0  0  0  0  0  0  0  0  0
    7.7217   13.4652   25.9587 H   0  0  0  0  0  0  0  0  0  0  0  0
    7.9278   11.8517   26.6319 H   0  0  0  0  0  0  0  0  0  0  0  0
    6.9270   12.0134   22.5191 H   0  0  0  0  0  0  0  0  0  0  0  0
    7.1654   13.5854   23.2672 H   0  0  0  0  0  0  0  0  0  0  0  0
    8.7244   10.0353   25.2189 H   0  0  0  0  0  0  0  0  0  0  0  0
    7.1869    9.9582   24.3714 H   0  0  0  0  0  0  0  0  0  0  0  0
   10.7437   10.2670   22.2347 H   0  0  0  0  0  0  0  0  0  0  0  0
   10.7739   10.2334   23.9923 H   0  0  0  0  0  0  0  0  0  0  0  0
   11.4959   13.7918   23.4844 H   0  0  0  0  0  0  0  0  0  0  0  0
   12.2251   12.3896   22.6785 H   0  0  0  0  0  0  0  0  0  0  0  0
   11.8834   12.3341   24.4186 H   0  0  0  0  0  0  0  0  0  0  0  0
    9.6340   13.8155   21.9024 H   0  0  0  0  0  0  0  0  0  0  0  0
    8.6796   12.3518   21.5954 H   0  0  0  0  0  0  0  0  0  0  0  0
   10.3639   12.4442   21.0453 H   0  0  0  0  0  0  0  0  0  0  0  0
    8.9396    9.0039   23.0945 H   0  0  0  0  0  0  0  0  0  0  0  0
  1  2  1  0  0  0  0
  1  3  1  0  0  0  0
  2  4  1  0  0  0  0
  3  7  1  0  0  0  0
  4  7  1  0  0  0  0
  5  7  1  0  0  0  0
  5 11  1  0  0  0  0
  6  8  1  0  0  0  0
  6 11  1  0  0  0  0
  7 12  1  0  0  0  0
  8  9  1  0  0  0  0
  8 10  1  0  0  0  0
  8 12  1  0  0  0  0
  1 13  1  0  0  0  0
  1 14  1  0  0  0  0
  2 15  1  0  0  0  0
  2 16  1  0  0  0  0
  3 17  1  0  0  0  0
  3 18  1  0  0  0  0
  4 19  1  0  0  0  0
  4 20  1  0  0  0  0
  5 21  1  0  0  0  0
  5 22  1  0  0  0  0
  6 23  1  0  0  0  0
  6 24  1  0  0  0  0
  9 25  1  0  0  0  0
  9 26  1  0  0  0  0
  9 27  1  0  0  0  0
 10 28  1  0  0  0  0
 10 29  1  0  0  0  0
 10 30  1  0  0  0  0
 11 31  1  0  0  0  0
M  END
> <Catalog ID>
Z1258721789

> <PlateID>
1337959-R-01

> <Well>
A09

> <MW (desalted)>
169.264

> <CLogP>
2.062

> <HBD>
1

> <TPSA>
21.260

> <RotBonds>
0

> <ROCS_ShapeQuery>
x0446_0A_x1080_0A_x0929_0A_x0812_0A_x0719_0A_x1140_0A_x0528_0A_x0310_0A

> <ROCS_TanimotoCombo>
0.297 

> <ROCS_ShapeTanimoto>
0.187 

> <ROCS_ColorTanimoto>
0.110 

> <ROCS_RefTversky>
0.172 

> <ROCS_RefColorTversky>
0.121 

> <ROCS_RefTverskyCombo>
0.293 

> <ROCS_FitTversky>
1.828 

> <ROCS_FitColorTversky>
0.568 

> <ROCS_FitTverskyCombo>
2.397 

> <ROCS_ColorScore>
-4.297

> <ROCS_Overlap>
2031.730

> <ROCS_Rank>
388                 

$$$$
untitled-dbase-157_0
  -OEChem-02082415003D

 20 20  0     0  0  0  0  0  0999 V2000
    9.6860   11.3812   21.8193 C   0  0  0  0  0  0  0  0  0  0  0  0
    9.3373   12.5470   22.4563 C   0  0  0  0  0  0  0  0  0  0  0  0
    8.2714   12.1817   23.3002 C   0  0  0  0  0  0  0  0  0  0  0  0
    8.8207    9.0319   21.9276 C   0  0  0  0  0  0  0  0  0  0  0  0
    7.5086   13.0440   24.2207 C   0  0  0  0  0  0  0  0  0  0  0  0
    7.9630   10.8853   23.2097 N   0  0  0  0  0  0  0  0  0  0  0  0
    8.8404   10.4258   22.3013 N   0  0  0  0  0  0  0  0  0  0  0  0
   11.2684   13.7730   21.0879 N   0  0  0  0  0  0  0  0  0  0  0  0
    9.0794   15.0102   21.6566 O   0  0  0  0  0  0  0  0  0  0  0  0
   10.7182   14.4937   23.4993 O   0  0  0  0  0  0  0  0  0  0  0  0
    7.9129   14.3562   24.2312 F   0  0  0  0  0  0  0  0  0  0  0  0
    6.1635   13.1049   23.9524 F   0  0  0  0  0  0  0  0  0  0  0  0
    7.5869   12.6429   25.5301 F   0  0  0  0  0  0  0  0  0  0  0  0
   10.0469   14.0780   22.2572 S   0  0  0  0  0  0  0  0  0  0  0  0
   10.4451   11.1549   21.0828 H   0  0  0  0  0  0  0  0  0  0  0  0
    9.4914    8.4925   22.6016 H   0  0  0  0  0  0  0  0  0  0  0  0
    7.8010    8.6462   22.0136 H   0  0  0  0  0  0  0  0  0  0  0  0
    9.1556    8.9308   20.8915 H   0  0  0  0  0  0  0  0  0  0  0  0
   11.1311   14.1266   20.1331 H   0  0  0  0  0  0  0  0  0  0  0  0
   12.2492   13.7724   21.3933 H   0  0  0  0  0  0  0  0  0  0  0  0
  1  2  2  0  0  0  0
  1  7  1  0  0  0  0
  2  3  1  0  0  0  0
  2 14  1  0  0  0  0
  3  5  1  0  0  0  0
  3  6  2  0  0  0  0
  4  7  1  0  0  0  0
  5 11  1  0  0  0  0
  5 12  1  0  0  0  0
  5 13  1  0  0  0  0
  6  7  1  0  0  0  0
  8 14  1  0  0  0  0
  9 14  2  0  0  0  0
 10 14  2  0  0  0  0
  1 15  1  0  0  0  0
  4 16  1  0  0  0  0
  4 17  1  0  0  0  0
  4 18  1  0  0  0  0
  8 19  1  0  0  0  0
  8 20  1  0  0  0  0
M  END
> <Catalog ID>
Z1269132264

> <PlateID>
1337959-R-04

> <Well>
B07

> <MW (desalted)>
229.180

> <CLogP>
-0.567

> <HBD>
1

> <TPSA>
77.980

> <RotBonds>
2

> <ROCS_ShapeQuery>
x0446_0A_x1080_0A_x0929_0A_x0812_0A_x0719_0A_x1140_0A_x0528_0A_x0310_0A

> <ROCS_TanimotoCombo>
0.297 

> <ROCS_ShapeTanimoto>
0.178 

> <ROCS_ColorTanimoto>
0.119 

> <ROCS_RefTversky>
0.167 

> <ROCS_RefColorTversky>
0.126 

> <ROCS_RefTverskyCombo>
0.293 

> <ROCS_FitTversky>
1.638 

> <ROCS_FitColorTversky>
0.678 

> <ROCS_FitTverskyCombo>
2.316 

> <ROCS_ColorScore>
-4.486

> <ROCS_Overlap>
1967.769

> <ROCS_Rank>
389                 

$$$$
untitled-dbase-9_2
  -OEChem-02082415003D

 27 28  0     1  0  0  0  0  0999 V2000
    9.6493   10.7609   25.2656 C   0  0  0  0  0  0  0  0  0  0  0  0
    8.1399   10.5105   25.2635 C   0  0  0  0  0  0  0  0  0  0  0  0
    9.8782   12.4734   23.3767 C   0  0  0  0  0  0  0  0  0  0  0  0
    7.3740   12.0563   23.3724 C   0  0  0  0  0  0  0  0  0  0  0  0
    8.4924   13.0649   23.6955 C   0  0  0  0  0  0  0  0  0  0  0  0
   10.0020   10.9990   23.7975 C   0  0  2  0  0  0  0  0  0  0  0  0
    7.7334   10.6214   23.7941 C   0  0  1  0  0  0  0  0  0  0  0  0
    8.3043   14.2168   21.4850 C   0  0  0  0  0  0  0  0  0  0  0  0
    8.2730   14.3892   22.9684 C   0  0  0  0  0  0  0  0  0  0  0  0
    8.9647   10.2333   23.0856 N   0  0  0  0  0  0  0  0  0  0  0  0
    9.9253   11.6014   25.9105 H   0  0  0  0  0  0  0  0  0  0  0  0
   10.1631    9.8685   25.6433 H   0  0  0  0  0  0  0  0  0  0  0  0
    7.9408    9.5001   25.6410 H   0  0  0  0  0  0  0  0  0  0  0  0
    7.6055   11.2170   25.9067 H   0  0  0  0  0  0  0  0  0  0  0  0
   10.0799   12.5562   22.3002 H   0  0  0  0  0  0  0  0  0  0  0  0
   10.6492   13.0668   23.8836 H   0  0  0  0  0  0  0  0  0  0  0  0
    6.4504   12.3679   23.8763 H   0  0  0  0  0  0  0  0  0  0  0  0
    7.1597   12.0697   22.2954 H   0  0  0  0  0  0  0  0  0  0  0  0
    8.4548   13.2792   24.7718 H   0  0  0  0  0  0  0  0  0  0  0  0
   11.0026   10.6244   23.5591 H   0  0  0  0  0  0  0  0  0  0  0  0
    6.9089    9.9430   23.5534 H   0  0  0  0  0  0  0  0  0  0  0  0
    9.2717   13.7982   21.1833 H   0  0  0  0  0  0  0  0  0  0  0  0
    8.1775   15.1788   20.9771 H   0  0  0  0  0  0  0  0  0  0  0  0
    7.5187   13.5287   21.1552 H   0  0  0  0  0  0  0  0  0  0  0  0
    7.3080   14.8067   23.2685 H   0  0  0  0  0  0  0  0  0  0  0  0
    9.0494   15.0967   23.2715 H   0  0  0  0  0  0  0  0  0  0  0  0
    8.9210   10.5042   22.1043 H   0  0  0  0  0  0  0  0  0  0  0  0
  1  2  1  0  0  0  0
  1  6  1  0  0  0  0
  2  7  1  0  0  0  0
  3  5  1  0  0  0  0
  3  6  1  0  0  0  0
  4  5  1  0  0  0  0
  4  7  1  0  0  0  0
  5  9  1  0  0  0  0
  6 10  1  0  0  0  0
  7 10  1  0  0  0  0
  8  9  1  0  0  0  0
  1 11  1  0  0  0  0
  1 12  1  0  0  0  0
  2 13  1  0  0  0  0
  2 14  1  0  0  0  0
  3 15  1  0  0  0  0
  3 16  1  0  0  0  0
  4 17  1  0  0  0  0
  4 18  1  0  0  0  0
  5 19  1  0  0  0  0
  6 20  1  0  0  0  0
  7 21  1  0  0  0  0
  8 22  1  0  0  0  0
  8 23  1  0  0  0  0
  8 24  1  0  0  0  0
  9 25  1  0  0  0  0
  9 26  1  0  0  0  0
 10 27  1  0  0  0  0
M  END
> <Catalog ID>
Z2831445367

> <PlateID>
1337959-R-01

> <Well>
B05

> <MW (desalted)>
139.238

> <CLogP>
2.297

> <HBD>
1

> <TPSA>
12.030

> <RotBonds>
1

> <ROCS_ShapeQuery>
x0446_0A_x1080_0A_x0929_0A_x0812_0A_x0719_0A_x1140_0A_x0528_0A_x0310_0A

> <ROCS_TanimotoCombo>
0.297 

> <ROCS_ShapeTanimoto>
0.158 

> <ROCS_ColorTanimoto>
0.139 

> <ROCS_RefTversky>
0.149 

> <ROCS_RefColorTversky>
0.157 

> <ROCS_RefTverskyCombo>
0.305 

> <ROCS_FitTversky>
1.713 

> <ROCS_FitColorTversky>
0.548 

> <ROCS_FitTverskyCombo>
2.261 

> <ROCS_ColorScore>
-5.610

> <ROCS_Overlap>
1751.928

> <ROCS_Rank>
390                 

$$$$
untitled-dbase-144_0
  -OEChem-02082415003D

 21 22  0     0  0  0  0  0  0999 V2000
    9.3359   13.7082   24.1599 C   0  0  0  0  0  0  0  0  0  0  0  0
    9.9484   11.0198   24.0563 C   0  0  0  0  0  0  0  0  0  0  0  0
    8.4324   11.5730   22.6658 C   0  0  0  0  0  0  0  0  0  0  0  0
    7.9626   11.3844   24.7355 C   0  0  0  0  0  0  0  0  0  0  0  0
    9.0028   12.2778   23.9562 C   0  0  0  0  0  0  0  0  0  0  0  0
    8.5783   10.4575   23.6940 C   0  0  0  0  0  0  0  0  0  0  0  0
    8.8070   15.5905   25.4869 C   0  0  0  0  0  0  0  0  0  0  0  0
    8.2628    9.1016   23.4987 N   0  0  0  0  0  0  0  0  0  0  0  0
   10.1634   14.3200   23.4980 O   0  0  0  0  0  0  0  0  0  0  0  0
    8.5847   14.2102   25.1810 O   0  0  0  0  0  0  0  0  0  0  0  0
   10.7444   10.9351   23.3092 H   0  0  0  0  0  0  0  0  0  0  0  0
   10.3503   10.7771   25.0455 H   0  0  0  0  0  0  0  0  0  0  0  0
    7.4184   11.8471   22.3563 H   0  0  0  0  0  0  0  0  0  0  0  0
    9.0848   11.5406   21.7869 H   0  0  0  0  0  0  0  0  0  0  0  0
    8.1767   11.1762   25.7890 H   0  0  0  0  0  0  0  0  0  0  0  0
    6.9040   11.6408   24.6226 H   0  0  0  0  0  0  0  0  0  0  0  0
    8.1592   15.8900   26.3144 H   0  0  0  0  0  0  0  0  0  0  0  0
    8.5937   16.1991   24.6045 H   0  0  0  0  0  0  0  0  0  0  0  0
    9.8515   15.7266   25.7771 H   0  0  0  0  0  0  0  0  0  0  0  0
    7.5531    8.7943   24.1498 H   0  0  0  0  0  0  0  0  0  0  0  0
    7.9140    8.9393   22.5639 H   0  0  0  0  0  0  0  0  0  0  0  0
  1  5  1  0  0  0  0
  1  9  2  0  0  0  0
  1 10  1  0  0  0  0
  2  5  1  0  0  0  0
  2  6  1  0  0  0  0
  3  5  1  0  0  0  0
  3  6  1  0  0  0  0
  4  5  1  0  0  0  0
  4  6  1  0  0  0  0
  6  8  1  0  0  0  0
  7 10  1  0  0  0  0
  2 11  1  0  0  0  0
  2 12  1  0  0  0  0
  3 13  1  0  0  0  0
  3 14  1  0  0  0  0
  4 15  1  0  0  0  0
  4 16  1  0  0  0  0
  7 17  1  0  0  0  0
  7 18  1  0  0  0  0
  7 19  1  0  0  0  0
  8 20  1  0  0  0  0
  8 21  1  0  0  0  0
M  END
> <Catalog ID>
Z1262677642

> <PlateID>
1337959-R-03

> <Well>
G11

> <MW (desalted)>
141.168

> <CLogP>
0.657

> <HBD>
1

> <TPSA>
52.320

> <RotBonds>
2

> <ROCS_ShapeQuery>
x0446_0A_x1080_0A_x0929_0A_x0812_0A_x0719_0A_x1140_0A_x0528_0A_x0310_0A

> <ROCS_TanimotoCombo>
0.297 

> <ROCS_ShapeTanimoto>
0.147 

> <ROCS_ColorTanimoto>
0.151 

> <ROCS_RefTversky>
0.139 

> <ROCS_RefColorTversky>
0.174 

> <ROCS_RefTverskyCombo>
0.313 

> <ROCS_FitTversky>
1.582 

> <ROCS_FitColorTversky>
0.527 

> <ROCS_FitTverskyCombo>
2.109 

> <ROCS_ColorScore>
-6.247

> <ROCS_Overlap>
1639.760

> <ROCS_Rank>
391                 

$$$$
untitled-dbase-457_56
  -OEChem-02082415003D

 27 28  0     0  0  0  0  0  0999 V2000
    8.3196   13.3849   21.1519 C   0  0  0  0  0  0  0  0  0  0  0  0
    7.7470   10.9926   24.5575 C   0  0  0  0  0  0  0  0  0  0  0  0
    8.3464   10.0826   23.7147 C   0  0  0  0  0  0  0  0  0  0  0  0
    8.4070   12.2552   24.5385 C   0  0  0  0  0  0  0  0  0  0  0  0
    9.4860   12.2620   23.6819 C   0  0  0  0  0  0  0  0  0  0  0  0
   10.4233   13.3538   23.3738 C   0  0  0  0  0  0  0  0  0  0  0  0
   11.2009   15.7474   20.5121 C   0  0  0  0  0  0  0  0  0  0  0  0
   11.0103   16.3217   21.8862 C   0  0  0  0  0  0  0  0  0  0  0  0
   11.4227   14.8868   21.7230 C   0  0  0  0  0  0  0  0  0  0  0  0
    7.9719   13.4168   25.3513 C   0  0  0  0  0  0  0  0  0  0  0  0
    9.7574   13.2453   20.9285 C   0  0  0  0  0  0  0  0  0  0  0  0
    7.1776   13.4946   21.3258 N   0  0  0  0  0  0  0  0  0  0  0  0
   10.5146   13.7965   22.0502 N   0  0  0  0  0  0  0  0  0  0  0  0
   11.0576   13.8111   24.3239 O   0  0  0  0  0  0  0  0  0  0  0  0
    9.6993   10.7509   22.9052 S   0  0  0  0  0  0  0  0  0  0  0  0
    6.8764   10.7584   25.1570 H   0  0  0  0  0  0  0  0  0  0  0  0
    8.0545    9.0574   23.5357 H   0  0  0  0  0  0  0  0  0  0  0  0
   10.3155   15.5779   19.9114 H   0  0  0  0  0  0  0  0  0  0  0  0
   12.0719   16.0609   19.9494 H   0  0  0  0  0  0  0  0  0  0  0  0
   11.7533   17.0215   22.2481 H   0  0  0  0  0  0  0  0  0  0  0  0
    9.9978   16.5352   22.2062 H   0  0  0  0  0  0  0  0  0  0  0  0
   12.4521   14.6458   21.9654 H   0  0  0  0  0  0  0  0  0  0  0  0
    8.4687   13.4145   26.3326 H   0  0  0  0  0  0  0  0  0  0  0  0
    8.2038   14.3711   24.8540 H   0  0  0  0  0  0  0  0  0  0  0  0
    6.8840   13.4107   25.5198 H   0  0  0  0  0  0  0  0  0  0  0  0
   10.0397   12.1938   20.8237 H   0  0  0  0  0  0  0  0  0  0  0  0
   10.0694   13.7777   20.0255 H   0  0  0  0  0  0  0  0  0  0  0  0
  1 11  1  0  0  0  0
  1 12  3  0  0  0  0
  2  3  2  0  0  0  0
  2  4  1  0  0  0  0
  3 15  1  0  0  0  0
  4  5  2  0  0  0  0
  4 10  1  0  0  0  0
  5  6  1  0  0  0  0
  5 15  1  0  0  0  0
  6 13  1  0  0  0  0
  6 14  2  0  0  0  0
  7  8  1  0  0  0  0
  7  9  1  0  0  0  0
  8  9  1  0  0  0  0
  9 13  1  0  0  0  0
 11 13  1  0  0  0  0
  2 16  1  0  0  0  0
  3 17  1  0  0  0  0
  7 18  1  0  0  0  0
  7 19  1  0  0  0  0
  8 20  1  0  0  0  0
  8 21  1  0  0  0  0
  9 22  1  0  0  0  0
 10 23  1  0  0  0  0
 10 24  1  0  0  0  0
 10 25  1  0  0  0  0
 11 26  1  0  0  0  0
 11 27  1  0  0  0  0
M  END
> <Catalog ID>
Z826825154

> <PlateID>
1337959-R-10

> <Well>
H05

> <MW (desalted)>
220.291

> <CLogP>
1.158

> <HBD>
0

> <TPSA>
44.100

> <RotBonds>
3

> <ROCS_ShapeQuery>
x0446_0A_x1080_0A_x0929_0A_x0812_0A_x0719_0A_x1140_0A_x0528_0A_x0310_0A

> <ROCS_TanimotoCombo>
0.297 

> <ROCS_ShapeTanimoto>
0.196 

> <ROCS_ColorTanimoto>
0.101 

> <ROCS_RefTversky>
0.181 

> <ROCS_RefColorTversky>
0.104 

> <ROCS_RefTverskyCombo>
0.285 

> <ROCS_FitTversky>
1.744 

> <ROCS_FitColorTversky>
0.784 

> <ROCS_FitTverskyCombo>
2.529 

> <ROCS_ColorScore>
-3.693

> <ROCS_Overlap>
2132.942

> <ROCS_Rank>
392                 

$$$$
untitled-dbase-223_9
  -OEChem-02082415003D

 27 27  0     0  0  0  0  0  0999 V2000
    9.5903   11.0931   23.3752 C   0  0  0  0  0  0  0  0  0  0  0  0
    8.8396   10.0415   23.9006 C   0  0  0  0  0  0  0  0  0  0  0  0
    7.8423   12.6455   23.9845 C   0  0  0  0  0  0  0  0  0  0  0  0
    7.0915   11.5939   24.5099 C   0  0  0  0  0  0  0  0  0  0  0  0
    9.0917   12.3952   23.4172 C   0  0  0  0  0  0  0  0  0  0  0  0
    7.5902   10.2919   24.4680 C   0  0  0  0  0  0  0  0  0  0  0  0
   10.1824   12.3140   20.3988 C   0  0  0  0  0  0  0  0  0  0  0  0
   12.1621   13.6498   20.9962 C   0  0  0  0  0  0  0  0  0  0  0  0
    5.8470   12.1721   26.4523 C   0  0  0  0  0  0  0  0  0  0  0  0
   10.9437   12.9634   21.4960 N   0  0  0  0  0  0  0  0  0  0  0  0
    9.1157   14.6799   22.1729 O   0  0  0  0  0  0  0  0  0  0  0  0
   10.9560   14.1693   23.7968 O   0  0  0  0  0  0  0  0  0  0  0  0
    5.8745   11.8678   25.0596 O   0  0  0  0  0  0  0  0  0  0  0  0
   10.0473   13.7305   22.7537 S   0  0  0  0  0  0  0  0  0  0  0  0
    6.6830    8.9723   25.1093 Cl  0  0  0  0  0  0  0  0  0  0  0  0
   10.5632   10.8878   22.9367 H   0  0  0  0  0  0  0  0  0  0  0  0
    9.2430    9.0327   23.8615 H   0  0  0  0  0  0  0  0  0  0  0  0
    7.4508   13.6593   24.0198 H   0  0  0  0  0  0  0  0  0  0  0  0
    9.2912   11.8195   20.8128 H   0  0  0  0  0  0  0  0  0  0  0  0
    9.8727   13.0748   19.6672 H   0  0  0  0  0  0  0  0  0  0  0  0
   10.8193   11.5665   19.9032 H   0  0  0  0  0  0  0  0  0  0  0  0
   12.6934   14.1151   21.8395 H   0  0  0  0  0  0  0  0  0  0  0  0
   12.8210   12.9171   20.5072 H   0  0  0  0  0  0  0  0  0  0  0  0
   11.8745   14.4255   20.2712 H   0  0  0  0  0  0  0  0  0  0  0  0
    4.8182   12.3703   26.7625 H   0  0  0  0  0  0  0  0  0  0  0  0
    6.4726   13.0468   26.6474 H   0  0  0  0  0  0  0  0  0  0  0  0
    6.2353   11.3171   27.0107 H   0  0  0  0  0  0  0  0  0  0  0  0
  1  2  1  0  0  0  0
  1  5  2  0  0  0  0
  2  6  2  0  0  0  0
  3  4  2  0  0  0  0
  3  5  1  0  0  0  0
  4  6  1  0  0  0  0
  4 13  1  0  0  0  0
  5 14  1  0  0  0  0
  6 15  1  0  0  0  0
  7 10  1  0  0  0  0
  8 10  1  0  0  0  0
  9 13  1  0  0  0  0
 10 14  1  0  0  0  0
 11 14  2  0  0  0  0
 12 14  2  0  0  0  0
  1 16  1  0  0  0  0
  2 17  1  0  0  0  0
  3 18  1  0  0  0  0
  7 19  1  0  0  0  0
  7 20  1  0  0  0  0
  7 21  1  0  0  0  0
  8 22  1  0  0  0  0
  8 23  1  0  0  0  0
  8 24  1  0  0  0  0
  9 25  1  0  0  0  0
  9 26  1  0  0  0  0
  9 27  1  0  0  0  0
M  END
> <Catalog ID>
Z285130310

> <PlateID>
1337959-R-05

> <Well>
D11

> <MW (desalted)>
249.714

> <CLogP>
2.038

> <HBD>
0

> <TPSA>
46.610

> <RotBonds>
2

> <ROCS_ShapeQuery>
x0446_0A_x1080_0A_x0929_0A_x0812_0A_x0719_0A_x1140_0A_x0528_0A_x0310_0A

> <ROCS_TanimotoCombo>
0.297 

> <ROCS_ShapeTanimoto>
0.187 

> <ROCS_ColorTanimoto>
0.110 

> <ROCS_RefTversky>
0.174 

> <ROCS_RefColorTversky>
0.115 

> <ROCS_RefTverskyCombo>
0.289 

> <ROCS_FitTversky>
1.703 

> <ROCS_FitColorTversky>
0.720 

> <ROCS_FitTverskyCombo>
2.423 

> <ROCS_ColorScore>
-4.078

> <ROCS_Overlap>
2050.058

> <ROCS_Rank>
393                 

$$$$
untitled-dbase-585_8
  -OEChem-02082415003D

 25 25  0     0  0  0  0  0  0999 V2000
    8.2106   10.8265   24.8460 C   0  0  0  0  0  0  0  0  0  0  0  0
    7.8361   12.1446   24.5856 C   0  0  0  0  0  0  0  0  0  0  0  0
    9.1756   10.2059   24.0527 C   0  0  0  0  0  0  0  0  0  0  0  0
    9.3915   12.2217   22.7385 C   0  0  0  0  0  0  0  0  0  0  0  0
    8.4265   12.8422   23.5319 C   0  0  0  0  0  0  0  0  0  0  0  0
    9.7660   10.9035   22.9989 C   0  0  0  0  0  0  0  0  0  0  0  0
   10.1022   14.4998   21.8911 C   0  0  0  0  0  0  0  0  0  0  0  0
   11.5008   16.3335   22.8756 C   0  0  0  0  0  0  0  0  0  0  0  0
   12.3334   14.0154   22.9206 C   0  0  0  0  0  0  0  0  0  0  0  0
   10.0080   13.0079   21.6076 C   0  0  0  0  0  0  0  0  0  0  0  0
   11.2664   14.9316   22.5369 N   0  0  0  0  0  0  0  0  0  0  0  0
    9.1902   15.2626   21.5599 O   0  0  0  0  0  0  0  0  0  0  0  0
    8.0583   14.1084   23.2905 F   0  0  0  0  0  0  0  0  0  0  0  0
   10.9555   10.1014   22.0388 Cl  0  0  0  0  0  0  0  0  0  0  0  0
    7.7501   10.2838   25.6662 H   0  0  0  0  0  0  0  0  0  0  0  0
    7.0847   12.6278   25.2033 H   0  0  0  0  0  0  0  0  0  0  0  0
    9.4565    9.1781   24.2685 H   0  0  0  0  0  0  0  0  0  0  0  0
   11.1036   16.5399   23.8804 H   0  0  0  0  0  0  0  0  0  0  0  0
   12.5813   16.5389   22.8592 H   0  0  0  0  0  0  0  0  0  0  0  0
   10.9941   16.9775   22.1417 H   0  0  0  0  0  0  0  0  0  0  0  0
   13.0582   13.9306   22.0976 H   0  0  0  0  0  0  0  0  0  0  0  0
   12.8410   14.3991   23.8179 H   0  0  0  0  0  0  0  0  0  0  0  0
   11.9061   13.0250   23.1364 H   0  0  0  0  0  0  0  0  0  0  0  0
    9.4093   12.8547   20.7018 H   0  0  0  0  0  0  0  0  0  0  0  0
   11.0135   12.6164   21.4120 H   0  0  0  0  0  0  0  0  0  0  0  0
  1  2  2  0  0  0  0
  1  3  1  0  0  0  0
  2  5  1  0  0  0  0
  3  6  2  0  0  0  0
  4  5  2  0  0  0  0
  4  6  1  0  0  0  0
  4 10  1  0  0  0  0
  5 13  1  0  0  0  0
  6 14  1  0  0  0  0
  7 10  1  0  0  0  0
  7 11  1  0  0  0  0
  7 12  2  0  0  0  0
  8 11  1  0  0  0  0
  9 11  1  0  0  0  0
  1 15  1  0  0  0  0
  2 16  1  0  0  0  0
  3 17  1  0  0  0  0
  8 18  1  0  0  0  0
  8 19  1  0  0  0  0
  8 20  1  0  0  0  0
  9 21  1  0  0  0  0
  9 22  1  0  0  0  0
  9 23  1  0  0  0  0
 10 24  1  0  0  0  0
 10 25  1  0  0  0  0
M  END
> <Catalog ID>
Z32014557

> <PlateID>
1337959-R-13

> <Well>
F06

> <MW (desalted)>
215.652

> <CLogP>
1.822

> <HBD>
0

> <TPSA>
20.310

> <RotBonds>
2

> <ROCS_ShapeQuery>
x0446_0A_x1080_0A_x0929_0A_x0812_0A_x0719_0A_x1140_0A_x0528_0A_x0310_0A

> <ROCS_TanimotoCombo>
0.297 

> <ROCS_ShapeTanimoto>
0.202 

> <ROCS_ColorTanimoto>
0.095 

> <ROCS_RefTversky>
0.185 

> <ROCS_RefColorTversky>
0.096 

> <ROCS_RefTverskyCombo>
0.281 

> <ROCS_FitTversky>
1.839 

> <ROCS_FitColorTversky>
0.906 

> <ROCS_FitTverskyCombo>
2.746 

> <ROCS_ColorScore>
-3.407

> <ROCS_Overlap>
2180.123

> <ROCS_Rank>
394                 

$$$$
untitled-dbase-177_5
  -OEChem-02082415003D

 24 25  0     0  0  0  0  0  0999 V2000
    6.1086   11.6222   25.2447 C   0  0  0  0  0  0  0  0  0  0  0  0
    5.9054   12.7190   24.4072 C   0  0  0  0  0  0  0  0  0  0  0  0
    7.2635   10.8506   25.1156 C   0  0  0  0  0  0  0  0  0  0  0  0
    6.8569   13.0441   23.4405 C   0  0  0  0  0  0  0  0  0  0  0  0
    8.2150   11.1757   24.1489 C   0  0  0  0  0  0  0  0  0  0  0  0
    8.0118   12.2724   23.3113 C   0  0  0  0  0  0  0  0  0  0  0  0
   12.3176   14.7885   23.1957 C   0  0  0  0  0  0  0  0  0  0  0  0
   11.2887   14.2730   22.5420 C   0  0  0  0  0  0  0  0  0  0  0  0
   11.1883   14.9616   21.2527 C   0  0  0  0  0  0  0  0  0  0  0  0
   12.9279   15.7720   22.4605 N   0  0  0  0  0  0  0  0  0  0  0  0
   12.3321   15.9169   21.3481 N   0  0  0  0  0  0  0  0  0  0  0  0
   10.4787   13.2446   23.0618 N   0  0  0  0  0  0  0  0  0  0  0  0
    8.6769   13.7904   21.3076 O   0  0  0  0  0  0  0  0  0  0  0  0
    9.6096   11.4570   21.4283 O   0  0  0  0  0  0  0  0  0  0  0  0
    9.3205   10.4265   24.0338 F   0  0  0  0  0  0  0  0  0  0  0  0
    9.1998   12.6841   22.0996 S   0  0  0  0  0  0  0  0  0  0  0  0
    5.3678   11.3691   25.9975 H   0  0  0  0  0  0  0  0  0  0  0  0
    5.0065   13.3201   24.5083 H   0  0  0  0  0  0  0  0  0  0  0  0
    7.4219    9.9967   25.7675 H   0  0  0  0  0  0  0  0  0  0  0  0
    6.6883   13.9008   22.7935 H   0  0  0  0  0  0  0  0  0  0  0  0
   12.6813   14.5195   24.1758 H   0  0  0  0  0  0  0  0  0  0  0  0
   11.3352   14.2883   20.4035 H   0  0  0  0  0  0  0  0  0  0  0  0
   10.2506   15.5133   21.1423 H   0  0  0  0  0  0  0  0  0  0  0  0
   10.6875   12.8685   23.9932 H   0  0  0  0  0  0  0  0  0  0  0  0
  1  2  1  0  0  0  0
  1  3  2  0  0  0  0
  2  4  2  0  0  0  0
  3  5  1  0  0  0  0
  4  6  1  0  0  0  0
  5  6  2  0  0  0  0
  5 15  1  0  0  0  0
  6 16  1  0  0  0  0
  7  8  2  0  0  0  0
  7 10  1  0  0  0  0
  8  9  1  0  0  0  0
  8 12  1  0  0  0  0
  9 11  1  0  0  0  0
 10 11  2  0  0  0  0
 12 16  1  0  0  0  0
 13 16  2  0  0  0  0
 14 16  2  0  0  0  0
  1 17  1  0  0  0  0
  2 18  1  0  0  0  0
  3 19  1  0  0  0  0
  4 20  1  0  0  0  0
  7 21  1  0  0  0  0
  9 22  1  0  0  0  0
  9 23  1  0  0  0  0
 12 24  1  0  0  0  0
M  END
> <Catalog ID>
Z431547414

> <PlateID>
1337959-R-04

> <Well>
F02

> <MW (desalted)>
241.242

> <CLogP>
1.523

> <HBD>
2

> <TPSA>
74.850

> <RotBonds>
2

> <ROCS_ShapeQuery>
x0446_0A_x1080_0A_x0929_0A_x0812_0A_x0719_0A_x1140_0A_x0528_0A_x0310_0A

> <ROCS_TanimotoCombo>
0.297 

> <ROCS_ShapeTanimoto>
0.201 

> <ROCS_ColorTanimoto>
0.095 

> <ROCS_RefTversky>
0.186 

> <ROCS_RefColorTversky>
0.103 

> <ROCS_RefTverskyCombo>
0.289 

> <ROCS_FitTversky>
1.701 

> <ROCS_FitColorTversky>
0.556 

> <ROCS_FitTverskyCombo>
2.257 

> <ROCS_ColorScore>
-3.676

> <ROCS_Overlap>
2194.605

> <ROCS_Rank>
395                 

$$$$
untitled-dbase-412_6
  -OEChem-02082415003D

 32 33  0     0  0  0  0  0  0999 V2000
   12.3575   16.0994   22.2670 C   0  0  0  0  0  0  0  0  0  0  0  0
   12.7817   15.0346   23.0620 C   0  0  0  0  0  0  0  0  0  0  0  0
   10.6205   14.7068   21.3286 C   0  0  0  0  0  0  0  0  0  0  0  0
   11.0447   13.6420   22.1235 C   0  0  0  0  0  0  0  0  0  0  0  0
   11.2768   15.9355   21.4004 C   0  0  0  0  0  0  0  0  0  0  0  0
   12.1253   13.8059   22.9902 C   0  0  0  0  0  0  0  0  0  0  0  0
   10.3555   12.3591   22.0464 C   0  0  0  0  0  0  0  0  0  0  0  0
    7.8019   12.5019   24.5706 C   0  0  0  0  0  0  0  0  0  0  0  0
    8.2078   10.0952   23.9270 C   0  0  0  0  0  0  0  0  0  0  0  0
    9.2586   12.8104   24.2295 C   0  0  0  0  0  0  0  0  0  0  0  0
    9.6565   10.4576   23.6096 C   0  0  0  0  0  0  0  0  0  0  0  0
    7.6239   11.0351   24.9940 C   0  0  0  0  0  0  0  0  0  0  0  0
    6.1524   10.7184   25.2497 C   0  0  0  0  0  0  0  0  0  0  0  0
    9.7626   11.8718   23.2255 N   0  0  0  0  0  0  0  0  0  0  0  0
   10.3097   11.7443   20.9794 O   0  0  0  0  0  0  0  0  0  0  0  0
   10.8689   16.9580   20.6374 F   0  0  0  0  0  0  0  0  0  0  0  0
   12.5413   12.7897   23.7591 F   0  0  0  0  0  0  0  0  0  0  0  0
   12.8680   17.0563   22.3225 H   0  0  0  0  0  0  0  0  0  0  0  0
   13.6222   15.1629   23.7375 H   0  0  0  0  0  0  0  0  0  0  0  0
    9.7797   14.5910   20.6496 H   0  0  0  0  0  0  0  0  0  0  0  0
    7.4709   13.1651   25.3785 H   0  0  0  0  0  0  0  0  0  0  0  0
    7.1716   12.7218   23.6993 H   0  0  0  0  0  0  0  0  0  0  0  0
    7.6095   10.1470   23.0084 H   0  0  0  0  0  0  0  0  0  0  0  0
    8.1621    9.0582   24.2801 H   0  0  0  0  0  0  0  0  0  0  0  0
    9.3466   13.8415   23.8723 H   0  0  0  0  0  0  0  0  0  0  0  0
    9.8918   12.7141   25.1194 H   0  0  0  0  0  0  0  0  0  0  0  0
   10.2915   10.3103   24.4915 H   0  0  0  0  0  0  0  0  0  0  0  0
   10.0342    9.7981   22.8243 H   0  0  0  0  0  0  0  0  0  0  0  0
    8.1728   10.8770   25.9320 H   0  0  0  0  0  0  0  0  0  0  0  0
    5.5783   10.8658   24.3361 H   0  0  0  0  0  0  0  0  0  0  0  0
    5.7622   11.3755   26.0254 H   0  0  0  0  0  0  0  0  0  0  0  0
    6.0478    9.6838   25.5732 H   0  0  0  0  0  0  0  0  0  0  0  0
  1  2  1  0  0  0  0
  1  5  2  0  0  0  0
  2  6  2  0  0  0  0
  3  4  2  0  0  0  0
  3  5  1  0  0  0  0
  4  6  1  0  0  0  0
  4  7  1  0  0  0  0
  5 16  1  0  0  0  0
  6 17  1  0  0  0  0
  7 14  1  0  0  0  0
  7 15  2  0  0  0  0
  8 10  1  0  0  0  0
  8 12  1  0  0  0  0
  9 11  1  0  0  0  0
  9 12  1  0  0  0  0
 10 14  1  0  0  0  0
 11 14  1  0  0  0  0
 12 13  1  0  0  0  0
  1 18  1  0  0  0  0
  2 19  1  0  0  0  0
  3 20  1  0  0  0  0
  8 21  1  0  0  0  0
  8 22  1  0  0  0  0
  9 23  1  0  0  0  0
  9 24  1  0  0  0  0
 10 25  1  0  0  0  0
 10 26  1  0  0  0  0
 11 27  1  0  0  0  0
 11 28  1  0  0  0  0
 12 29  1  0  0  0  0
 13 30  1  0  0  0  0
 13 31  1  0  0  0  0
 13 32  1  0  0  0  0
M  END
> <Catalog ID>
Z82198762

> <PlateID>
1337959-R-09

> <Well>
G06

> <MW (desalted)>
239.261

> <CLogP>
2.707

> <HBD>
0

> <TPSA>
20.310

> <RotBonds>
1

> <ROCS_ShapeQuery>
x0446_0A_x1080_0A_x0929_0A_x0812_0A_x0719_0A_x1140_0A_x0528_0A_x0310_0A

> <ROCS_TanimotoCombo>
0.297 

> <ROCS_ShapeTanimoto>
0.213 

> <ROCS_ColorTanimoto>
0.084 

> <ROCS_RefTversky>
0.195 

> <ROCS_RefColorTversky>
0.088 

> <ROCS_RefTverskyCombo>
0.283 

> <ROCS_FitTversky>
1.728 

> <ROCS_FitColorTversky>
0.664 

> <ROCS_FitTverskyCombo>
2.392 

> <ROCS_ColorScore>
-3.126

> <ROCS_Overlap>
2301.562

> <ROCS_Rank>
396                 

$$$$
untitled-dbase-34_0
  -OEChem-02082415003D

 24 25  0     0  0  0  0  0  0999 V2000
    7.9562   12.1293   23.9538 C   0  0  0  0  0  0  0  0  0  0  0  0
    7.4345   10.8569   24.0667 C   0  0  0  0  0  0  0  0  0  0  0  0
    9.3501   11.9628   23.8050 C   0  0  0  0  0  0  0  0  0  0  0  0
    9.5737   10.6077   23.8304 C   0  0  0  0  0  0  0  0  0  0  0  0
   10.4480   12.8868   23.6355 C   0  0  0  0  0  0  0  0  0  0  0  0
   10.8603    9.8903   23.7038 C   0  0  0  0  0  0  0  0  0  0  0  0
   11.8502   12.2685   23.6159 C   0  0  0  0  0  0  0  0  0  0  0  0
   11.9110   10.8243   23.0288 C   0  0  0  0  0  0  0  0  0  0  0  0
   13.3165   10.2469   23.2781 C   0  0  0  0  0  0  0  0  0  0  0  0
   11.6795   10.8727   21.5031 C   0  0  0  0  0  0  0  0  0  0  0  0
   10.2781   14.1009   23.5726 O   0  0  0  0  0  0  0  0  0  0  0  0
    8.4197    9.9177   23.9923 O   0  0  0  0  0  0  0  0  0  0  0  0
    7.3947   13.0522   23.9780 H   0  0  0  0  0  0  0  0  0  0  0  0
    6.4341   10.4704   24.1965 H   0  0  0  0  0  0  0  0  0  0  0  0
   11.1957    9.6091   24.7097 H   0  0  0  0  0  0  0  0  0  0  0  0
   10.7347    8.9651   23.1298 H   0  0  0  0  0  0  0  0  0  0  0  0
   12.5072   12.9348   23.0437 H   0  0  0  0  0  0  0  0  0  0  0  0
   12.2053   12.2656   24.6545 H   0  0  0  0  0  0  0  0  0  0  0  0
   14.0543   10.8907   22.8117 H   0  0  0  0  0  0  0  0  0  0  0  0
   13.3746    9.2525   22.8491 H   0  0  0  0  0  0  0  0  0  0  0  0
   13.4969   10.1965   24.3464 H   0  0  0  0  0  0  0  0  0  0  0  0
   12.4185   11.5256   21.0549 H   0  0  0  0  0  0  0  0  0  0  0  0
   10.6840   11.2536   21.3096 H   0  0  0  0  0  0  0  0  0  0  0  0
   11.7772    9.8720   21.0999 H   0  0  0  0  0  0  0  0  0  0  0  0
  1  2  2  0  0  0  0
  1  3  1  0  0  0  0
  2 12  1  0  0  0  0
  3  4  2  0  0  0  0
  3  5  1  0  0  0  0
  4  6  1  0  0  0  0
  4 12  1  0  0  0  0
  5  7  1  0  0  0  0
  5 11  2  0  0  0  0
  6  8  1  0  0  0  0
  7  8  1  0  0  0  0
  8  9  1  0  0  0  0
  8 10  1  0  0  0  0
  1 13  1  0  0  0  0
  2 14  1  0  0  0  0
  6 15  1  0  0  0  0
  6 16  1  0  0  0  0
  7 17  1  0  0  0  0
  7 18  1  0  0  0  0
  9 19  1  0  0  0  0
  9 20  1  0  0  0  0
  9 21  1  0  0  0  0
 10 22  1  0  0  0  0
 10 23  1  0  0  0  0
 10 24  1  0  0  0  0
M  END
> <Catalog ID>
Z1157725438

> <PlateID>
1337959-R-01

> <Well>
E09

> <MW (desalted)>
164.201

> <CLogP>
2.339

> <HBD>
0

> <TPSA>
30.210

> <RotBonds>
0

> <ROCS_ShapeQuery>
x0446_0A_x1080_0A_x0929_0A_x0812_0A_x0719_0A_x1140_0A_x0528_0A_x0310_0A

> <ROCS_TanimotoCombo>
0.297 

> <ROCS_ShapeTanimoto>
0.167 

> <ROCS_ColorTanimoto>
0.130 

> <ROCS_RefTversky>
0.157 

> <ROCS_RefColorTversky>
0.136 

> <ROCS_RefTverskyCombo>
0.293 

> <ROCS_FitTversky>
1.636 

> <ROCS_FitColorTversky>
0.732 

> <ROCS_FitTverskyCombo>
2.368 

> <ROCS_ColorScore>
-4.854

> <ROCS_Overlap>
1846.062

> <ROCS_Rank>
397                 

$$$$
untitled-dbase-555_5
  -OEChem-02082415003D

 34 35  0     1  0  0  0  0  0999 V2000
    8.2218   12.0811   24.6549 C   0  0  0  0  0  0  0  0  0  0  0  0
    8.0004   10.7773   25.0983 C   0  0  0  0  0  0  0  0  0  0  0  0
    9.5188   11.2309   22.8024 C   0  0  0  0  0  0  0  0  0  0  0  0
    8.9810   12.3080   23.5069 C   0  0  0  0  0  0  0  0  0  0  0  0
    9.2974    9.9271   23.2457 C   0  0  0  0  0  0  0  0  0  0  0  0
    8.5382    9.7003   24.3937 C   0  0  0  0  0  0  0  0  0  0  0  0
    9.2118   13.6791   23.0402 C   0  0  0  0  0  0  0  0  0  0  0  0
    7.2005   16.4074   21.8083 C   0  0  0  0  0  0  0  0  0  0  0  0
    8.4792   15.5895   21.6555 C   0  0  0  0  0  0  0  0  0  0  0  0
    7.1314   13.5303   21.5783 C   0  0  0  0  0  0  0  0  0  0  0  0
    5.8510   14.3651   21.7243 C   0  0  1  0  0  0  0  0  0  0  0  0
    9.8724    8.7768   22.4899 C   0  0  0  0  0  0  0  0  0  0  0  0
    5.3244   14.3503   23.1628 C   0  0  0  0  0  0  0  0  0  0  0  0
    6.0446   15.7311   21.2198 N   0  0  0  0  0  0  0  0  0  0  0  0
    8.2920   14.2266   22.1442 N   0  0  0  0  0  0  0  0  0  0  0  0
   10.2094   14.2444   23.4844 O   0  0  0  0  0  0  0  0  0  0  0  0
    8.3204    8.4511   24.8281 F   0  0  0  0  0  0  0  0  0  0  0  0
    7.7971   12.9129   25.2111 H   0  0  0  0  0  0  0  0  0  0  0  0
    7.4074   10.6004   25.9908 H   0  0  0  0  0  0  0  0  0  0  0  0
   10.1105   11.4060   21.9064 H   0  0  0  0  0  0  0  0  0  0  0  0
    7.0037   16.5823   22.8726 H   0  0  0  0  0  0  0  0  0  0  0  0
    7.3251   17.3962   21.3483 H   0  0  0  0  0  0  0  0  0  0  0  0
    8.7952   15.6026   20.6096 H   0  0  0  0  0  0  0  0  0  0  0  0
    9.2877   16.0339   22.2480 H   0  0  0  0  0  0  0  0  0  0  0  0
    7.0432   12.5777   22.1136 H   0  0  0  0  0  0  0  0  0  0  0  0
    7.3101   13.2958   20.5245 H   0  0  0  0  0  0  0  0  0  0  0  0
    5.0549   13.8769   21.0888 H   0  0  0  0  0  0  0  0  0  0  0  0
   10.8721    8.5323   22.8691 H   0  0  0  0  0  0  0  0  0  0  0  0
    9.2386    7.8850   22.5791 H   0  0  0  0  0  0  0  0  0  0  0  0
    9.9521    9.0040   21.4189 H   0  0  0  0  0  0  0  0  0  0  0  0
    6.0534   14.8111   23.8274 H   0  0  0  0  0  0  0  0  0  0  0  0
    5.1500   13.3240   23.4814 H   0  0  0  0  0  0  0  0  0  0  0  0
    4.3893   14.9053   23.2192 H   0  0  0  0  0  0  0  0  0  0  0  0
    5.1995   16.2843   21.4187 H   0  0  0  0  0  0  0  0  0  0  0  0
  1  2  1  0  0  0  0
  1  4  2  0  0  0  0
  2  6  2  0  0  0  0
  3  4  1  0  0  0  0
  3  5  2  0  0  0  0
  4  7  1  0  0  0  0
  5  6  1  0  0  0  0
  5 12  1  0  0  0  0
  6 17  1  0  0  0  0
  7 15  1  0  0  0  0
  7 16  2  0  0  0  0
  8  9  1  0  0  0  0
  8 14  1  0  0  0  0
  9 15  1  0  0  0  0
 10 11  1  0  0  0  0
 10 15  1  0  0  0  0
 11 13  1  6  0  0  0
 11 14  1  0  0  0  0
  1 18  1  0  0  0  0
  2 19  1  0  0  0  0
  3 20  1  0  0  0  0
  8 21  1  0  0  0  0
  8 22  1  0  0  0  0
  9 23  1  0  0  0  0
  9 24  1  0  0  0  0
 10 25  1  0  0  0  0
 10 26  1  0  0  0  0
 11 27  1  0  0  0  0
 12 28  1  0  0  0  0
 12 29  1  0  0  0  0
 12 30  1  0  0  0  0
 13 31  1  0  0  0  0
 13 32  1  0  0  0  0
 13 33  1  0  0  0  0
 14 34  1  0  0  0  0
M  END
> <Catalog ID>
Z1449601486

> <PlateID>
1337959-R-13

> <Well>
A05

> <MW (desalted)>
236.285

> <CLogP>
1.995

> <HBD>
1

> <TPSA>
32.340

> <RotBonds>
1

> <ROCS_ShapeQuery>
x0446_0A_x1080_0A_x0929_0A_x0812_0A_x0719_0A_x1140_0A_x0528_0A_x0310_0A

> <ROCS_TanimotoCombo>
0.297 

> <ROCS_ShapeTanimoto>
0.197 

> <ROCS_ColorTanimoto>
0.099 

> <ROCS_RefTversky>
0.184 

> <ROCS_RefColorTversky>
0.107 

> <ROCS_RefTverskyCombo>
0.290 

> <ROCS_FitTversky>
1.628 

> <ROCS_FitColorTversky>
0.575 

> <ROCS_FitTverskyCombo>
2.203 

> <ROCS_ColorScore>
-3.803

> <ROCS_Overlap>
2165.499

> <ROCS_Rank>
398                 

$$$$
untitled-dbase-178_4
  -OEChem-02082415003D

 34 36  0     0  0  0  0  0  0999 V2000
    5.7899    9.8631   24.2939 C   0  0  0  0  0  0  0  0  0  0  0  0
    5.4339   11.0845   24.8480 C   0  0  0  0  0  0  0  0  0  0  0  0
    7.0698    9.6741   23.7659 C   0  0  0  0  0  0  0  0  0  0  0  0
    6.3459   12.1409   24.8869 C   0  0  0  0  0  0  0  0  0  0  0  0
    8.0175   10.7258   23.7901 C   0  0  0  0  0  0  0  0  0  0  0  0
    9.3720   10.7731   23.3175 C   0  0  0  0  0  0  0  0  0  0  0  0
    7.6354   11.9471   24.3537 C   0  0  0  0  0  0  0  0  0  0  0  0
    9.9694   11.9933   23.5269 C   0  0  0  0  0  0  0  0  0  0  0  0
   11.3294   12.4323   23.1863 C   0  0  0  0  0  0  0  0  0  0  0  0
   11.1733   15.5236   21.1777 C   0  0  0  0  0  0  0  0  0  0  0  0
   13.3633   15.2571   22.1434 C   0  0  0  0  0  0  0  0  0  0  0  0
   10.5446   14.6842   22.2890 C   0  0  0  0  0  0  0  0  0  0  0  0
   12.7878   14.4247   23.2851 C   0  0  0  0  0  0  0  0  0  0  0  0
   10.0566    9.6237   22.6698 C   0  0  0  0  0  0  0  0  0  0  0  0
   12.3762   16.2161   21.6438 N   0  0  0  0  0  0  0  0  0  0  0  0
   11.5330   13.7834   22.8950 N   0  0  0  0  0  0  0  0  0  0  0  0
   12.1989   11.5621   23.1908 O   0  0  0  0  0  0  0  0  0  0  0  0
    8.9190   13.0968   24.2910 S   0  0  0  0  0  0  0  0  0  0  0  0
    5.0716    9.0484   24.2695 H   0  0  0  0  0  0  0  0  0  0  0  0
    4.4356   11.2220   25.2547 H   0  0  0  0  0  0  0  0  0  0  0  0
    7.3298    8.7101   23.3356 H   0  0  0  0  0  0  0  0  0  0  0  0
    6.0584   13.0937   25.3224 H   0  0  0  0  0  0  0  0  0  0  0  0
   11.4129   14.8909   20.3142 H   0  0  0  0  0  0  0  0  0  0  0  0
   10.4471   16.2694   20.8367 H   0  0  0  0  0  0  0  0  0  0  0  0
   14.2386   15.8069   22.5060 H   0  0  0  0  0  0  0  0  0  0  0  0
   13.7067   14.6046   21.3311 H   0  0  0  0  0  0  0  0  0  0  0  0
   10.1691   15.3304   23.0921 H   0  0  0  0  0  0  0  0  0  0  0  0
    9.6902   14.1331   21.8875 H   0  0  0  0  0  0  0  0  0  0  0  0
   13.5211   13.6778   23.6059 H   0  0  0  0  0  0  0  0  0  0  0  0
   12.5692   15.0600   24.1523 H   0  0  0  0  0  0  0  0  0  0  0  0
    9.9030    9.6447   21.5821 H   0  0  0  0  0  0  0  0  0  0  0  0
   11.1388    9.6369   22.8644 H   0  0  0  0  0  0  0  0  0  0  0  0
    9.6812    8.6632   23.0517 H   0  0  0  0  0  0  0  0  0  0  0  0
   12.7811   16.7449   20.8718 H   0  0  0  0  0  0  0  0  0  0  0  0
  1  2  2  0  0  0  0
  1  3  1  0  0  0  0
  2  4  1  0  0  0  0
  3  5  2  0  0  0  0
  4  7  2  0  0  0  0
  5  6  1  0  0  0  0
  5  7  1  0  0  0  0
  6  8  2  0  0  0  0
  6 14  1  0  0  0  0
  7 18  1  0  0  0  0
  8  9  1  0  0  0  0
  8 18  1  0  0  0  0
  9 16  1  0  0  0  0
  9 17  2  0  0  0  0
 10 12  1  0  0  0  0
 10 15  1  0  0  0  0
 11 13  1  0  0  0  0
 11 15  1  0  0  0  0
 12 16  1  0  0  0  0
 13 16  1  0  0  0  0
  1 19  1  0  0  0  0
  2 20  1  0  0  0  0
  3 21  1  0  0  0  0
  4 22  1  0  0  0  0
 10 23  1  0  0  0  0
 10 24  1  0  0  0  0
 11 25  1  0  0  0  0
 11 26  1  0  0  0  0
 12 27  1  0  0  0  0
 12 28  1  0  0  0  0
 13 29  1  0  0  0  0
 13 30  1  0  0  0  0
 14 31  1  0  0  0  0
 14 32  1  0  0  0  0
 14 33  1  0  0  0  0
 15 34  1  0  0  0  0
M  END
> <Catalog ID>
Z1255523388

> <PlateID>
1337959-R-04

> <Well>
F03

> <MW (desalted)>
260.355

> <CLogP>
2.417

> <HBD>
1

> <TPSA>
32.340

> <RotBonds>
1

> <ROCS_ShapeQuery>
x0446_0A_x1080_0A_x0929_0A_x0812_0A_x0719_0A_x1140_0A_x0528_0A_x0310_0A

> <ROCS_TanimotoCombo>
0.296 

> <ROCS_ShapeTanimoto>
0.225 

> <ROCS_ColorTanimoto>
0.071 

> <ROCS_RefTversky>
0.205 

> <ROCS_RefColorTversky>
0.081 

> <ROCS_RefTverskyCombo>
0.286 

> <ROCS_FitTversky>
1.761 

> <ROCS_FitColorTversky>
0.379 

> <ROCS_FitTverskyCombo>
2.141 

> <ROCS_ColorScore>
-2.873

> <ROCS_Overlap>
2422.423

> <ROCS_Rank>
399                 

$$$$
untitled-dbase-13_4
  -OEChem-02082415003D

 28 29  0     0  0  0  0  0  0999 V2000
    5.5949   12.3793   25.4983 C   0  0  0  0  0  0  0  0  0  0  0  0
    6.9634   11.6860   25.6763 C   0  0  0  0  0  0  0  0  0  0  0  0
    6.1249   12.9184   24.1517 C   0  0  0  0  0  0  0  0  0  0  0  0
    9.4636   11.1545   24.3985 C   0  0  0  0  0  0  0  0  0  0  0  0
    7.9300   10.9832   22.9923 C   0  0  0  0  0  0  0  0  0  0  0  0
    7.5437   12.7738   24.7453 C   0  0  0  0  0  0  0  0  0  0  0  0
    8.5386   12.1959   23.7306 C   0  0  0  0  0  0  0  0  0  0  0  0
   10.7920   14.9866   22.9110 C   0  0  0  0  0  0  0  0  0  0  0  0
    9.2161   13.2439   22.8633 C   0  0  0  0  0  0  0  0  0  0  0  0
    9.1611   10.2181   23.2927 N   0  0  0  0  0  0  0  0  0  0  0  0
   10.1212   13.9842   23.6651 O   0  0  0  0  0  0  0  0  0  0  0  0
    4.7290   11.7154   25.4373 H   0  0  0  0  0  0  0  0  0  0  0  0
    5.3967   13.1609   26.2406 H   0  0  0  0  0  0  0  0  0  0  0  0
    7.3561   11.6764   26.6965 H   0  0  0  0  0  0  0  0  0  0  0  0
    6.9885   10.6650   25.2772 H   0  0  0  0  0  0  0  0  0  0  0  0
    5.9026   12.2609   23.3031 H   0  0  0  0  0  0  0  0  0  0  0  0
    5.8175   13.9368   23.9001 H   0  0  0  0  0  0  0  0  0  0  0  0
   10.5194   11.4316   24.4809 H   0  0  0  0  0  0  0  0  0  0  0  0
    9.1337   10.7792   25.3747 H   0  0  0  0  0  0  0  0  0  0  0  0
    7.0354   10.5448   23.4508 H   0  0  0  0  0  0  0  0  0  0  0  0
    7.7313   11.1200   21.9246 H   0  0  0  0  0  0  0  0  0  0  0  0
    7.8945   13.6687   25.2754 H   0  0  0  0  0  0  0  0  0  0  0  0
   11.4787   15.5342   23.5610 H   0  0  0  0  0  0  0  0  0  0  0  0
   10.0578   15.6714   22.4792 H   0  0  0  0  0  0  0  0  0  0  0  0
   11.3576   14.5083   22.1078 H   0  0  0  0  0  0  0  0  0  0  0  0
    8.4729   13.9248   22.4434 H   0  0  0  0  0  0  0  0  0  0  0  0
    9.7684   12.7642   22.0525 H   0  0  0  0  0  0  0  0  0  0  0  0
    9.8478   10.2577   22.5389 H   0  0  0  0  0  0  0  0  0  0  0  0
  1  2  1  0  0  0  0
  1  3  1  0  0  0  0
  2  6  1  0  0  0  0
  3  6  1  0  0  0  0
  4  7  1  0  0  0  0
  4 10  1  0  0  0  0
  5  7  1  0  0  0  0
  5 10  1  0  0  0  0
  6  7  1  0  0  0  0
  7  9  1  0  0  0  0
  8 11  1  0  0  0  0
  9 11  1  0  0  0  0
  1 12  1  0  0  0  0
  1 13  1  0  0  0  0
  2 14  1  0  0  0  0
  2 15  1  0  0  0  0
  3 16  1  0  0  0  0
  3 17  1  0  0  0  0
  4 18  1  0  0  0  0
  4 19  1  0  0  0  0
  5 20  1  0  0  0  0
  5 21  1  0  0  0  0
  6 22  1  0  0  0  0
  8 23  1  0  0  0  0
  8 24  1  0  0  0  0
  8 25  1  0  0  0  0
  9 26  1  0  0  0  0
  9 27  1  0  0  0  0
 10 28  1  0  0  0  0
M  END
> <Catalog ID>
Z2510243823

> <PlateID>
1337959-R-01

> <Well>
B10

> <MW (desalted)>
155.237

> <CLogP>
0.497

> <HBD>
1

> <TPSA>
21.260

> <RotBonds>
3

> <ROCS_ShapeQuery>
x0446_0A_x1080_0A_x0929_0A_x0812_0A_x0719_0A_x1140_0A_x0528_0A_x0310_0A

> <ROCS_TanimotoCombo>
0.296 

> <ROCS_ShapeTanimoto>
0.167 

> <ROCS_ColorTanimoto>
0.130 

> <ROCS_RefTversky>
0.156 

> <ROCS_RefColorTversky>
0.136 

> <ROCS_RefTverskyCombo>
0.292 

> <ROCS_FitTversky>
1.729 

> <ROCS_FitColorTversky>
0.732 

> <ROCS_FitTverskyCombo>
2.462 

> <ROCS_ColorScore>
-4.840

> <ROCS_Overlap>
1835.479

> <ROCS_Rank>
400                 

$$$$
untitled-dbase-203_2
  -OEChem-02082415003D

 25 26  0     0  0  0  0  0  0999 V2000
   10.2782   13.8072   23.2760 C   0  0  0  0  0  0  0  0  0  0  0  0
    8.7031   12.7938   21.6053 C   0  0  0  0  0  0  0  0  0  0  0  0
   10.0210   11.2813   23.1653 C   0  0  0  0  0  0  0  0  0  0  0  0
    7.8214   11.0169   24.0097 C   0  0  0  0  0  0  0  0  0  0  0  0
    9.6284   15.1487   22.9645 C   0  0  0  0  0  0  0  0  0  0  0  0
    8.1820   14.2056   21.3465 C   0  0  0  0  0  0  0  0  0  0  0  0
    9.3182   12.6364   23.0188 C   0  0  0  0  0  0  0  0  0  0  0  0
    8.2572   12.4662   24.1073 C   0  0  0  0  0  0  0  0  0  0  0  0
    8.9396   10.3016   23.3666 N   0  0  0  0  0  0  0  0  0  0  0  0
    9.1852   15.1832   21.6098 O   0  0  0  0  0  0  0  0  0  0  0  0
    7.2241   13.3166   23.9935 F   0  0  0  0  0  0  0  0  0  0  0  0
    8.8043   12.6631   25.3357 F   0  0  0  0  0  0  0  0  0  0  0  0
   11.1996   13.6998   22.6909 H   0  0  0  0  0  0  0  0  0  0  0  0
   10.5674   13.7954   24.3356 H   0  0  0  0  0  0  0  0  0  0  0  0
    7.8525   12.1007   21.5190 H   0  0  0  0  0  0  0  0  0  0  0  0
    9.4103   12.5175   20.8119 H   0  0  0  0  0  0  0  0  0  0  0  0
   10.6345   11.0077   22.3022 H   0  0  0  0  0  0  0  0  0  0  0  0
   10.6716   11.2647   24.0482 H   0  0  0  0  0  0  0  0  0  0  0  0
    7.6217   10.5908   24.9979 H   0  0  0  0  0  0  0  0  0  0  0  0
    6.9153   10.9179   23.4015 H   0  0  0  0  0  0  0  0  0  0  0  0
    8.7523   15.2920   23.6035 H   0  0  0  0  0  0  0  0  0  0  0  0
   10.3115   15.9843   23.1497 H   0  0  0  0  0  0  0  0  0  0  0  0
    7.8173   14.3240   20.3189 H   0  0  0  0  0  0  0  0  0  0  0  0
    7.3365   14.4121   22.0126 H   0  0  0  0  0  0  0  0  0  0  0  0
    8.6264    9.9606   22.4584 H   0  0  0  0  0  0  0  0  0  0  0  0
  1  5  1  0  0  0  0
  1  7  1  0  0  0  0
  2  6  1  0  0  0  0
  2  7  1  0  0  0  0
  3  7  1  0  0  0  0
  3  9  1  0  0  0  0
  4  8  1  0  0  0  0
  4  9  1  0  0  0  0
  5 10  1  0  0  0  0
  6 10  1  0  0  0  0
  7  8  1  0  0  0  0
  8 11  1  0  0  0  0
  8 12  1  0  0  0  0
  1 13  1  0  0  0  0
  1 14  1  0  0  0  0
  2 15  1  0  0  0  0
  2 16  1  0  0  0  0
  3 17  1  0  0  0  0
  3 18  1  0  0  0  0
  4 19  1  0  0  0  0
  4 20  1  0  0  0  0
  5 21  1  0  0  0  0
  5 22  1  0  0  0  0
  6 23  1  0  0  0  0
  6 24  1  0  0  0  0
  9 25  1  0  0  0  0
M  END
> <Catalog ID>
Z2733006690

> <PlateID>
1337959-R-05

> <Well>
A06

> <MW (desalted)>
177.192

> <CLogP>
0.254

> <HBD>
1

> <TPSA>
21.260

> <RotBonds>
0

> <ROCS_ShapeQuery>
x0446_0A_x1080_0A_x0929_0A_x0812_0A_x0719_0A_x1140_0A_x0528_0A_x0310_0A

> <ROCS_TanimotoCombo>
0.296 

> <ROCS_ShapeTanimoto>
0.185 

> <ROCS_ColorTanimoto>
0.111 

> <ROCS_RefTversky>
0.171 

> <ROCS_RefColorTversky>
0.118 

> <ROCS_RefTverskyCombo>
0.290 

> <ROCS_FitTversky>
1.791 

> <ROCS_FitColorTversky>
0.638 

> <ROCS_FitTverskyCombo>
2.429 

> <ROCS_ColorScore>
-4.215

> <ROCS_Overlap>
2018.441

> <ROCS_Rank>
401                 

$$$$
untitled-dbase-553_18
  -OEChem-02082415003D

 34 35  0     0  0  0  0  0  0999 V2000
    8.5554    9.4611   24.2946 C   0  0  0  0  0  0  0  0  0  0  0  0
    7.7429   10.4695   24.8129 C   0  0  0  0  0  0  0  0  0  0  0  0
    9.9534   11.1278   23.2435 C   0  0  0  0  0  0  0  0  0  0  0  0
    9.1409   12.1362   23.7617 C   0  0  0  0  0  0  0  0  0  0  0  0
    9.6607    9.7903   23.5099 C   0  0  0  0  0  0  0  0  0  0  0  0
    8.0356   11.8070   24.5465 C   0  0  0  0  0  0  0  0  0  0  0  0
    9.4490   13.5335   23.4805 C   0  0  0  0  0  0  0  0  0  0  0  0
    8.3195   15.8932   20.9421 C   0  0  0  0  0  0  0  0  0  0  0  0
    6.8484   13.8351   21.0085 C   0  0  0  0  0  0  0  0  0  0  0  0
    8.5903   15.7045   22.4341 C   0  0  0  0  0  0  0  0  0  0  0  0
    7.1735   13.6866   22.4957 C   0  0  0  0  0  0  0  0  0  0  0  0
    6.9767   15.2838   20.5198 C   0  0  0  0  0  0  0  0  0  0  0  0
   10.5293    8.7121   22.9558 C   0  0  0  0  0  0  0  0  0  0  0  0
    8.4717   14.2879   22.8054 N   0  0  0  0  0  0  0  0  0  0  0  0
    5.8725   16.0933   20.9815 N   0  0  0  0  0  0  0  0  0  0  0  0
   10.5289   14.0118   23.8322 O   0  0  0  0  0  0  0  0  0  0  0  0
    7.2479   12.7681   25.0492 F   0  0  0  0  0  0  0  0  0  0  0  0
    8.3190    8.4217   24.5064 H   0  0  0  0  0  0  0  0  0  0  0  0
    6.8820   10.2130   25.4231 H   0  0  0  0  0  0  0  0  0  0  0  0
   10.8159   11.3822   22.6311 H   0  0  0  0  0  0  0  0  0  0  0  0
    8.3533   16.9606   20.6918 H   0  0  0  0  0  0  0  0  0  0  0  0
    9.1254   15.4146   20.3704 H   0  0  0  0  0  0  0  0  0  0  0  0
    7.5395   13.2056   20.4326 H   0  0  0  0  0  0  0  0  0  0  0  0
    5.8417   13.4476   20.8101 H   0  0  0  0  0  0  0  0  0  0  0  0
    9.5827   16.0966   22.6711 H   0  0  0  0  0  0  0  0  0  0  0  0
    7.8732   16.2658   23.0438 H   0  0  0  0  0  0  0  0  0  0  0  0
    6.4207   14.1845   23.1172 H   0  0  0  0  0  0  0  0  0  0  0  0
    7.1676   12.6262   22.7684 H   0  0  0  0  0  0  0  0  0  0  0  0
    6.9377   15.2777   19.4177 H   0  0  0  0  0  0  0  0  0  0  0  0
   10.1649    8.3965   21.9705 H   0  0  0  0  0  0  0  0  0  0  0  0
   11.5679    9.0519   22.8501 H   0  0  0  0  0  0  0  0  0  0  0  0
   10.5478    7.8359   23.6171 H   0  0  0  0  0  0  0  0  0  0  0  0
    5.2916   15.5231   21.5464 H   0  0  0  0  0  0  0  0  0  0  0  0
    6.2457   16.8476   21.5043 H   0  0  0  0  0  0  0  0  0  0  0  0
  1  2  1  0  0  0  0
  1  5  2  0  0  0  0
  2  6  2  0  0  0  0
  3  4  2  0  0  0  0
  3  5  1  0  0  0  0
  4  6  1  0  0  0  0
  4  7  1  0  0  0  0
  5 13  1  0  0  0  0
  6 17  1  0  0  0  0
  7 14  1  0  0  0  0
  7 16  2  0  0  0  0
  8 10  1  0  0  0  0
  8 12  1  0  0  0  0
  9 11  1  0  0  0  0
  9 12  1  0  0  0  0
 10 14  1  0  0  0  0
 11 14  1  0  0  0  0
 12 15  1  0  0  0  0
  1 18  1  0  0  0  0
  2 19  1  0  0  0  0
  3 20  1  0  0  0  0
  8 21  1  0  0  0  0
  8 22  1  0  0  0  0
  9 23  1  0  0  0  0
  9 24  1  0  0  0  0
 10 25  1  0  0  0  0
 10 26  1  0  0  0  0
 11 27  1  0  0  0  0
 11 28  1  0  0  0  0
 12 29  1  0  0  0  0
 13 30  1  0  0  0  0
 13 31  1  0  0  0  0
 13 32  1  0  0  0  0
 15 33  1  0  0  0  0
 15 34  1  0  0  0  0
M  END
> <Catalog ID>
Z992338700

> <PlateID>
1337959-R-13

> <Well>
A02

> <MW (desalted)>
236.285

> <CLogP>
0.531

> <HBD>
1

> <TPSA>
46.330

> <RotBonds>
1

> <ROCS_ShapeQuery>
x0446_0A_x1080_0A_x0929_0A_x0812_0A_x0719_0A_x1140_0A_x0528_0A_x0310_0A

> <ROCS_TanimotoCombo>
0.296 

> <ROCS_ShapeTanimoto>
0.212 

> <ROCS_ColorTanimoto>
0.084 

> <ROCS_RefTversky>
0.194 

> <ROCS_RefColorTversky>
0.092 

> <ROCS_RefTverskyCombo>
0.287 

> <ROCS_FitTversky>
1.724 

> <ROCS_FitColorTversky>
0.497 

> <ROCS_FitTverskyCombo>
2.221 

> <ROCS_ColorScore>
-3.284

> <ROCS_Overlap>
2293.703

> <ROCS_Rank>
402                 

$$$$
untitled-dbase-162_2
  -OEChem-02082415003D

 24 25  0     0  0  0  0  0  0999 V2000
   10.0653   12.8130   23.9077 C   0  0  0  0  0  0  0  0  0  0  0  0
    9.0510   12.4291   24.9584 C   0  0  0  0  0  0  0  0  0  0  0  0
    6.8821   12.5419   23.6150 C   0  0  0  0  0  0  0  0  0  0  0  0
    7.3438   10.5258   25.0345 C   0  0  0  0  0  0  0  0  0  0  0  0
    8.8223   11.0168   23.0337 C   0  0  0  0  0  0  0  0  0  0  0  0
    5.9142   13.0008   24.7027 C   0  0  0  0  0  0  0  0  0  0  0  0
    6.3796   11.1156   26.0569 C   0  0  0  0  0  0  0  0  0  0  0  0
    7.9918   11.6206   24.1728 C   0  0  0  0  0  0  0  0  0  0  0  0
    9.8746   11.9713   22.8212 N   0  0  0  0  0  0  0  0  0  0  0  0
   10.9140   13.6827   24.0297 O   0  0  0  0  0  0  0  0  0  0  0  0
    5.3708   11.8861   25.4066 O   0  0  0  0  0  0  0  0  0  0  0  0
    9.5596   11.8155   25.7091 H   0  0  0  0  0  0  0  0  0  0  0  0
    8.6370   13.3215   25.4337 H   0  0  0  0  0  0  0  0  0  0  0  0
    6.3257   12.0547   22.8053 H   0  0  0  0  0  0  0  0  0  0  0  0
    7.3544   13.4360   23.1860 H   0  0  0  0  0  0  0  0  0  0  0  0
    8.1362    9.9889   25.5725 H   0  0  0  0  0  0  0  0  0  0  0  0
    6.8222    9.7894   24.4118 H   0  0  0  0  0  0  0  0  0  0  0  0
    9.2973   10.0697   23.3153 H   0  0  0  0  0  0  0  0  0  0  0  0
    8.2760   10.8741   22.0974 H   0  0  0  0  0  0  0  0  0  0  0  0
    6.4472   13.6228   25.4295 H   0  0  0  0  0  0  0  0  0  0  0  0
    5.0979   13.6079   24.2958 H   0  0  0  0  0  0  0  0  0  0  0  0
    5.9107   10.3374   26.6700 H   0  0  0  0  0  0  0  0  0  0  0  0
    6.9222   11.7840   26.7331 H   0  0  0  0  0  0  0  0  0  0  0  0
   10.4207   12.0247   21.9675 H   0  0  0  0  0  0  0  0  0  0  0  0
  1  2  1  0  0  0  0
  1  9  1  0  0  0  0
  1 10  2  0  0  0  0
  2  8  1  0  0  0  0
  3  6  1  0  0  0  0
  3  8  1  0  0  0  0
  4  7  1  0  0  0  0
  4  8  1  0  0  0  0
  5  8  1  0  0  0  0
  5  9  1  0  0  0  0
  6 11  1  0  0  0  0
  7 11  1  0  0  0  0
  2 12  1  0  0  0  0
  2 13  1  0  0  0  0
  3 14  1  0  0  0  0
  3 15  1  0  0  0  0
  4 16  1  0  0  0  0
  4 17  1  0  0  0  0
  5 18  1  0  0  0  0
  5 19  1  0  0  0  0
  6 20  1  0  0  0  0
  6 21  1  0  0  0  0
  7 22  1  0  0  0  0
  7 23  1  0  0  0  0
  9 24  1  0  0  0  0
M  END
> <Catalog ID>
Z1255400620

> <PlateID>
1337959-R-04

> <Well>
C08

> <MW (desalted)>
155.194

> <CLogP>
-1.381

> <HBD>
1

> <TPSA>
38.330

> <RotBonds>
0

> <ROCS_ShapeQuery>
x0446_0A_x1080_0A_x0929_0A_x0812_0A_x0719_0A_x1140_0A_x0528_0A_x0310_0A

> <ROCS_TanimotoCombo>
0.296 

> <ROCS_ShapeTanimoto>
0.160 

> <ROCS_ColorTanimoto>
0.136 

> <ROCS_RefTversky>
0.151 

> <ROCS_RefColorTversky>
0.142 

> <ROCS_RefTverskyCombo>
0.292 

> <ROCS_FitTversky>
1.649 

> <ROCS_FitColorTversky>
0.764 

> <ROCS_FitTverskyCombo>
2.414 

> <ROCS_ColorScore>
-5.052

> <ROCS_Overlap>
1774.058

> <ROCS_Rank>
403                 

$$$$
untitled-dbase-449_10
  -OEChem-02082415003D

 38 39  0     0  0  0  0  0  0999 V2000
   10.5111   13.2738   23.1656 C   0  0  0  0  0  0  0  0  0  0  0  0
    5.3851   13.3025   25.6231 C   0  0  0  0  0  0  0  0  0  0  0  0
    6.5253   13.7228   24.7052 C   0  0  0  0  0  0  0  0  0  0  0  0
    5.6948   12.0039   26.3549 C   0  0  0  0  0  0  0  0  0  0  0  0
    8.7620    9.8846   22.6843 C   0  0  0  0  0  0  0  0  0  0  0  0
    6.9330   12.5955   23.7545 C   0  0  0  0  0  0  0  0  0  0  0  0
    6.1040   10.8950   25.3853 C   0  0  0  0  0  0  0  0  0  0  0  0
    7.4395   10.1143   23.4196 C   0  0  0  0  0  0  0  0  0  0  0  0
    8.5845   11.3925   25.3618 C   0  0  0  0  0  0  0  0  0  0  0  0
    9.5450   11.1239   22.2683 C   0  0  0  0  0  0  0  0  0  0  0  0
    9.9742   11.4375   24.7163 C   0  0  0  0  0  0  0  0  0  0  0  0
    7.3168   11.2623   24.4657 C   0  0  0  0  0  0  0  0  0  0  0  0
   10.5507   13.7599   21.7367 C   0  0  0  0  0  0  0  0  0  0  0  0
   10.0049   11.9836   23.3664 N   0  0  0  0  0  0  0  0  0  0  0  0
   10.9035   14.0151   24.0698 O   0  0  0  0  0  0  0  0  0  0  0  0
    5.1833   14.0988   26.3499 H   0  0  0  0  0  0  0  0  0  0  0  0
    4.4692   13.1771   25.0305 H   0  0  0  0  0  0  0  0  0  0  0  0
    6.2166   14.5958   24.1194 H   0  0  0  0  0  0  0  0  0  0  0  0
    7.3822   14.0443   25.3060 H   0  0  0  0  0  0  0  0  0  0  0  0
    6.4881   12.1751   27.0924 H   0  0  0  0  0  0  0  0  0  0  0  0
    4.8089   11.6844   26.9174 H   0  0  0  0  0  0  0  0  0  0  0  0
    9.4101    9.2021   23.2718 H   0  0  0  0  0  0  0  0  0  0  0  0
    8.5288    9.3087   21.7657 H   0  0  0  0  0  0  0  0  0  0  0  0
    6.0890   12.4150   23.0751 H   0  0  0  0  0  0  0  0  0  0  0  0
    7.7629   12.9417   23.1257 H   0  0  0  0  0  0  0  0  0  0  0  0
    6.3035    9.9796   25.9544 H   0  0  0  0  0  0  0  0  0  0  0  0
    5.2389   10.6584   24.7472 H   0  0  0  0  0  0  0  0  0  0  0  0
    6.6478   10.2476   22.6535 H   0  0  0  0  0  0  0  0  0  0  0  0
    7.1778    9.1552   23.9117 H   0  0  0  0  0  0  0  0  0  0  0  0
    8.6209   10.5516   26.0778 H   0  0  0  0  0  0  0  0  0  0  0  0
    8.4688   12.2780   26.0176 H   0  0  0  0  0  0  0  0  0  0  0  0
   10.4381   10.7893   21.6943 H   0  0  0  0  0  0  0  0  0  0  0  0
    8.9775   11.7481   21.5399 H   0  0  0  0  0  0  0  0  0  0  0  0
   10.6237   12.0645   25.3235 H   0  0  0  0  0  0  0  0  0  0  0  0
   10.3904   10.4368   24.7211 H   0  0  0  0  0  0  0  0  0  0  0  0
    9.6162   14.2605   21.5077 H   0  0  0  0  0  0  0  0  0  0  0  0
   10.6886   12.9097   21.0772 H   0  0  0  0  0  0  0  0  0  0  0  0
   11.3802   14.4492   21.6205 H   0  0  0  0  0  0  0  0  0  0  0  0
  1 13  1  0  0  0  0
  1 14  1  0  0  0  0
  1 15  2  0  0  0  0
  2  3  1  0  0  0  0
  2  4  1  0  0  0  0
  3  6  1  0  0  0  0
  4  7  1  0  0  0  0
  5  8  1  0  0  0  0
  5 10  1  0  0  0  0
  6 12  1  0  0  0  0
  7 12  1  0  0  0  0
  8 12  1  0  0  0  0
  9 11  1  0  0  0  0
  9 12  1  0  0  0  0
 10 14  1  0  0  0  0
 11 14  1  0  0  0  0
  2 16  1  0  0  0  0
  2 17  1  0  0  0  0
  3 18  1  0  0  0  0
  3 19  1  0  0  0  0
  4 20  1  0  0  0  0
  4 21  1  0  0  0  0
  5 22  1  0  0  0  0
  5 23  1  0  0  0  0
  6 24  1  0  0  0  0
  6 25  1  0  0  0  0
  7 26  1  0  0  0  0
  7 27  1  0  0  0  0
  8 28  1  0  0  0  0
  8 29  1  0  0  0  0
  9 30  1  0  0  0  0
  9 31  1  0  0  0  0
 10 32  1  0  0  0  0
 10 33  1  0  0  0  0
 11 34  1  0  0  0  0
 11 35  1  0  0  0  0
 13 36  1  0  0  0  0
 13 37  1  0  0  0  0
 13 38  1  0  0  0  0
M  END
> <Catalog ID>
Z1817978303

> <PlateID>
1337959-R-10

> <Well>
F09

> <MW (desalted)>
209.328

> <CLogP>
2.531

> <HBD>
0

> <TPSA>
20.310

> <RotBonds>
0

> <ROCS_ShapeQuery>
x0446_0A_x1080_0A_x0929_0A_x0812_0A_x0719_0A_x1140_0A_x0528_0A_x0310_0A

> <ROCS_TanimotoCombo>
0.296 

> <ROCS_ShapeTanimoto>
0.194 

> <ROCS_ColorTanimoto>
0.102 

> <ROCS_RefTversky>
0.179 

> <ROCS_RefColorTversky>
0.105 

> <ROCS_RefTverskyCombo>
0.284 

> <ROCS_FitTversky>
1.735 

> <ROCS_FitColorTversky>
0.791 

> <ROCS_FitTverskyCombo>
2.526 

> <ROCS_ColorScore>
-3.725

> <ROCS_Overlap>
2112.738

> <ROCS_Rank>
404                 

$$$$
untitled-dbase-264_1
  -OEChem-02082415003D

 29 31  0     1  0  0  0  0  0999 V2000
   11.9728   12.0994   23.2504 C   0  0  0  0  0  0  0  0  0  0  0  0
   11.0942   13.1918   23.2491 C   0  0  0  0  0  0  0  0  0  0  0  0
   11.5022   10.8153   23.5238 C   0  0  0  0  0  0  0  0  0  0  0  0
    9.7357   13.0130   23.5240 C   0  0  0  0  0  0  0  0  0  0  0  0
   10.1522   10.6545   23.7861 C   0  0  0  0  0  0  0  0  0  0  0  0
    9.2745   11.7340   23.7954 C   0  0  0  0  0  0  0  0  0  0  0  0
    9.4166    9.4117   24.1123 C   0  0  0  0  0  0  0  0  0  0  0  0
    6.9575   12.9639   25.7538 C   0  0  0  0  0  0  0  0  0  0  0  0
    7.4888   11.5432   25.5858 C   0  0  0  0  0  0  0  0  0  0  0  0
    5.8824   13.2799   24.7170 C   0  0  0  0  0  0  0  0  0  0  0  0
    6.8019   11.6841   23.1489 C   0  0  0  0  0  0  0  0  0  0  0  0
    7.8969   11.2435   24.1332 C   0  0  1  0  0  0  0  0  0  0  0  0
    6.3680   13.0664   23.3546 N   0  0  0  0  0  0  0  0  0  0  0  0
    8.0283    9.7947   24.0061 O   0  0  0  0  0  0  0  0  0  0  0  0
   13.0272   12.2562   23.0411 H   0  0  0  0  0  0  0  0  0  0  0  0
   11.4741   14.1877   23.0359 H   0  0  0  0  0  0  0  0  0  0  0  0
   12.1797    9.9682   23.5303 H   0  0  0  0  0  0  0  0  0  0  0  0
    9.0628   13.8655   23.5260 H   0  0  0  0  0  0  0  0  0  0  0  0
    9.6112    8.6088   23.3990 H   0  0  0  0  0  0  0  0  0  0  0  0
    9.6131    9.0805   25.1343 H   0  0  0  0  0  0  0  0  0  0  0  0
    6.5464   13.0892   26.7640 H   0  0  0  0  0  0  0  0  0  0  0  0
    7.7832   13.6790   25.6586 H   0  0  0  0  0  0  0  0  0  0  0  0
    8.3533   11.4047   26.2566 H   0  0  0  0  0  0  0  0  0  0  0  0
    6.7145   10.8367   25.9271 H   0  0  0  0  0  0  0  0  0  0  0  0
    5.0114   12.6358   24.8878 H   0  0  0  0  0  0  0  0  0  0  0  0
    5.5321   14.3142   24.8314 H   0  0  0  0  0  0  0  0  0  0  0  0
    7.1376   11.5661   22.1056 H   0  0  0  0  0  0  0  0  0  0  0  0
    5.9159   11.0378   23.2568 H   0  0  0  0  0  0  0  0  0  0  0  0
    5.6128   13.2745   22.7006 H   0  0  0  0  0  0  0  0  0  0  0  0
  1  2  2  0  0  0  0
  1  3  1  0  0  0  0
  2  4  1  0  0  0  0
  3  5  2  0  0  0  0
  4  6  2  0  0  0  0
  5  6  1  0  0  0  0
  5  7  1  0  0  0  0
  6 12  1  0  0  0  0
  7 14  1  0  0  0  0
  8  9  1  0  0  0  0
  8 10  1  0  0  0  0
  9 12  1  0  0  0  0
 10 13  1  0  0  0  0
 11 12  1  0  0  0  0
 11 13  1  0  0  0  0
 12 14  1  0  0  0  0
  1 15  1  0  0  0  0
  2 16  1  0  0  0  0
  3 17  1  0  0  0  0
  4 18  1  0  0  0  0
  7 19  1  0  0  0  0
  7 20  1  0  0  0  0
  8 21  1  0  0  0  0
  8 22  1  0  0  0  0
  9 23  1  0  0  0  0
  9 24  1  0  0  0  0
 10 25  1  0  0  0  0
 10 26  1  0  0  0  0
 11 27  1  0  0  0  0
 11 28  1  0  0  0  0
 13 29  1  0  0  0  0
M  END
> <Catalog ID>
Z1255386062

> <PlateID>
1337959-R-06

> <Well>
D09

> <MW (desalted)>
189.254

> <CLogP>
1.726

> <HBD>
1

> <TPSA>
21.260

> <RotBonds>
0

> <ROCS_ShapeQuery>
x0446_0A_x1080_0A_x0929_0A_x0812_0A_x0719_0A_x1140_0A_x0528_0A_x0310_0A

> <ROCS_TanimotoCombo>
0.296 

> <ROCS_ShapeTanimoto>
0.195 

> <ROCS_ColorTanimoto>
0.101 

> <ROCS_RefTversky>
0.180 

> <ROCS_RefColorTversky>
0.111 

> <ROCS_RefTverskyCombo>
0.291 

> <ROCS_FitTversky>
1.735 

> <ROCS_FitColorTversky>
0.522 

> <ROCS_FitTverskyCombo>
2.257 

> <ROCS_ColorScore>
-3.955

> <ROCS_Overlap>
2124.178

> <ROCS_Rank>
405                 

$$$$
untitled-dbase-112_1
  -OEChem-02082415003D

 33 35  0     0  0  0  0  0  0999 V2000
    6.1342   12.7290   24.9800 C   0  0  0  0  0  0  0  0  0  0  0  0
    7.9071   12.6796   23.8062 C   0  0  0  0  0  0  0  0  0  0  0  0
    7.7543   11.4125   24.3174 C   0  0  0  0  0  0  0  0  0  0  0  0
    8.6656   10.2763   24.0832 C   0  0  0  0  0  0  0  0  0  0  0  0
    9.6627   14.4147   23.3403 C   0  0  0  0  0  0  0  0  0  0  0  0
    8.5170   13.2651   21.4419 C   0  0  0  0  0  0  0  0  0  0  0  0
    9.5712   10.6322   22.8852 C   0  0  0  0  0  0  0  0  0  0  0  0
   10.7092   14.9359   22.3477 C   0  0  0  0  0  0  0  0  0  0  0  0
    9.5971   13.8160   20.5038 C   0  0  0  0  0  0  0  0  0  0  0  0
    9.0257   13.0784   22.8895 C   0  0  0  0  0  0  0  0  0  0  0  0
   11.1296   15.6251   20.0784 C   0  0  0  0  0  0  0  0  0  0  0  0
    6.8864   13.4970   24.2174 N   0  0  0  0  0  0  0  0  0  0  0  0
    6.6230   11.4505   25.0726 N   0  0  0  0  0  0  0  0  0  0  0  0
   10.0825   12.0186   22.9436 N   0  0  0  0  0  0  0  0  0  0  0  0
   10.1341   15.0875   21.0052 N   0  0  0  0  0  0  0  0  0  0  0  0
    5.2313   13.0326   25.4910 H   0  0  0  0  0  0  0  0  0  0  0  0
    9.2763   10.0653   24.9655 H   0  0  0  0  0  0  0  0  0  0  0  0
    8.0778    9.3819   23.8505 H   0  0  0  0  0  0  0  0  0  0  0  0
   10.1562   14.2803   24.3121 H   0  0  0  0  0  0  0  0  0  0  0  0
    8.8989   15.1883   23.4811 H   0  0  0  0  0  0  0  0  0  0  0  0
    7.6483   13.9291   21.4176 H   0  0  0  0  0  0  0  0  0  0  0  0
    8.1915   12.2997   21.0384 H   0  0  0  0  0  0  0  0  0  0  0  0
   10.4106    9.9264   22.8200 H   0  0  0  0  0  0  0  0  0  0  0  0
    8.9940   10.5063   21.9601 H   0  0  0  0  0  0  0  0  0  0  0  0
   11.1369   15.8806   22.7051 H   0  0  0  0  0  0  0  0  0  0  0  0
   11.5295   14.2081   22.3144 H   0  0  0  0  0  0  0  0  0  0  0  0
   10.4037   13.0756   20.4514 H   0  0  0  0  0  0  0  0  0  0  0  0
    9.2051   13.9271   19.4875 H   0  0  0  0  0  0  0  0  0  0  0  0
   10.6815   15.7316   19.0794 H   0  0  0  0  0  0  0  0  0  0  0  0
   11.4686   16.6089   20.4348 H   0  0  0  0  0  0  0  0  0  0  0  0
   11.9878   14.9391   20.0238 H   0  0  0  0  0  0  0  0  0  0  0  0
    6.2167   10.6886   25.5994 H   0  0  0  0  0  0  0  0  0  0  0  0
   10.6335   12.1346   23.7916 H   0  0  0  0  0  0  0  0  0  0  0  0
  1 12  2  0  0  0  0
  1 13  1  0  0  0  0
  2  3  2  0  0  0  0
  2 10  1  0  0  0  0
  2 12  1  0  0  0  0
  3  4  1  0  0  0  0
  3 13  1  0  0  0  0
  4  7  1  0  0  0  0
  5  8  1  0  0  0  0
  5 10  1  0  0  0  0
  6  9  1  0  0  0  0
  6 10  1  0  0  0  0
  7 14  1  0  0  0  0
  8 15  1  0  0  0  0
  9 15  1  0  0  0  0
 10 14  1  0  0  0  0
 11 15  1  0  0  0  0
  1 16  1  0  0  0  0
  4 17  1  0  0  0  0
  4 18  1  0  0  0  0
  5 19  1  0  0  0  0
  5 20  1  0  0  0  0
  6 21  1  0  0  0  0
  6 22  1  0  0  0  0
  7 23  1  0  0  0  0
  7 24  1  0  0  0  0
  8 25  1  0  0  0  0
  8 26  1  0  0  0  0
  9 27  1  0  0  0  0
  9 28  1  0  0  0  0
 11 29  1  0  0  0  0
 11 30  1  0  0  0  0
 11 31  1  0  0  0  0
 13 32  1  0  0  0  0
 14 33  1  0  0  0  0
M  END
> <Catalog ID>
Z1203159771

> <PlateID>
1337959-R-03

> <Well>
B06

> <MW (desalted)>
206.287

> <CLogP>
-0.788

> <HBD>
2

> <TPSA>
43.950

> <RotBonds>
0

> <ROCS_ShapeQuery>
x0446_0A_x1080_0A_x0929_0A_x0812_0A_x0719_0A_x1140_0A_x0528_0A_x0310_0A

> <ROCS_TanimotoCombo>
0.296 

> <ROCS_ShapeTanimoto>
0.207 

> <ROCS_ColorTanimoto>
0.089 

> <ROCS_RefTversky>
0.190 

> <ROCS_RefColorTversky>
0.105 

> <ROCS_RefTverskyCombo>
0.295 

> <ROCS_FitTversky>
1.770 

> <ROCS_FitColorTversky>
0.361 

> <ROCS_FitTverskyCombo>
2.130 

> <ROCS_ColorScore>
-3.760

> <ROCS_Overlap>
2241.796

> <ROCS_Rank>
406                 

$$$$
untitled-dbase-581_1
  -OEChem-02082415003D

 28 30  0     0  0  0  0  0  0999 V2000
   12.0761   10.8222   23.4441 C   0  0  0  0  0  0  0  0  0  0  0  0
   12.0529   12.2215   23.3403 C   0  0  0  0  0  0  0  0  0  0  0  0
   10.8981   10.1108   23.6643 C   0  0  0  0  0  0  0  0  0  0  0  0
   10.8501   12.9274   23.4555 C   0  0  0  0  0  0  0  0  0  0  0  0
    9.7254   10.8375   23.7737 C   0  0  0  0  0  0  0  0  0  0  0  0
    9.6731   12.2235   23.6749 C   0  0  0  0  0  0  0  0  0  0  0  0
    8.3813   10.3362   24.0017 C   0  0  0  0  0  0  0  0  0  0  0  0
    7.4096   11.4898   24.0481 C   0  0  0  0  0  0  0  0  0  0  0  0
    6.5972   14.3739   23.1703 C   0  0  0  0  0  0  0  0  0  0  0  0
    6.8105   14.4895   24.6803 C   0  0  0  0  0  0  0  0  0  0  0  0
    7.7923   13.5901   22.6320 C   0  0  0  0  0  0  0  0  0  0  0  0
    8.1222   13.7671   24.9801 C   0  0  0  0  0  0  0  0  0  0  0  0
    8.2789   12.7644   23.8298 C   0  0  0  0  0  0  0  0  0  0  0  0
    8.1038    9.1577   24.1330 O   0  0  0  0  0  0  0  0  0  0  0  0
   13.0207   10.2919   23.3565 H   0  0  0  0  0  0  0  0  0  0  0  0
   12.9793   12.7615   23.1676 H   0  0  0  0  0  0  0  0  0  0  0  0
   10.9123    9.0306   23.7540 H   0  0  0  0  0  0  0  0  0  0  0  0
   10.8603   14.0063   23.3675 H   0  0  0  0  0  0  0  0  0  0  0  0
    6.6521   11.3625   23.2715 H   0  0  0  0  0  0  0  0  0  0  0  0
    6.9342   11.4876   25.0337 H   0  0  0  0  0  0  0  0  0  0  0  0
    5.6524   13.8747   22.9324 H   0  0  0  0  0  0  0  0  0  0  0  0
    6.5559   15.3701   22.7166 H   0  0  0  0  0  0  0  0  0  0  0  0
    6.8599   15.5391   24.9797 H   0  0  0  0  0  0  0  0  0  0  0  0
    5.9842   14.0324   25.2303 H   0  0  0  0  0  0  0  0  0  0  0  0
    7.4382   12.9336   21.8309 H   0  0  0  0  0  0  0  0  0  0  0  0
    8.5539   14.2518   22.2144 H   0  0  0  0  0  0  0  0  0  0  0  0
    8.9556   14.4604   25.0681 H   0  0  0  0  0  0  0  0  0  0  0  0
    8.0143   13.2402   25.9295 H   0  0  0  0  0  0  0  0  0  0  0  0
  1  2  2  0  0  0  0
  1  3  1  0  0  0  0
  2  4  1  0  0  0  0
  3  5  2  0  0  0  0
  4  6  2  0  0  0  0
  5  6  1  0  0  0  0
  5  7  1  0  0  0  0
  6 13  1  0  0  0  0
  7  8  1  0  0  0  0
  7 14  2  0  0  0  0
  8 13  1  0  0  0  0
  9 10  1  0  0  0  0
  9 11  1  0  0  0  0
 10 12  1  0  0  0  0
 11 13  1  0  0  0  0
 12 13  1  0  0  0  0
  1 15  1  0  0  0  0
  2 16  1  0  0  0  0
  3 17  1  0  0  0  0
  4 18  1  0  0  0  0
  8 19  1  0  0  0  0
  8 20  1  0  0  0  0
  9 21  1  0  0  0  0
  9 22  1  0  0  0  0
 10 23  1  0  0  0  0
 10 24  1  0  0  0  0
 11 25  1  0  0  0  0
 11 26  1  0  0  0  0
 12 27  1  0  0  0  0
 12 28  1  0  0  0  0
M  END
> <Catalog ID>
Z4945513864

> <PlateID>
1337959-R-13

> <Well>
E11

> <MW (desalted)>
186.250

> <CLogP>
3.148

> <HBD>
0

> <TPSA>
17.070

> <RotBonds>
0

> <ROCS_ShapeQuery>
x0446_0A_x1080_0A_x0929_0A_x0812_0A_x0719_0A_x1140_0A_x0528_0A_x0310_0A

> <ROCS_TanimotoCombo>
0.296 

> <ROCS_ShapeTanimoto>
0.206 

> <ROCS_ColorTanimoto>
0.090 

> <ROCS_RefTversky>
0.188 

> <ROCS_RefColorTversky>
0.096 

> <ROCS_RefTverskyCombo>
0.284 

> <ROCS_FitTversky>
1.813 

> <ROCS_FitColorTversky>
0.600 

> <ROCS_FitTverskyCombo>
2.413 

> <ROCS_ColorScore>
-3.403

> <ROCS_Overlap>
2220.545

> <ROCS_Rank>
407                 

$$$$
untitled-dbase-366_6
  -OEChem-02082415003D

 27 28  0     0  0  0  0  0  0999 V2000
    8.4620   10.6479   24.1203 C   0  0  0  0  0  0  0  0  0  0  0  0
    9.4141   10.6637   23.1011 C   0  0  0  0  0  0  0  0  0  0  0  0
    7.8627   11.8378   24.5335 C   0  0  0  0  0  0  0  0  0  0  0  0
    9.1680   13.0594   22.9083 C   0  0  0  0  0  0  0  0  0  0  0  0
    9.7672   11.8695   22.4952 C   0  0  0  0  0  0  0  0  0  0  0  0
    8.2158   13.0436   23.9275 C   0  0  0  0  0  0  0  0  0  0  0  0
    9.5694   14.3093   22.2421 C   0  0  0  0  0  0  0  0  0  0  0  0
   11.4770   15.4599   21.1876 C   0  0  0  0  0  0  0  0  0  0  0  0
   11.7998   14.4087   23.4445 C   0  0  0  0  0  0  0  0  0  0  0  0
   12.9213   15.0924   20.8829 C   0  0  0  0  0  0  0  0  0  0  0  0
   12.8885   15.4543   23.6431 C   0  0  0  0  0  0  0  0  0  0  0  0
   10.9168   14.6916   22.3023 N   0  0  0  0  0  0  0  0  0  0  0  0
    8.6784   14.9329   21.6664 O   0  0  0  0  0  0  0  0  0  0  0  0
   10.6840   11.8704   21.5168 F   0  0  0  0  0  0  0  0  0  0  0  0
   14.0510   15.5180   22.2450 S   0  0  0  0  0  0  0  0  0  0  0  0
    7.4508   14.4943   24.4693 Cl  0  0  0  0  0  0  0  0  0  0  0  0
    8.1877    9.7089   24.5923 H   0  0  0  0  0  0  0  0  0  0  0  0
    9.8809    9.7373   22.7796 H   0  0  0  0  0  0  0  0  0  0  0  0
    7.1231   11.8066   25.3295 H   0  0  0  0  0  0  0  0  0  0  0  0
   11.4216   16.5400   21.3930 H   0  0  0  0  0  0  0  0  0  0  0  0
   10.8314   15.2928   20.3070 H   0  0  0  0  0  0  0  0  0  0  0  0
   12.2319   13.4024   23.2933 H   0  0  0  0  0  0  0  0  0  0  0  0
   11.1970   14.3404   24.3668 H   0  0  0  0  0  0  0  0  0  0  0  0
   12.9982   14.0091   20.7054 H   0  0  0  0  0  0  0  0  0  0  0  0
   13.2663   15.5884   19.9620 H   0  0  0  0  0  0  0  0  0  0  0  0
   12.4498   16.4525   23.7901 H   0  0  0  0  0  0  0  0  0  0  0  0
   13.4621   15.2227   24.5516 H   0  0  0  0  0  0  0  0  0  0  0  0
  1  2  1  0  0  0  0
  1  3  2  0  0  0  0
  2  5  2  0  0  0  0
  3  6  1  0  0  0  0
  4  5  1  0  0  0  0
  4  6  2  0  0  0  0
  4  7  1  0  0  0  0
  5 14  1  0  0  0  0
  6 16  1  0  0  0  0
  7 12  1  0  0  0  0
  7 13  2  0  0  0  0
  8 10  1  0  0  0  0
  8 12  1  0  0  0  0
  9 11  1  0  0  0  0
  9 12  1  0  0  0  0
 10 15  1  0  0  0  0
 11 15  1  0  0  0  0
  1 17  1  0  0  0  0
  2 18  1  0  0  0  0
  3 19  1  0  0  0  0
  8 20  1  0  0  0  0
  8 21  1  0  0  0  0
  9 22  1  0  0  0  0
  9 23  1  0  0  0  0
 10 24  1  0  0  0  0
 10 25  1  0  0  0  0
 11 26  1  0  0  0  0
 11 27  1  0  0  0  0
M  END
> <Catalog ID>
Z437589054

> <PlateID>
1337959-R-08

> <Well>
H07

> <MW (desalted)>
259.728

> <CLogP>
2.465

> <HBD>
0

> <TPSA>
20.310

> <RotBonds>
1

> <ROCS_ShapeQuery>
x0446_0A_x1080_0A_x0929_0A_x0812_0A_x0719_0A_x1140_0A_x0528_0A_x0310_0A

> <ROCS_TanimotoCombo>
0.296 

> <ROCS_ShapeTanimoto>
0.204 

> <ROCS_ColorTanimoto>
0.091 

> <ROCS_RefTversky>
0.188 

> <ROCS_RefColorTversky>
0.095 

> <ROCS_RefTverskyCombo>
0.283 

> <ROCS_FitTversky>
1.745 

> <ROCS_FitColorTversky>
0.714 

> <ROCS_FitTverskyCombo>
2.459 

> <ROCS_ColorScore>
-3.365

> <ROCS_Overlap>
2215.683

> <ROCS_Rank>
408                 

$$$$
untitled-dbase-349_38
  -OEChem-02082415003D

 26 27  0     0  0  0  0  0  0999 V2000
    8.4190   10.8054   25.0058 C   0  0  0  0  0  0  0  0  0  0  0  0
    7.9301   12.0734   24.6917 C   0  0  0  0  0  0  0  0  0  0  0  0
    9.3789   10.2062   24.1901 C   0  0  0  0  0  0  0  0  0  0  0  0
    9.3608   12.1429   22.7460 C   0  0  0  0  0  0  0  0  0  0  0  0
    9.7255   16.1140   21.0388 C   0  0  0  0  0  0  0  0  0  0  0  0
   10.1251   15.2324   23.0132 C   0  0  0  0  0  0  0  0  0  0  0  0
   10.7044   16.0168   22.0459 C   0  0  0  0  0  0  0  0  0  0  0  0
    8.4009   12.7422   23.5618 C   0  0  0  0  0  0  0  0  0  0  0  0
    9.8497   10.8749   23.0602 C   0  0  0  0  0  0  0  0  0  0  0  0
   12.0171   16.5827   22.0976 C   0  0  0  0  0  0  0  0  0  0  0  0
    7.8775   14.0979   23.2270 C   0  0  0  0  0  0  0  0  0  0  0  0
    8.6092   15.4446   21.3384 N   0  0  0  0  0  0  0  0  0  0  0  0
    8.8830   14.9193   22.5447 N   0  0  0  0  0  0  0  0  0  0  0  0
   12.4558   17.3609   21.0156 N   0  0  0  0  0  0  0  0  0  0  0  0
   12.7929   16.3935   23.0672 O   0  0  0  0  0  0  0  0  0  0  0  0
   10.7711   10.2995   22.2766 F   0  0  0  0  0  0  0  0  0  0  0  0
    8.0528   10.2848   25.8859 H   0  0  0  0  0  0  0  0  0  0  0  0
    7.1821   12.5324   25.3330 H   0  0  0  0  0  0  0  0  0  0  0  0
    9.7589    9.2189   24.4346 H   0  0  0  0  0  0  0  0  0  0  0  0
    9.7341   12.6563   21.8641 H   0  0  0  0  0  0  0  0  0  0  0  0
    9.7770   16.6427   20.0973 H   0  0  0  0  0  0  0  0  0  0  0  0
   10.4817   14.8770   23.9706 H   0  0  0  0  0  0  0  0  0  0  0  0
    6.9916   14.0451   22.5742 H   0  0  0  0  0  0  0  0  0  0  0  0
    7.5547   14.6460   24.1265 H   0  0  0  0  0  0  0  0  0  0  0  0
   11.8316   17.5006   20.2285 H   0  0  0  0  0  0  0  0  0  0  0  0
   13.3757   17.7890   20.9929 H   0  0  0  0  0  0  0  0  0  0  0  0
  1  2  1  0  0  0  0
  1  3  2  0  0  0  0
  2  8  2  0  0  0  0
  3  9  1  0  0  0  0
  4  8  1  0  0  0  0
  4  9  2  0  0  0  0
  5  7  1  0  0  0  0
  5 12  2  0  0  0  0
  6  7  2  0  0  0  0
  6 13  1  0  0  0  0
  7 10  1  0  0  0  0
  8 11  1  0  0  0  0
  9 16  1  0  0  0  0
 10 14  1  0  0  0  0
 10 15  2  0  0  0  0
 11 13  1  0  0  0  0
 12 13  1  0  0  0  0
  1 17  1  0  0  0  0
  2 18  1  0  0  0  0
  3 19  1  0  0  0  0
  4 20  1  0  0  0  0
  5 21  1  0  0  0  0
  6 22  1  0  0  0  0
 11 23  1  0  0  0  0
 11 24  1  0  0  0  0
 14 25  1  0  0  0  0
 14 26  1  0  0  0  0
M  END
> <Catalog ID>
Z1416749754

> <PlateID>
1337959-R-08

> <Well>
E05

> <MW (desalted)>
219.215

> <CLogP>
1.242

> <HBD>
1

> <TPSA>
60.910

> <RotBonds>
3

> <ROCS_ShapeQuery>
x0446_0A_x1080_0A_x0929_0A_x0812_0A_x0719_0A_x1140_0A_x0528_0A_x0310_0A

> <ROCS_TanimotoCombo>
0.295 

> <ROCS_ShapeTanimoto>
0.193 

> <ROCS_ColorTanimoto>
0.102 

> <ROCS_RefTversky>
0.180 

> <ROCS_RefColorTversky>
0.110 

> <ROCS_RefTverskyCombo>
0.290 

> <ROCS_FitTversky>
1.622 

> <ROCS_FitColorTversky>
0.591 

> <ROCS_FitTverskyCombo>
2.213 

> <ROCS_ColorScore>
-3.906

> <ROCS_Overlap>
2120.931

> <ROCS_Rank>
409                 

$$$$
untitled-dbase-42_1
  -OEChem-02082415003D

 25 26  0     0  0  0  0  0  0999 V2000
    5.5388   11.2427   24.9989 C   0  0  0  0  0  0  0  0  0  0  0  0
    6.6000   10.4633   24.5389 C   0  0  0  0  0  0  0  0  0  0  0  0
    5.6193   12.6250   24.9260 C   0  0  0  0  0  0  0  0  0  0  0  0
    7.8589   12.4487   23.9620 C   0  0  0  0  0  0  0  0  0  0  0  0
    7.7681   11.0399   23.9971 C   0  0  0  0  0  0  0  0  0  0  0  0
    6.7679   13.2216   24.4112 C   0  0  0  0  0  0  0  0  0  0  0  0
    9.0816   13.2015   23.4751 C   0  0  0  0  0  0  0  0  0  0  0  0
   10.4014   12.5948   23.9498 C   0  0  0  0  0  0  0  0  0  0  0  0
   10.8553   11.3764   23.1465 C   0  0  0  0  0  0  0  0  0  0  0  0
    9.7320   10.5549   22.5331 C   0  0  0  0  0  0  0  0  0  0  0  0
    8.7402   10.1736   23.5130 N   0  0  0  0  0  0  0  0  0  0  0  0
    6.7925   14.5875   24.3606 O   0  0  0  0  0  0  0  0  0  0  0  0
    4.6584   10.7674   25.4208 H   0  0  0  0  0  0  0  0  0  0  0  0
    6.5173    9.3805   24.6233 H   0  0  0  0  0  0  0  0  0  0  0  0
    4.7860   13.2329   25.2672 H   0  0  0  0  0  0  0  0  0  0  0  0
    9.1216   13.1801   22.3794 H   0  0  0  0  0  0  0  0  0  0  0  0
    8.9995   14.2579   23.7565 H   0  0  0  0  0  0  0  0  0  0  0  0
   11.1902   13.3582   23.9320 H   0  0  0  0  0  0  0  0  0  0  0  0
   10.3010   12.2880   24.9987 H   0  0  0  0  0  0  0  0  0  0  0  0
   11.5543   11.7029   22.3665 H   0  0  0  0  0  0  0  0  0  0  0  0
   11.4305   10.7155   23.8076 H   0  0  0  0  0  0  0  0  0  0  0  0
    9.2422   11.1640   21.7643 H   0  0  0  0  0  0  0  0  0  0  0  0
   10.1180    9.6724   22.0092 H   0  0  0  0  0  0  0  0  0  0  0  0
    8.8970    9.3107   24.0230 H   0  0  0  0  0  0  0  0  0  0  0  0
    5.9631   14.9461   24.7092 H   0  0  0  0  0  0  0  0  0  0  0  0
  1  2  2  0  0  0  0
  1  3  1  0  0  0  0
  2  5  1  0  0  0  0
  3  6  2  0  0  0  0
  4  5  2  0  0  0  0
  4  6  1  0  0  0  0
  4  7  1  0  0  0  0
  5 11  1  0  0  0  0
  6 12  1  0  0  0  0
  7  8  1  0  0  0  0
  8  9  1  0  0  0  0
  9 10  1  0  0  0  0
 10 11  1  0  0  0  0
  1 13  1  0  0  0  0
  2 14  1  0  0  0  0
  3 15  1  0  0  0  0
  7 16  1  0  0  0  0
  7 17  1  0  0  0  0
  8 18  1  0  0  0  0
  8 19  1  0  0  0  0
  9 20  1  0  0  0  0
  9 21  1  0  0  0  0
 10 22  1  0  0  0  0
 10 23  1  0  0  0  0
 11 24  1  0  0  0  0
 12 25  1  0  0  0  0
M  END
> <Catalog ID>
Z4327149895

> <PlateID>
1337959-R-01

> <Well>
G03

> <MW (desalted)>
163.216

> <CLogP>
2.077

> <HBD>
2

> <TPSA>
32.260

> <RotBonds>
0

> <ROCS_ShapeQuery>
x0446_0A_x1080_0A_x0929_0A_x0812_0A_x0719_0A_x1140_0A_x0528_0A_x0310_0A

> <ROCS_TanimotoCombo>
0.295 

> <ROCS_ShapeTanimoto>
0.183 

> <ROCS_ColorTanimoto>
0.112 

> <ROCS_RefTversky>
0.169 

> <ROCS_RefColorTversky>
0.120 

> <ROCS_RefTverskyCombo>
0.289 

> <ROCS_FitTversky>
1.779 

> <ROCS_FitColorTversky>
0.645 

> <ROCS_FitTverskyCombo>
2.424 

> <ROCS_ColorScore>
-4.263

> <ROCS_Overlap>
1993.641

> <ROCS_Rank>
410                 

$$$$
untitled-dbase-49_9
  -OEChem-02082415003D

 29 30  0     0  0  0  0  0  0999 V2000
    7.6980   10.1974   24.6771 C   0  0  0  0  0  0  0  0  0  0  0  0
    7.6749   11.5818   24.5079 C   0  0  0  0  0  0  0  0  0  0  0  0
    8.6825    9.4343   24.0493 C   0  0  0  0  0  0  0  0  0  0  0  0
    9.6209   11.4400   23.0831 C   0  0  0  0  0  0  0  0  0  0  0  0
    8.6363   12.2031   23.7109 C   0  0  0  0  0  0  0  0  0  0  0  0
    9.6440   10.0557   23.2523 C   0  0  0  0  0  0  0  0  0  0  0  0
    5.6873   14.4366   21.7610 C   0  0  0  0  0  0  0  0  0  0  0  0
    7.1903   16.2966   21.4276 C   0  0  0  0  0  0  0  0  0  0  0  0
    6.8164   13.4449   21.5000 C   0  0  0  0  0  0  0  0  0  0  0  0
    8.3506   15.3435   21.1596 C   0  0  0  0  0  0  0  0  0  0  0  0
    5.9114   15.6944   21.0454 N   0  0  0  0  0  0  0  0  0  0  0  0
    8.1297   14.0479   21.8603 N   0  0  0  0  0  0  0  0  0  0  0  0
    7.5491   14.4854   24.3291 O   0  0  0  0  0  0  0  0  0  0  0  0
    9.9657   14.4411   23.6180 O   0  0  0  0  0  0  0  0  0  0  0  0
    8.6078   13.9552   23.4971 S   0  0  0  0  0  0  0  0  0  0  0  0
   10.8575    9.1137   22.4767 Cl  0  0  0  0  0  0  0  0  0  0  0  0
    6.9494    9.7138   25.2980 H   0  0  0  0  0  0  0  0  0  0  0  0
    6.9034   12.1660   25.0020 H   0  0  0  0  0  0  0  0  0  0  0  0
    8.6882    8.3564   24.1892 H   0  0  0  0  0  0  0  0  0  0  0  0
   10.3678   11.9282   22.4610 H   0  0  0  0  0  0  0  0  0  0  0  0
    4.7353   14.0048   21.4344 H   0  0  0  0  0  0  0  0  0  0  0  0
    5.5934   14.6372   22.8353 H   0  0  0  0  0  0  0  0  0  0  0  0
    7.1615   16.5776   22.4874 H   0  0  0  0  0  0  0  0  0  0  0  0
    7.3340   17.2208   20.8580 H   0  0  0  0  0  0  0  0  0  0  0  0
    6.6502   12.5461   22.1109 H   0  0  0  0  0  0  0  0  0  0  0  0
    6.8287   13.1374   20.4432 H   0  0  0  0  0  0  0  0  0  0  0  0
    8.4664   15.1642   20.0798 H   0  0  0  0  0  0  0  0  0  0  0  0
    9.2803   15.8008   21.5273 H   0  0  0  0  0  0  0  0  0  0  0  0
    5.9226   15.5054   20.0417 H   0  0  0  0  0  0  0  0  0  0  0  0
  1  2  2  0  0  0  0
  1  3  1  0  0  0  0
  2  5  1  0  0  0  0
  3  6  2  0  0  0  0
  4  5  2  0  0  0  0
  4  6  1  0  0  0  0
  5 15  1  0  0  0  0
  6 16  1  0  0  0  0
  7  9  1  0  0  0  0
  7 11  1  0  0  0  0
  8 10  1  0  0  0  0
  8 11  1  0  0  0  0
  9 12  1  0  0  0  0
 10 12  1  0  0  0  0
 12 15  1  0  0  0  0
 13 15  2  0  0  0  0
 14 15  2  0  0  0  0
  1 17  1  0  0  0  0
  2 18  1  0  0  0  0
  3 19  1  0  0  0  0
  4 20  1  0  0  0  0
  7 21  1  0  0  0  0
  7 22  1  0  0  0  0
  8 23  1  0  0  0  0
  8 24  1  0  0  0  0
  9 25  1  0  0  0  0
  9 26  1  0  0  0  0
 10 27  1  0  0  0  0
 10 28  1  0  0  0  0
 11 29  1  0  0  0  0
M  END
> <Catalog ID>
Z1491220220

> <PlateID>
1337959-R-01

> <Well>
H04

> <MW (desalted)>
260.740

> <CLogP>
1.982

> <HBD>
1

> <TPSA>
49.410

> <RotBonds>
1

> <ROCS_ShapeQuery>
x0446_0A_x1080_0A_x0929_0A_x0812_0A_x0719_0A_x1140_0A_x0528_0A_x0310_0A

> <ROCS_TanimotoCombo>
0.295 

> <ROCS_ShapeTanimoto>
0.195 

> <ROCS_ColorTanimoto>
0.100 

> <ROCS_RefTversky>
0.180 

> <ROCS_RefColorTversky>
0.111 

> <ROCS_RefTverskyCombo>
0.291 

> <ROCS_FitTversky>
1.691 

> <ROCS_FitColorTversky>
0.521 

> <ROCS_FitTverskyCombo>
2.212 

> <ROCS_ColorScore>
-3.940

> <ROCS_Overlap>
2126.164

> <ROCS_Rank>
411                 

$$$$
untitled-dbase-306_2
  -OEChem-02082415003D

 28 29  0     0  0  0  0  0  0999 V2000
    9.3519   12.5291   23.9269 C   0  0  0  0  0  0  0  0  0  0  0  0
   10.3534   11.4105   24.1226 C   0  0  0  0  0  0  0  0  0  0  0  0
    5.3676   13.0611   25.5821 C   0  0  0  0  0  0  0  0  0  0  0  0
    6.2413   11.9627   26.1765 C   0  0  0  0  0  0  0  0  0  0  0  0
    5.4992   13.1306   24.0650 C   0  0  0  0  0  0  0  0  0  0  0  0
    7.7009   12.0936   25.7410 C   0  0  0  0  0  0  0  0  0  0  0  0
    6.9579   13.2850   23.6383 C   0  0  0  0  0  0  0  0  0  0  0  0
    9.8487   10.1445   23.4568 C   0  0  0  0  0  0  0  0  0  0  0  0
    7.5944   10.8348   23.5126 C   0  0  0  0  0  0  0  0  0  0  0  0
    7.8796   12.1832   24.2077 C   0  0  0  0  0  0  0  0  0  0  0  0
    9.7296   13.6657   23.6438 O   0  0  0  0  0  0  0  0  0  0  0  0
    8.5323    9.8298   23.9093 O   0  0  0  0  0  0  0  0  0  0  0  0
   11.3179   11.7030   23.6958 H   0  0  0  0  0  0  0  0  0  0  0  0
   10.4854   11.2619   25.1989 H   0  0  0  0  0  0  0  0  0  0  0  0
    4.3182   12.8791   25.8500 H   0  0  0  0  0  0  0  0  0  0  0  0
    5.6419   14.0287   26.0207 H   0  0  0  0  0  0  0  0  0  0  0  0
    6.1744   11.9883   27.2733 H   0  0  0  0  0  0  0  0  0  0  0  0
    5.8557   10.9822   25.8648 H   0  0  0  0  0  0  0  0  0  0  0  0
    5.0845   12.2211   23.6226 H   0  0  0  0  0  0  0  0  0  0  0  0
    4.9018   13.9633   23.6880 H   0  0  0  0  0  0  0  0  0  0  0  0
    8.1393   12.9634   26.2466 H   0  0  0  0  0  0  0  0  0  0  0  0
    8.2500   11.2183   26.1183 H   0  0  0  0  0  0  0  0  0  0  0  0
    6.9942   13.2523   22.5455 H   0  0  0  0  0  0  0  0  0  0  0  0
    7.3126   14.2732   23.9403 H   0  0  0  0  0  0  0  0  0  0  0  0
    9.8451   10.2404   22.3647 H   0  0  0  0  0  0  0  0  0  0  0  0
   10.5011    9.3039   23.7122 H   0  0  0  0  0  0  0  0  0  0  0  0
    6.5969   10.4685   23.7802 H   0  0  0  0  0  0  0  0  0  0  0  0
    7.6171   10.9315   22.4194 H   0  0  0  0  0  0  0  0  0  0  0  0
  1  2  1  0  0  0  0
  1 10  1  0  0  0  0
  1 11  2  0  0  0  0
  2  8  1  0  0  0  0
  3  4  1  0  0  0  0
  3  5  1  0  0  0  0
  4  6  1  0  0  0  0
  5  7  1  0  0  0  0
  6 10  1  0  0  0  0
  7 10  1  0  0  0  0
  8 12  1  0  0  0  0
  9 10  1  0  0  0  0
  9 12  1  0  0  0  0
  2 13  1  0  0  0  0
  2 14  1  0  0  0  0
  3 15  1  0  0  0  0
  3 16  1  0  0  0  0
  4 17  1  0  0  0  0
  4 18  1  0  0  0  0
  5 19  1  0  0  0  0
  5 20  1  0  0  0  0
  6 21  1  0  0  0  0
  6 22  1  0  0  0  0
  7 23  1  0  0  0  0
  7 24  1  0  0  0  0
  8 25  1  0  0  0  0
  8 26  1  0  0  0  0
  9 27  1  0  0  0  0
  9 28  1  0  0  0  0
M  END
> <Catalog ID>
Z2732500660

> <PlateID>
1337959-R-07

> <Well>
D08

> <MW (desalted)>
168.233

> <CLogP>
1.534

> <HBD>
0

> <TPSA>
26.300

> <RotBonds>
0

> <ROCS_ShapeQuery>
x0446_0A_x1080_0A_x0929_0A_x0812_0A_x0719_0A_x1140_0A_x0528_0A_x0310_0A

> <ROCS_TanimotoCombo>
0.295 

> <ROCS_ShapeTanimoto>
0.172 

> <ROCS_ColorTanimoto>
0.123 

> <ROCS_RefTversky>
0.160 

> <ROCS_RefColorTversky>
0.127 

> <ROCS_RefTverskyCombo>
0.287 

> <ROCS_FitTversky>
1.705 

> <ROCS_FitColorTversky>
0.799 

> <ROCS_FitTverskyCombo>
2.504 

> <ROCS_ColorScore>
-4.522

> <ROCS_Overlap>
1888.465

> <ROCS_Rank>
412                 

$$$$
untitled-dbase-195_0
  -OEChem-02082415003D

 25 27  0     0  0  0  0  0  0999 V2000
   11.5444   12.8901   24.3213 C   0  0  0  0  0  0  0  0  0  0  0  0
   12.0472   11.7742   23.6414 C   0  0  0  0  0  0  0  0  0  0  0  0
   10.1757   13.0083   24.5764 C   0  0  0  0  0  0  0  0  0  0  0  0
   11.1869   10.7678   23.2042 C   0  0  0  0  0  0  0  0  0  0  0  0
    9.3071   12.0100   24.1436 C   0  0  0  0  0  0  0  0  0  0  0  0
    9.8290   10.9085   23.4451 C   0  0  0  0  0  0  0  0  0  0  0  0
    5.8961   12.5316   25.0946 C   0  0  0  0  0  0  0  0  0  0  0  0
    7.1347   11.8559   25.7149 C   0  0  0  0  0  0  0  0  0  0  0  0
    6.8162   13.0375   23.9664 C   0  0  0  0  0  0  0  0  0  0  0  0
    7.5202   10.5473   23.4640 C   0  0  0  0  0  0  0  0  0  0  0  0
    7.7658   11.8478   24.2899 C   0  0  0  0  0  0  0  0  0  0  0  0
    8.8310    9.9870   23.1247 N   0  0  0  0  0  0  0  0  0  0  0  0
   12.2256   13.6666   24.6584 H   0  0  0  0  0  0  0  0  0  0  0  0
   13.1147   11.6912   23.4578 H   0  0  0  0  0  0  0  0  0  0  0  0
    9.7955   13.8715   25.1140 H   0  0  0  0  0  0  0  0  0  0  0  0
   11.5795    9.8991   22.6858 H   0  0  0  0  0  0  0  0  0  0  0  0
    5.1292   11.8253   24.7567 H   0  0  0  0  0  0  0  0  0  0  0  0
    5.4215   13.3049   25.7037 H   0  0  0  0  0  0  0  0  0  0  0  0
    7.6602   12.4934   26.4364 H   0  0  0  0  0  0  0  0  0  0  0  0
    6.9567   10.8821   26.1794 H   0  0  0  0  0  0  0  0  0  0  0  0
    6.3693   13.0528   22.9685 H   0  0  0  0  0  0  0  0  0  0  0  0
    7.2454   14.0266   24.1680 H   0  0  0  0  0  0  0  0  0  0  0  0
    6.9368    9.8098   24.0250 H   0  0  0  0  0  0  0  0  0  0  0  0
    6.9844   10.7734   22.5350 H   0  0  0  0  0  0  0  0  0  0  0  0
    8.9637    9.2520   22.4449 H   0  0  0  0  0  0  0  0  0  0  0  0
  1  2  2  0  0  0  0
  1  3  1  0  0  0  0
  2  4  1  0  0  0  0
  3  5  2  0  0  0  0
  4  6  2  0  0  0  0
  5  6  1  0  0  0  0
  5 11  1  0  0  0  0
  6 12  1  0  0  0  0
  7  8  1  0  0  0  0
  7  9  1  0  0  0  0
  8 11  1  0  0  0  0
  9 11  1  0  0  0  0
 10 11  1  0  0  0  0
 10 12  1  0  0  0  0
  1 13  1  0  0  0  0
  2 14  1  0  0  0  0
  3 15  1  0  0  0  0
  4 16  1  0  0  0  0
  7 17  1  0  0  0  0
  7 18  1  0  0  0  0
  8 19  1  0  0  0  0
  8 20  1  0  0  0  0
  9 21  1  0  0  0  0
  9 22  1  0  0  0  0
 10 23  1  0  0  0  0
 10 24  1  0  0  0  0
 12 25  1  0  0  0  0
M  END
> <Catalog ID>
Z1836338847

> <PlateID>
1337959-R-04

> <Well>
H08

> <MW (desalted)>
159.228

> <CLogP>
2.649

> <HBD>
1

> <TPSA>
12.030

> <RotBonds>
0

> <ROCS_ShapeQuery>
x0446_0A_x1080_0A_x0929_0A_x0812_0A_x0719_0A_x1140_0A_x0528_0A_x0310_0A

> <ROCS_TanimotoCombo>
0.295 

> <ROCS_ShapeTanimoto>
0.176 

> <ROCS_ColorTanimoto>
0.119 

> <ROCS_RefTversky>
0.164 

> <ROCS_RefColorTversky>
0.124 

> <ROCS_RefTverskyCombo>
0.287 

> <ROCS_FitTversky>
1.702 

> <ROCS_FitColorTversky>
0.773 

> <ROCS_FitTverskyCombo>
2.474 

> <ROCS_ColorScore>
-4.390

> <ROCS_Overlap>
1929.946

> <ROCS_Rank>
413                 

$$$$
untitled-dbase-400_5
  -OEChem-02082415003D

 30 31  0     0  0  0  0  0  0999 V2000
   13.0216   14.8840   22.4834 C   0  0  0  0  0  0  0  0  0  0  0  0
   12.2852   16.0563   22.3131 C   0  0  0  0  0  0  0  0  0  0  0  0
   12.3895   13.6439   22.3920 C   0  0  0  0  0  0  0  0  0  0  0  0
   10.9168   15.9886   22.0516 C   0  0  0  0  0  0  0  0  0  0  0  0
   11.0211   13.5761   22.1305 C   0  0  0  0  0  0  0  0  0  0  0  0
   10.2847   14.7485   21.9602 C   0  0  0  0  0  0  0  0  0  0  0  0
   10.3813   12.2584   22.0403 C   0  0  0  0  0  0  0  0  0  0  0  0
    9.9055   12.3126   24.5434 C   0  0  0  0  0  0  0  0  0  0  0  0
    9.1541   10.4178   23.1428 C   0  0  0  0  0  0  0  0  0  0  0  0
    8.5119   12.7053   25.0191 C   0  0  0  0  0  0  0  0  0  0  0  0
    7.6721   10.5865   23.4561 C   0  0  0  0  0  0  0  0  0  0  0  0
    8.8181   14.7051   21.6798 C   0  0  0  0  0  0  0  0  0  0  0  0
    9.8612   11.6971   23.2103 N   0  0  0  0  0  0  0  0  0  0  0  0
   10.3475   11.7484   20.9215 O   0  0  0  0  0  0  0  0  0  0  0  0
    8.2528   15.9398   21.5415 F   0  0  0  0  0  0  0  0  0  0  0  0
    8.5028   14.0363   20.5325 F   0  0  0  0  0  0  0  0  0  0  0  0
    8.1144   14.0871   22.6714 F   0  0  0  0  0  0  0  0  0  0  0  0
    7.4163   11.2541   25.1315 S   0  0  0  0  0  0  0  0  0  0  0  0
   14.0874   14.9362   22.6869 H   0  0  0  0  0  0  0  0  0  0  0  0
   12.7779   17.0217   22.3847 H   0  0  0  0  0  0  0  0  0  0  0  0
   12.9743   12.7377   22.5277 H   0  0  0  0  0  0  0  0  0  0  0  0
   10.3524   16.9080   21.9201 H   0  0  0  0  0  0  0  0  0  0  0  0
   10.5436   13.2004   24.5412 H   0  0  0  0  0  0  0  0  0  0  0  0
   10.3711   11.5945   25.2299 H   0  0  0  0  0  0  0  0  0  0  0  0
    9.6345    9.7240   23.8433 H   0  0  0  0  0  0  0  0  0  0  0  0
    9.2595    9.9852   22.1420 H   0  0  0  0  0  0  0  0  0  0  0  0
    8.5739   13.1592   26.0131 H   0  0  0  0  0  0  0  0  0  0  0  0
    8.0610   13.4435   24.3473 H   0  0  0  0  0  0  0  0  0  0  0  0
    7.1911   11.2505   22.7296 H   0  0  0  0  0  0  0  0  0  0  0  0
    7.1685    9.6164   23.3977 H   0  0  0  0  0  0  0  0  0  0  0  0
  1  2  2  0  0  0  0
  1  3  1  0  0  0  0
  2  4  1  0  0  0  0
  3  5  2  0  0  0  0
  4  6  2  0  0  0  0
  5  6  1  0  0  0  0
  5  7  1  0  0  0  0
  6 12  1  0  0  0  0
  7 13  1  0  0  0  0
  7 14  2  0  0  0  0
  8 10  1  0  0  0  0
  8 13  1  0  0  0  0
  9 11  1  0  0  0  0
  9 13  1  0  0  0  0
 10 18  1  0  0  0  0
 11 18  1  0  0  0  0
 12 15  1  0  0  0  0
 12 16  1  0  0  0  0
 12 17  1  0  0  0  0
  1 19  1  0  0  0  0
  2 20  1  0  0  0  0
  3 21  1  0  0  0  0
  4 22  1  0  0  0  0
  8 23  1  0  0  0  0
  8 24  1  0  0  0  0
  9 25  1  0  0  0  0
  9 26  1  0  0  0  0
 10 27  1  0  0  0  0
 10 28  1  0  0  0  0
 11 29  1  0  0  0  0
 11 30  1  0  0  0  0
M  END
> <Catalog ID>
Z437588016

> <PlateID>
1337959-R-09

> <Well>
E07

> <MW (desalted)>
275.290

> <CLogP>
2.522

> <HBD>
0

> <TPSA>
20.310

> <RotBonds>
2

> <ROCS_ShapeQuery>
x0446_0A_x1080_0A_x0929_0A_x0812_0A_x0719_0A_x1140_0A_x0528_0A_x0310_0A

> <ROCS_TanimotoCombo>
0.295 

> <ROCS_ShapeTanimoto>
0.213 

> <ROCS_ColorTanimoto>
0.081 

> <ROCS_RefTversky>
0.196 

> <ROCS_RefColorTversky>
0.085 

> <ROCS_RefTverskyCombo>
0.281 

> <ROCS_FitTversky>
1.684 

> <ROCS_FitColorTversky>
0.643 

> <ROCS_FitTverskyCombo>
2.327 

> <ROCS_ColorScore>
-3.028

> <ROCS_Overlap>
2315.058

> <ROCS_Rank>
414                 

$$$$
untitled-dbase-91_6
  -OEChem-02082415003D

 32 33  0     0  0  0  0  0  0999 V2000
    5.2405   15.5858   20.9328 C   0  0  0  0  0  0  0  0  0  0  0  0
    6.4518   16.1646   21.3112 C   0  0  0  0  0  0  0  0  0  0  0  0
    4.7140   14.5249   21.6698 C   0  0  0  0  0  0  0  0  0  0  0  0
    7.1368   15.6826   22.4266 C   0  0  0  0  0  0  0  0  0  0  0  0
    5.3990   14.0429   22.7852 C   0  0  0  0  0  0  0  0  0  0  0  0
    6.6104   14.6217   23.1636 C   0  0  0  0  0  0  0  0  0  0  0  0
    9.5507   13.6620   23.4234 C   0  0  0  0  0  0  0  0  0  0  0  0
    8.7050   12.1579   25.2214 C   0  0  0  0  0  0  0  0  0  0  0  0
    7.7004   12.0730   22.9101 C   0  0  0  0  0  0  0  0  0  0  0  0
    9.4750   10.8943   24.8479 C   0  0  0  0  0  0  0  0  0  0  0  0
    8.5327   10.8147   22.6799 C   0  0  0  0  0  0  0  0  0  0  0  0
    8.3234   12.9837   23.9814 C   0  0  0  0  0  0  0  0  0  0  0  0
    7.3474   14.1021   24.3645 C   0  0  0  0  0  0  0  0  0  0  0  0
    9.5659   14.3868   22.4396 O   0  0  0  0  0  0  0  0  0  0  0  0
    8.7425   10.1150   23.9047 O   0  0  0  0  0  0  0  0  0  0  0  0
   10.6447   13.3561   24.1628 O   0  0  0  0  0  0  0  0  0  0  0  0
    4.7066   15.9621   20.0650 H   0  0  0  0  0  0  0  0  0  0  0  0
    6.8613   16.9913   20.7380 H   0  0  0  0  0  0  0  0  0  0  0  0
    3.7704   14.0748   21.3761 H   0  0  0  0  0  0  0  0  0  0  0  0
    8.0800   16.1396   22.7139 H   0  0  0  0  0  0  0  0  0  0  0  0
    4.9813   13.2160   23.3534 H   0  0  0  0  0  0  0  0  0  0  0  0
    7.7856   11.8559   25.7403 H   0  0  0  0  0  0  0  0  0  0  0  0
    9.2966   12.7515   25.9287 H   0  0  0  0  0  0  0  0  0  0  0  0
    7.5718   12.6055   21.9602 H   0  0  0  0  0  0  0  0  0  0  0  0
    6.7019   11.7644   23.2471 H   0  0  0  0  0  0  0  0  0  0  0  0
   10.4649   11.1291   24.4396 H   0  0  0  0  0  0  0  0  0  0  0  0
    9.6280   10.2784   25.7400 H   0  0  0  0  0  0  0  0  0  0  0  0
    8.0020   10.1412   21.9992 H   0  0  0  0  0  0  0  0  0  0  0  0
    9.5003   11.0477   22.2203 H   0  0  0  0  0  0  0  0  0  0  0  0
    7.9012   14.9112   24.8471 H   0  0  0  0  0  0  0  0  0  0  0  0
    6.6406   13.7224   25.1064 H   0  0  0  0  0  0  0  0  0  0  0  0
   11.4545   13.7866   23.8145 H   0  0  0  0  0  0  0  0  0  0  0  0
  1  2  2  0  0  0  0
  1  3  1  0  0  0  0
  2  4  1  0  0  0  0
  3  5  2  0  0  0  0
  4  6  2  0  0  0  0
  5  6  1  0  0  0  0
  6 13  1  0  0  0  0
  7 12  1  0  0  0  0
  7 14  2  0  0  0  0
  7 16  1  0  0  0  0
  8 10  1  0  0  0  0
  8 12  1  0  0  0  0
  9 11  1  0  0  0  0
  9 12  1  0  0  0  0
 10 15  1  0  0  0  0
 11 15  1  0  0  0  0
 12 13  1  0  0  0  0
  1 17  1  0  0  0  0
  2 18  1  0  0  0  0
  3 19  1  0  0  0  0
  4 20  1  0  0  0  0
  5 21  1  0  0  0  0
  8 22  1  0  0  0  0
  8 23  1  0  0  0  0
  9 24  1  0  0  0  0
  9 25  1  0  0  0  0
 10 26  1  0  0  0  0
 10 27  1  0  0  0  0
 11 28  1  0  0  0  0
 11 29  1  0  0  0  0
 13 30  1  0  0  0  0
 13 31  1  0  0  0  0
 16 32  1  0  0  0  0
M  END
> <Catalog ID>
Z1037344052

> <PlateID>
1337959-R-02

> <Well>
F08

> <MW (desalted)>
220.264

> <CLogP>
1.525

> <HBD>
1

> <TPSA>
46.530

> <RotBonds>
3

> <ROCS_ShapeQuery>
x0446_0A_x1080_0A_x0929_0A_x0812_0A_x0719_0A_x1140_0A_x0528_0A_x0310_0A

> <ROCS_TanimotoCombo>
0.294 

> <ROCS_ShapeTanimoto>
0.184 

> <ROCS_ColorTanimoto>
0.110 

> <ROCS_RefTversky>
0.172 

> <ROCS_RefColorTversky>
0.120 

> <ROCS_RefTverskyCombo>
0.293 

> <ROCS_FitTversky>
1.576 

> <ROCS_FitColorTversky>
0.567 

> <ROCS_FitTverskyCombo>
2.143 

> <ROCS_ColorScore>
-4.293

> <ROCS_Overlap>
2034.895

> <ROCS_Rank>
415                 

$$$$
untitled-dbase-308_1
  -OEChem-02082415003D

 29 30  0     0  0  0  0  0  0999 V2000
    9.7987   13.9598   22.1721 C   0  0  0  0  0  0  0  0  0  0  0  0
   12.3531   11.4059   23.0414 C   0  0  0  0  0  0  0  0  0  0  0  0
   11.6126   10.5293   23.8345 C   0  0  0  0  0  0  0  0  0  0  0  0
   11.7447   12.5368   22.4967 C   0  0  0  0  0  0  0  0  0  0  0  0
   10.2638   10.7835   24.0827 C   0  0  0  0  0  0  0  0  0  0  0  0
   10.3959   12.7910   22.7450 C   0  0  0  0  0  0  0  0  0  0  0  0
    9.6554   11.9144   23.5380 C   0  0  0  0  0  0  0  0  0  0  0  0
    6.5982   13.6000   24.8361 C   0  0  0  0  0  0  0  0  0  0  0  0
    5.9296   11.8021   23.2267 C   0  0  0  0  0  0  0  0  0  0  0  0
    7.9702   12.9418   24.9937 C   0  0  0  0  0  0  0  0  0  0  0  0
    7.3047   11.1502   23.3885 C   0  0  0  0  0  0  0  0  0  0  0  0
    5.5164   12.5882   24.4684 C   0  0  0  0  0  0  0  0  0  0  0  0
    9.3148   14.9069   21.7078 N   0  0  0  0  0  0  0  0  0  0  0  0
    8.3001   12.1447   23.8040 N   0  0  0  0  0  0  0  0  0  0  0  0
    5.3158   11.7015   25.5651 O   0  0  0  0  0  0  0  0  0  0  0  0
   13.4032   11.2077   22.8478 H   0  0  0  0  0  0  0  0  0  0  0  0
   12.0864    9.6486   24.2579 H   0  0  0  0  0  0  0  0  0  0  0  0
   12.3366   13.2100   21.8807 H   0  0  0  0  0  0  0  0  0  0  0  0
    9.6973   10.0921   24.7015 H   0  0  0  0  0  0  0  0  0  0  0  0
    6.3251   14.1211   25.7659 H   0  0  0  0  0  0  0  0  0  0  0  0
    6.6476   14.3847   24.0685 H   0  0  0  0  0  0  0  0  0  0  0  0
    5.9352   12.4666   22.3524 H   0  0  0  0  0  0  0  0  0  0  0  0
    5.1760   11.0334   23.0028 H   0  0  0  0  0  0  0  0  0  0  0  0
    8.7358   13.7122   25.1506 H   0  0  0  0  0  0  0  0  0  0  0  0
    7.9525   12.3043   25.8862 H   0  0  0  0  0  0  0  0  0  0  0  0
    7.2281   10.3508   24.1356 H   0  0  0  0  0  0  0  0  0  0  0  0
    7.6098   10.6904   22.4400 H   0  0  0  0  0  0  0  0  0  0  0  0
    4.5662   13.1134   24.2845 H   0  0  0  0  0  0  0  0  0  0  0  0
    4.6245   11.0759   25.2953 H   0  0  0  0  0  0  0  0  0  0  0  0
  1  6  1  0  0  0  0
  1 13  3  0  0  0  0
  2  3  2  0  0  0  0
  2  4  1  0  0  0  0
  3  5  1  0  0  0  0
  4  6  2  0  0  0  0
  5  7  2  0  0  0  0
  6  7  1  0  0  0  0
  7 14  1  0  0  0  0
  8 10  1  0  0  0  0
  8 12  1  0  0  0  0
  9 11  1  0  0  0  0
  9 12  1  0  0  0  0
 10 14  1  0  0  0  0
 11 14  1  0  0  0  0
 12 15  1  0  0  0  0
  2 16  1  0  0  0  0
  3 17  1  0  0  0  0
  4 18  1  0  0  0  0
  5 19  1  0  0  0  0
  8 20  1  0  0  0  0
  8 21  1  0  0  0  0
  9 22  1  0  0  0  0
  9 23  1  0  0  0  0
 10 24  1  0  0  0  0
 10 25  1  0  0  0  0
 11 26  1  0  0  0  0
 11 27  1  0  0  0  0
 12 28  1  0  0  0  0
 15 29  1  0  0  0  0
M  END
> <Catalog ID>
Z127738380

> <PlateID>
1337959-R-07

> <Well>
D10

> <MW (desalted)>
202.252

> <CLogP>
0.723

> <HBD>
1

> <TPSA>
47.260

> <RotBonds>
1

> <ROCS_ShapeQuery>
x0446_0A_x1080_0A_x0929_0A_x0812_0A_x0719_0A_x1140_0A_x0528_0A_x0310_0A

> <ROCS_TanimotoCombo>
0.294 

> <ROCS_ShapeTanimoto>
0.184 

> <ROCS_ColorTanimoto>
0.110 

> <ROCS_RefTversky>
0.172 

> <ROCS_RefColorTversky>
0.117 

> <ROCS_RefTverskyCombo>
0.289 

> <ROCS_FitTversky>
1.631 

> <ROCS_FitColorTversky>
0.632 

> <ROCS_FitTverskyCombo>
2.263 

> <ROCS_ColorScore>
-4.176

> <ROCS_Overlap>
2028.110

> <ROCS_Rank>
416                 

$$$$
untitled-dbase-59_0
  -OEChem-02082415003D

 24 26  0     0  0  0  0  0  0999 V2000
   11.9087   11.6522   23.0911 C   0  0  0  0  0  0  0  0  0  0  0  0
   12.0955   10.4059   23.6783 C   0  0  0  0  0  0  0  0  0  0  0  0
    9.7176   10.2603   24.0781 C   0  0  0  0  0  0  0  0  0  0  0  0
    9.4910   11.5164   23.4840 C   0  0  0  0  0  0  0  0  0  0  0  0
   10.6183   12.1852   22.9933 C   0  0  0  0  0  0  0  0  0  0  0  0
   10.9988    9.7076   24.1706 C   0  0  0  0  0  0  0  0  0  0  0  0
    9.2133   14.0139   22.0989 C   0  0  0  0  0  0  0  0  0  0  0  0
    7.4790   12.6935   24.7636 C   0  0  0  0  0  0  0  0  0  0  0  0
    6.8018   11.3596   23.3141 C   0  0  0  0  0  0  0  0  0  0  0  0
    8.0912   12.2458   23.3939 C   0  0  0  0  0  0  0  0  0  0  0  0
   10.4381   13.4378   22.3933 N   0  0  0  0  0  0  0  0  0  0  0  0
    6.1553   12.2736   24.2727 N   0  0  0  0  0  0  0  0  0  0  0  0
    9.1321   15.1021   21.5281 O   0  0  0  0  0  0  0  0  0  0  0  0
    8.0736   13.3081   22.3960 O   0  0  0  0  0  0  0  0  0  0  0  0
   11.1696    8.5097   24.7456 F   0  0  0  0  0  0  0  0  0  0  0  0
   12.7672   12.1966   22.7071 H   0  0  0  0  0  0  0  0  0  0  0  0
   13.0920    9.9818   23.7541 H   0  0  0  0  0  0  0  0  0  0  0  0
    8.8860    9.6999   24.4974 H   0  0  0  0  0  0  0  0  0  0  0  0
    7.8269   12.1283   25.6366 H   0  0  0  0  0  0  0  0  0  0  0  0
    7.5551   13.7615   24.9892 H   0  0  0  0  0  0  0  0  0  0  0  0
    6.3157   11.3274   22.3339 H   0  0  0  0  0  0  0  0  0  0  0  0
    6.8914   10.3327   23.6827 H   0  0  0  0  0  0  0  0  0  0  0  0
   11.2729   13.9665   22.1548 H   0  0  0  0  0  0  0  0  0  0  0  0
    5.5632   11.8214   24.9671 H   0  0  0  0  0  0  0  0  0  0  0  0
  1  2  1  0  0  0  0
  1  5  2  0  0  0  0
  2  6  2  0  0  0  0
  3  4  2  0  0  0  0
  3  6  1  0  0  0  0
  4  5  1  0  0  0  0
  4 10  1  0  0  0  0
  5 11  1  0  0  0  0
  6 15  1  0  0  0  0
  7 11  1  0  0  0  0
  7 13  2  0  0  0  0
  7 14  1  0  0  0  0
  8 10  1  0  0  0  0
  8 12  1  0  0  0  0
  9 10  1  0  0  0  0
  9 12  1  0  0  0  0
 10 14  1  0  0  0  0
  1 16  1  0  0  0  0
  2 17  1  0  0  0  0
  3 18  1  0  0  0  0
  8 19  1  0  0  0  0
  8 20  1  0  0  0  0
  9 21  1  0  0  0  0
  9 22  1  0  0  0  0
 11 23  1  0  0  0  0
 12 24  1  0  0  0  0
M  END
> <Catalog ID>
Z1999517695

> <PlateID>
1337959-R-02

> <Well>
A09

> <MW (desalted)>
208.189

> <CLogP>
0.185

> <HBD>
2

> <TPSA>
50.360

> <RotBonds>
0

> <ROCS_ShapeQuery>
x0446_0A_x1080_0A_x0929_0A_x0812_0A_x0719_0A_x1140_0A_x0528_0A_x0310_0A

> <ROCS_TanimotoCombo>
0.294 

> <ROCS_ShapeTanimoto>
0.189 

> <ROCS_ColorTanimoto>
0.105 

> <ROCS_RefTversky>
0.176 

> <ROCS_RefColorTversky>
0.118 

> <ROCS_RefTverskyCombo>
0.294 

> <ROCS_FitTversky>
1.626 

> <ROCS_FitColorTversky>
0.493 

> <ROCS_FitTverskyCombo>
2.119 

> <ROCS_ColorScore>
-4.196

> <ROCS_Overlap>
2076.361

> <ROCS_Rank>
417                 

$$$$
untitled-dbase-577_1
  -OEChem-02082415003D

 31 32  0     0  0  0  0  0  0999 V2000
    6.5134   13.8383   21.2786 C   0  0  0  0  0  0  0  0  0  0  0  0
    8.8347   14.1457   20.6834 C   0  0  0  0  0  0  0  0  0  0  0  0
    6.1689   13.8228   19.9271 C   0  0  0  0  0  0  0  0  0  0  0  0
    8.4902   14.1301   19.3318 C   0  0  0  0  0  0  0  0  0  0  0  0
    8.2747   10.3238   24.4445 C   0  0  0  0  0  0  0  0  0  0  0  0
    7.8464   13.9998   21.6568 C   0  0  0  0  0  0  0  0  0  0  0  0
    7.1573   13.9687   18.9537 C   0  0  0  0  0  0  0  0  0  0  0  0
    9.6144   10.5627   24.0841 C   0  0  0  0  0  0  0  0  0  0  0  0
    7.6411   11.5226   24.2256 C   0  0  0  0  0  0  0  0  0  0  0  0
    7.6828    9.0719   24.9470 C   0  0  0  0  0  0  0  0  0  0  0  0
   10.7436    9.6164   24.1231 C   0  0  0  0  0  0  0  0  0  0  0  0
    6.2295   11.9119   24.4173 C   0  0  0  0  0  0  0  0  0  0  0  0
    9.8208   11.8149   23.6677 N   0  0  0  0  0  0  0  0  0  0  0  0
    8.6024   12.3735   23.7650 N   0  0  0  0  0  0  0  0  0  0  0  0
    9.5669   14.6606   23.5345 O   0  0  0  0  0  0  0  0  0  0  0  0
    7.1031   14.3976   24.1117 O   0  0  0  0  0  0  0  0  0  0  0  0
    8.2776   14.0192   23.3485 S   0  0  0  0  0  0  0  0  0  0  0  0
    6.7322   13.9495   17.2862 Cl  0  0  0  0  0  0  0  0  0  0  0  0
    5.7356   13.7238   22.0287 H   0  0  0  0  0  0  0  0  0  0  0  0
    9.8761   14.2721   20.9670 H   0  0  0  0  0  0  0  0  0  0  0  0
    5.1263   13.6962   19.6471 H   0  0  0  0  0  0  0  0  0  0  0  0
    9.2709   14.2449   18.5842 H   0  0  0  0  0  0  0  0  0  0  0  0
    7.7299    9.0206   26.0482 H   0  0  0  0  0  0  0  0  0  0  0  0
    6.6232    8.9649   24.6541 H   0  0  0  0  0  0  0  0  0  0  0  0
    8.1975    8.1788   24.5500 H   0  0  0  0  0  0  0  0  0  0  0  0
   10.8415    9.0717   23.1689 H   0  0  0  0  0  0  0  0  0  0  0  0
   11.7050   10.1236   24.3175 H   0  0  0  0  0  0  0  0  0  0  0  0
   10.6298    8.8659   24.9252 H   0  0  0  0  0  0  0  0  0  0  0  0
    6.0607   12.3036   25.4334 H   0  0  0  0  0  0  0  0  0  0  0  0
    5.9146   12.6894   23.7010 H   0  0  0  0  0  0  0  0  0  0  0  0
    5.5426   11.0618   24.2667 H   0  0  0  0  0  0  0  0  0  0  0  0
  1  3  1  0  0  0  0
  1  6  2  0  0  0  0
  2  4  2  0  0  0  0
  2  6  1  0  0  0  0
  3  7  2  0  0  0  0
  4  7  1  0  0  0  0
  5  8  1  0  0  0  0
  5  9  2  0  0  0  0
  5 10  1  0  0  0  0
  6 17  1  0  0  0  0
  7 18  1  0  0  0  0
  8 11  1  0  0  0  0
  8 13  2  0  0  0  0
  9 12  1  0  0  0  0
  9 14  1  0  0  0  0
 13 14  1  0  0  0  0
 14 17  1  0  0  0  0
 15 17  2  0  0  0  0
 16 17  2  0  0  0  0
  1 19  1  0  0  0  0
  2 20  1  0  0  0  0
  3 21  1  0  0  0  0
  4 22  1  0  0  0  0
 10 23  1  0  0  0  0
 10 24  1  0  0  0  0
 10 25  1  0  0  0  0
 11 26  1  0  0  0  0
 11 27  1  0  0  0  0
 11 28  1  0  0  0  0
 12 29  1  0  0  0  0
 12 30  1  0  0  0  0
 12 31  1  0  0  0  0
M  END
> <Catalog ID>
Z2734701891

> <PlateID>
1337959-R-13

> <Well>
E04

> <MW (desalted)>
284.762

> <CLogP>
1.925

> <HBD>
0

> <TPSA>
51.960

> <RotBonds>
1

> <ROCS_ShapeQuery>
x0446_0A_x1080_0A_x0929_0A_x0812_0A_x0719_0A_x1140_0A_x0528_0A_x0310_0A

> <ROCS_TanimotoCombo>
0.294 

> <ROCS_ShapeTanimoto>
0.185 

> <ROCS_ColorTanimoto>
0.109 

> <ROCS_RefTversky>
0.174 

> <ROCS_RefColorTversky>
0.116 

> <ROCS_RefTverskyCombo>
0.290 

> <ROCS_FitTversky>
1.511 

> <ROCS_FitColorTversky>
0.625 

> <ROCS_FitTverskyCombo>
2.136 

> <ROCS_ColorScore>
-4.133

> <ROCS_Overlap>
2055.779

> <ROCS_Rank>
418                 

$$$$
untitled-dbase-56_3
  -OEChem-02082415003D

 26 26  0     0  0  0  0  0  0999 V2000
    9.1289   10.3659   22.7696 C   0  0  0  0  0  0  0  0  0  0  0  0
    8.1628   10.4153   23.7745 C   0  0  0  0  0  0  0  0  0  0  0  0
    9.7306   11.5422   22.3222 C   0  0  0  0  0  0  0  0  0  0  0  0
    8.3998   12.8172   23.8843 C   0  0  0  0  0  0  0  0  0  0  0  0
    7.7982   11.6409   24.3318 C   0  0  0  0  0  0  0  0  0  0  0  0
    9.3660   12.7678   22.8795 C   0  0  0  0  0  0  0  0  0  0  0  0
    5.5212   12.4998   24.9884 C   0  0  0  0  0  0  0  0  0  0  0  0
    7.3225   12.2420   26.7332 C   0  0  0  0  0  0  0  0  0  0  0  0
    6.7651   11.6929   25.4062 C   0  0  0  0  0  0  0  0  0  0  0  0
   11.1819   13.6286   21.1283 N   0  0  0  0  0  0  0  0  0  0  0  0
    9.1031   15.0551   21.6662 O   0  0  0  0  0  0  0  0  0  0  0  0
   10.9074   14.8004   23.4061 O   0  0  0  0  0  0  0  0  0  0  0  0
   10.1184   14.2396   22.3180 S   0  0  0  0  0  0  0  0  0  0  0  0
    9.4134    9.4116   22.3361 H   0  0  0  0  0  0  0  0  0  0  0  0
    7.7001    9.4937   24.1176 H   0  0  0  0  0  0  0  0  0  0  0  0
   10.4817   11.4918   21.5384 H   0  0  0  0  0  0  0  0  0  0  0  0
    8.1149   13.7719   24.3199 H   0  0  0  0  0  0  0  0  0  0  0  0
    5.7765   13.5369   24.7450 H   0  0  0  0  0  0  0  0  0  0  0  0
    4.7708   12.5209   25.7862 H   0  0  0  0  0  0  0  0  0  0  0  0
    5.0560   12.0537   24.1023 H   0  0  0  0  0  0  0  0  0  0  0  0
    7.7038   13.2600   26.5957 H   0  0  0  0  0  0  0  0  0  0  0  0
    8.1453   11.6238   27.1083 H   0  0  0  0  0  0  0  0  0  0  0  0
    6.5516   12.2762   27.5109 H   0  0  0  0  0  0  0  0  0  0  0  0
    6.4035   10.6709   25.6287 H   0  0  0  0  0  0  0  0  0  0  0  0
   10.9574   13.8098   20.1423 H   0  0  0  0  0  0  0  0  0  0  0  0
   12.1886   13.6346   21.3328 H   0  0  0  0  0  0  0  0  0  0  0  0
  1  2  1  0  0  0  0
  1  3  2  0  0  0  0
  2  5  2  0  0  0  0
  3  6  1  0  0  0  0
  4  5  1  0  0  0  0
  4  6  2  0  0  0  0
  5  9  1  0  0  0  0
  6 13  1  0  0  0  0
  7  9  1  0  0  0  0
  8  9  1  0  0  0  0
 10 13  1  0  0  0  0
 11 13  2  0  0  0  0
 12 13  2  0  0  0  0
  1 14  1  0  0  0  0
  2 15  1  0  0  0  0
  3 16  1  0  0  0  0
  4 17  1  0  0  0  0
  7 18  1  0  0  0  0
  7 19  1  0  0  0  0
  7 20  1  0  0  0  0
  8 21  1  0  0  0  0
  8 22  1  0  0  0  0
  8 23  1  0  0  0  0
  9 24  1  0  0  0  0
 10 25  1  0  0  0  0
 10 26  1  0  0  0  0
M  END
> <Catalog ID>
Z401602462

> <PlateID>
1337959-R-02

> <Well>
A04

> <MW (desalted)>
199.270

> <CLogP>
1.732

> <HBD>
1

> <TPSA>
60.160

> <RotBonds>
2

> <ROCS_ShapeQuery>
x0446_0A_x1080_0A_x0929_0A_x0812_0A_x0719_0A_x1140_0A_x0528_0A_x0310_0A

> <ROCS_TanimotoCombo>
0.294 

> <ROCS_ShapeTanimoto>
0.180 

> <ROCS_ColorTanimoto>
0.113 

> <ROCS_RefTversky>
0.167 

> <ROCS_RefColorTversky>
0.121 

> <ROCS_RefTverskyCombo>
0.288 

> <ROCS_FitTversky>
1.753 

> <ROCS_FitColorTversky>
0.650 

> <ROCS_FitTverskyCombo>
2.403 

> <ROCS_ColorScore>
-4.300

> <ROCS_Overlap>
1971.824

> <ROCS_Rank>
419                 

$$$$
untitled-dbase-363_0
  -OEChem-02082415003D

 29 30  0     0  0  0  0  0  0999 V2000
    9.3111   11.9432   22.0929 C   0  0  0  0  0  0  0  0  0  0  0  0
    8.9395   10.7298   22.6718 C   0  0  0  0  0  0  0  0  0  0  0  0
    8.4698   11.8659   24.7516 C   0  0  0  0  0  0  0  0  0  0  0  0
    9.2621   13.1180   22.8434 C   0  0  0  0  0  0  0  0  0  0  0  0
    8.8414   13.0794   24.1727 C   0  0  0  0  0  0  0  0  0  0  0  0
    8.5188   10.6912   24.0012 C   0  0  0  0  0  0  0  0  0  0  0  0
    9.6562   14.3742   22.2129 C   0  0  0  0  0  0  0  0  0  0  0  0
   13.3497   14.5922   22.4115 C   0  0  0  0  0  0  0  0  0  0  0  0
   12.9542   16.0330   22.1153 C   0  0  0  0  0  0  0  0  0  0  0  0
   12.0695   14.0030   22.9875 C   0  0  0  0  0  0  0  0  0  0  0  0
   11.5280   15.8927   21.6065 C   0  0  0  0  0  0  0  0  0  0  0  0
    8.7803   14.3222   24.9995 C   0  0  0  0  0  0  0  0  0  0  0  0
   10.9986   14.7304   22.3069 N   0  0  0  0  0  0  0  0  0  0  0  0
    8.8211   15.0527   21.6157 O   0  0  0  0  0  0  0  0  0  0  0  0
    8.1628    9.5257   24.5570 F   0  0  0  0  0  0  0  0  0  0  0  0
    9.6372   11.9602   21.0561 H   0  0  0  0  0  0  0  0  0  0  0  0
    8.9776    9.8153   22.0872 H   0  0  0  0  0  0  0  0  0  0  0  0
    8.1411   11.8249   25.7866 H   0  0  0  0  0  0  0  0  0  0  0  0
   13.6228   14.0759   21.4837 H   0  0  0  0  0  0  0  0  0  0  0  0
   14.1909   14.5270   23.1071 H   0  0  0  0  0  0  0  0  0  0  0  0
   12.9732   16.6275   23.0362 H   0  0  0  0  0  0  0  0  0  0  0  0
   13.6165   16.5036   21.3833 H   0  0  0  0  0  0  0  0  0  0  0  0
   11.9858   12.9261   22.8161 H   0  0  0  0  0  0  0  0  0  0  0  0
   11.9817   14.2045   24.0608 H   0  0  0  0  0  0  0  0  0  0  0  0
   10.9123   16.7762   21.7995 H   0  0  0  0  0  0  0  0  0  0  0  0
   11.5031   15.6735   20.5333 H   0  0  0  0  0  0  0  0  0  0  0  0
    9.7356   14.4846   25.5116 H   0  0  0  0  0  0  0  0  0  0  0  0
    8.5620   15.2000   24.3792 H   0  0  0  0  0  0  0  0  0  0  0  0
    7.9857   14.2576   25.7530 H   0  0  0  0  0  0  0  0  0  0  0  0
  1  2  1  0  0  0  0
  1  4  2  0  0  0  0
  2  6  2  0  0  0  0
  3  5  2  0  0  0  0
  3  6  1  0  0  0  0
  4  5  1  0  0  0  0
  4  7  1  0  0  0  0
  5 12  1  0  0  0  0
  6 15  1  0  0  0  0
  7 13  1  0  0  0  0
  7 14  2  0  0  0  0
  8  9  1  0  0  0  0
  8 10  1  0  0  0  0
  9 11  1  0  0  0  0
 10 13  1  0  0  0  0
 11 13  1  0  0  0  0
  1 16  1  0  0  0  0
  2 17  1  0  0  0  0
  3 18  1  0  0  0  0
  8 19  1  0  0  0  0
  8 20  1  0  0  0  0
  9 21  1  0  0  0  0
  9 22  1  0  0  0  0
 10 23  1  0  0  0  0
 10 24  1  0  0  0  0
 11 25  1  0  0  0  0
 11 26  1  0  0  0  0
 12 27  1  0  0  0  0
 12 28  1  0  0  0  0
 12 29  1  0  0  0  0
M  END
> <Catalog ID>
Z1465369619

> <PlateID>
1337959-R-08

> <Well>
H04

> <MW (desalted)>
207.244

> <CLogP>
1.959

> <HBD>
0

> <TPSA>
20.310

> <RotBonds>
1

> <ROCS_ShapeQuery>
x0446_0A_x1080_0A_x0929_0A_x0812_0A_x0719_0A_x1140_0A_x0528_0A_x0310_0A

> <ROCS_TanimotoCombo>
0.294 

> <ROCS_ShapeTanimoto>
0.196 

> <ROCS_ColorTanimoto>
0.098 

> <ROCS_RefTversky>
0.181 

> <ROCS_RefColorTversky>
0.101 

> <ROCS_RefTverskyCombo>
0.282 

> <ROCS_FitTversky>
1.704 

> <ROCS_FitColorTversky>
0.763 

> <ROCS_FitTverskyCombo>
2.466 

> <ROCS_ColorScore>
-3.592

> <ROCS_Overlap>
2134.097

> <ROCS_Rank>
420                 

$$$$
untitled-dbase-560_1
  -OEChem-02082415003D

 34 35  0     0  0  0  0  0  0999 V2000
    6.1724   13.8192   19.9246 C   0  0  0  0  0  0  0  0  0  0  0  0
    8.4941   14.1241   19.3301 C   0  0  0  0  0  0  0  0  0  0  0  0
    6.5163   13.8353   21.2763 C   0  0  0  0  0  0  0  0  0  0  0  0
    8.8381   14.1403   20.6818 C   0  0  0  0  0  0  0  0  0  0  0  0
    7.1613   13.9635   18.9515 C   0  0  0  0  0  0  0  0  0  0  0  0
    8.2715   10.3252   24.4507 C   0  0  0  0  0  0  0  0  0  0  0  0
    7.8492   13.9959   21.6549 C   0  0  0  0  0  0  0  0  0  0  0  0
    9.6117   10.5617   24.0903 C   0  0  0  0  0  0  0  0  0  0  0  0
    7.6396   11.5244   24.2289 C   0  0  0  0  0  0  0  0  0  0  0  0
    6.7939   13.9456   17.5062 C   0  0  0  0  0  0  0  0  0  0  0  0
    7.6777    9.0752   24.9555 C   0  0  0  0  0  0  0  0  0  0  0  0
   10.7397    9.6140   24.1319 C   0  0  0  0  0  0  0  0  0  0  0  0
    6.2284   11.9159   24.4191 C   0  0  0  0  0  0  0  0  0  0  0  0
    9.8199   11.8127   23.6713 N   0  0  0  0  0  0  0  0  0  0  0  0
    8.6022   12.3731   23.7669 N   0  0  0  0  0  0  0  0  0  0  0  0
    9.5698   14.6584   23.5319 O   0  0  0  0  0  0  0  0  0  0  0  0
    7.1054   14.3999   24.1087 O   0  0  0  0  0  0  0  0  0  0  0  0
    8.2797   14.0183   23.3467 S   0  0  0  0  0  0  0  0  0  0  0  0
    5.1314   13.6933   19.6391 H   0  0  0  0  0  0  0  0  0  0  0  0
    9.2714   14.2369   18.5788 H   0  0  0  0  0  0  0  0  0  0  0  0
    5.7381   13.7215   22.0264 H   0  0  0  0  0  0  0  0  0  0  0  0
    9.8797   14.2655   20.9656 H   0  0  0  0  0  0  0  0  0  0  0  0
    6.5708   14.9609   17.1561 H   0  0  0  0  0  0  0  0  0  0  0  0
    7.6079   13.5373   16.8932 H   0  0  0  0  0  0  0  0  0  0  0  0
    5.9138   13.3143   17.3266 H   0  0  0  0  0  0  0  0  0  0  0  0
    7.7244    9.0262   26.0568 H   0  0  0  0  0  0  0  0  0  0  0  0
    6.6182    8.9690   24.6624 H   0  0  0  0  0  0  0  0  0  0  0  0
    8.1915    8.1806   24.5607 H   0  0  0  0  0  0  0  0  0  0  0  0
   10.8373    9.0671   23.1789 H   0  0  0  0  0  0  0  0  0  0  0  0
   11.7016   10.1204   24.3256 H   0  0  0  0  0  0  0  0  0  0  0  0
   10.6245    8.8653   24.9355 H   0  0  0  0  0  0  0  0  0  0  0  0
    6.0596   12.3101   25.4343 H   0  0  0  0  0  0  0  0  0  0  0  0
    5.9148   12.6924   23.7010 H   0  0  0  0  0  0  0  0  0  0  0  0
    5.5405   11.0664   24.2700 H   0  0  0  0  0  0  0  0  0  0  0  0
  1  3  1  0  0  0  0
  1  5  2  0  0  0  0
  2  4  2  0  0  0  0
  2  5  1  0  0  0  0
  3  7  2  0  0  0  0
  4  7  1  0  0  0  0
  5 10  1  0  0  0  0
  6  8  1  0  0  0  0
  6  9  2  0  0  0  0
  6 11  1  0  0  0  0
  7 18  1  0  0  0  0
  8 12  1  0  0  0  0
  8 14  2  0  0  0  0
  9 13  1  0  0  0  0
  9 15  1  0  0  0  0
 14 15  1  0  0  0  0
 15 18  1  0  0  0  0
 16 18  2  0  0  0  0
 17 18  2  0  0  0  0
  1 19  1  0  0  0  0
  2 20  1  0  0  0  0
  3 21  1  0  0  0  0
  4 22  1  0  0  0  0
 10 23  1  0  0  0  0
 10 24  1  0  0  0  0
 10 25  1  0  0  0  0
 11 26  1  0  0  0  0
 11 27  1  0  0  0  0
 11 28  1  0  0  0  0
 12 29  1  0  0  0  0
 12 30  1  0  0  0  0
 12 31  1  0  0  0  0
 13 32  1  0  0  0  0
 13 33  1  0  0  0  0
 13 34  1  0  0  0  0
M  END
> <Catalog ID>
Z2734771970

> <PlateID>
1337959-R-13

> <Well>
B04

> <MW (desalted)>
264.343

> <CLogP>
1.711

> <HBD>
0

> <TPSA>
51.960

> <RotBonds>
1

> <ROCS_ShapeQuery>
x0446_0A_x1080_0A_x0929_0A_x0812_0A_x0719_0A_x1140_0A_x0528_0A_x0310_0A

> <ROCS_TanimotoCombo>
0.293 

> <ROCS_ShapeTanimoto>
0.185 

> <ROCS_ColorTanimoto>
0.109 

> <ROCS_RefTversky>
0.174 

> <ROCS_RefColorTversky>
0.116 

> <ROCS_RefTverskyCombo>
0.290 

> <ROCS_FitTversky>
1.503 

> <ROCS_FitColorTversky>
0.625 

> <ROCS_FitTverskyCombo>
2.128 

> <ROCS_ColorScore>
-4.133

> <ROCS_Overlap>
2054.287

> <ROCS_Rank>
421                 

$$$$
untitled-dbase-352_1
  -OEChem-02082415003D

 29 31  0     0  0  0  0  0  0999 V2000
    6.1143   11.0632   25.1285 C   0  0  0  0  0  0  0  0  0  0  0  0
    5.3855   12.1886   25.4982 C   0  0  0  0  0  0  0  0  0  0  0  0
    7.1532   13.5951   24.6431 C   0  0  0  0  0  0  0  0  0  0  0  0
    7.3644   11.1999   24.5040 C   0  0  0  0  0  0  0  0  0  0  0  0
    7.9204   12.4785   24.2580 C   0  0  0  0  0  0  0  0  0  0  0  0
    5.9040   13.4543   25.2539 C   0  0  0  0  0  0  0  0  0  0  0  0
    8.1502    9.9554   24.1552 C   0  0  0  0  0  0  0  0  0  0  0  0
    9.4355   13.5038   22.3828 C   0  0  0  0  0  0  0  0  0  0  0  0
   10.1250   13.8403   23.6711 C   0  0  0  0  0  0  0  0  0  0  0  0
   10.0732   11.2736   23.5489 C   0  0  0  0  0  0  0  0  0  0  0  0
    9.2924   12.5768   23.5776 C   0  0  0  0  0  0  0  0  0  0  0  0
    5.7856   15.8283   25.3299 C   0  0  0  0  0  0  0  0  0  0  0  0
    9.1871   10.1827   23.1436 N   0  0  0  0  0  0  0  0  0  0  0  0
    5.1946   14.5604   25.6099 O   0  0  0  0  0  0  0  0  0  0  0  0
    5.7074   10.0754   25.3296 H   0  0  0  0  0  0  0  0  0  0  0  0
    4.4175   12.0719   25.9772 H   0  0  0  0  0  0  0  0  0  0  0  0
    7.5243   14.6009   24.4613 H   0  0  0  0  0  0  0  0  0  0  0  0
    8.6018    9.5531   25.0705 H   0  0  0  0  0  0  0  0  0  0  0  0
    7.4644    9.1963   23.7617 H   0  0  0  0  0  0  0  0  0  0  0  0
    8.5940   14.1194   22.0871 H   0  0  0  0  0  0  0  0  0  0  0  0
   10.0517   13.1872   21.5491 H   0  0  0  0  0  0  0  0  0  0  0  0
   11.2055   13.7458   23.6976 H   0  0  0  0  0  0  0  0  0  0  0  0
    9.7624   14.6891   24.2363 H   0  0  0  0  0  0  0  0  0  0  0  0
   10.9014   11.3336   22.8327 H   0  0  0  0  0  0  0  0  0  0  0  0
   10.5182   11.0742   24.5321 H   0  0  0  0  0  0  0  0  0  0  0  0
    5.1163   16.6249   25.6639 H   0  0  0  0  0  0  0  0  0  0  0  0
    5.9678   15.9173   24.2560 H   0  0  0  0  0  0  0  0  0  0  0  0
    6.7346   15.9042   25.8660 H   0  0  0  0  0  0  0  0  0  0  0  0
    9.7326    9.3284   23.0321 H   0  0  0  0  0  0  0  0  0  0  0  0
  1  2  1  0  0  0  0
  1  4  2  0  0  0  0
  2  6  2  0  0  0  0
  3  5  2  0  0  0  0
  3  6  1  0  0  0  0
  4  5  1  0  0  0  0
  4  7  1  0  0  0  0
  5 11  1  0  0  0  0
  6 14  1  0  0  0  0
  7 13  1  0  0  0  0
  8  9  1  0  0  0  0
  8 11  1  0  0  0  0
  9 11  1  0  0  0  0
 10 11  1  0  0  0  0
 10 13  1  0  0  0  0
 12 14  1  0  0  0  0
  1 15  1  0  0  0  0
  2 16  1  0  0  0  0
  3 17  1  0  0  0  0
  7 18  1  0  0  0  0
  7 19  1  0  0  0  0
  8 20  1  0  0  0  0
  8 21  1  0  0  0  0
  9 22  1  0  0  0  0
  9 23  1  0  0  0  0
 10 24  1  0  0  0  0
 10 25  1  0  0  0  0
 12 26  1  0  0  0  0
 12 27  1  0  0  0  0
 12 28  1  0  0  0  0
 13 29  1  0  0  0  0
M  END
> <Catalog ID>
Z2146654607

> <PlateID>
1337959-R-08

> <Well>
E11

> <MW (desalted)>
189.254

> <CLogP>
1.828

> <HBD>
1

> <TPSA>
21.260

> <RotBonds>
1

> <ROCS_ShapeQuery>
x0446_0A_x1080_0A_x0929_0A_x0812_0A_x0719_0A_x1140_0A_x0528_0A_x0310_0A

> <ROCS_TanimotoCombo>
0.293 

> <ROCS_ShapeTanimoto>
0.193 

> <ROCS_ColorTanimoto>
0.100 

> <ROCS_RefTversky>
0.179 

> <ROCS_RefColorTversky>
0.107 

> <ROCS_RefTverskyCombo>
0.286 

> <ROCS_FitTversky>
1.738 

> <ROCS_FitColorTversky>
0.578 

> <ROCS_FitTverskyCombo>
2.317 

> <ROCS_ColorScore>
-3.825

> <ROCS_Overlap>
2108.198

> <ROCS_Rank>
422                 

$$$$
untitled-dbase-474_15
  -OEChem-02082415003D

 27 27  0     0  0  0  0  0  0999 V2000
    9.1299   12.8041   25.1746 C   0  0  0  0  0  0  0  0  0  0  0  0
    9.3243   13.5307   23.9999 C   0  0  0  0  0  0  0  0  0  0  0  0
    8.8533   11.5511   22.6975 C   0  0  0  0  0  0  0  0  0  0  0  0
    8.6590   10.8245   23.8722 C   0  0  0  0  0  0  0  0  0  0  0  0
    8.7973   11.4510   25.1107 C   0  0  0  0  0  0  0  0  0  0  0  0
    9.1859   12.9043   22.7614 C   0  0  0  0  0  0  0  0  0  0  0  0
   12.9927   15.0924   21.4236 C   0  0  0  0  0  0  0  0  0  0  0  0
    9.4137    8.5705   23.7949 C   0  0  0  0  0  0  0  0  0  0  0  0
   12.0790   14.0646   21.9991 C   0  0  0  0  0  0  0  0  0  0  0  0
   11.1011   13.6063   21.0020 N   0  0  0  0  0  0  0  0  0  0  0  0
    8.6872   13.1717   20.2138 O   0  0  0  0  0  0  0  0  0  0  0  0
    9.1802   15.2177   21.5904 O   0  0  0  0  0  0  0  0  0  0  0  0
    8.3348    9.5041   23.8092 O   0  0  0  0  0  0  0  0  0  0  0  0
    8.6137   10.7574   26.2426 F   0  0  0  0  0  0  0  0  0  0  0  0
    9.4294   13.8139   21.2911 S   0  0  0  0  0  0  0  0  0  0  0  0
    9.2381   13.2910   26.1393 H   0  0  0  0  0  0  0  0  0  0  0  0
    9.5830   14.5844   24.0617 H   0  0  0  0  0  0  0  0  0  0  0  0
    8.7442   11.0585   21.7342 H   0  0  0  0  0  0  0  0  0  0  0  0
   12.4042   15.9562   21.0808 H   0  0  0  0  0  0  0  0  0  0  0  0
   13.7084   15.4185   22.1926 H   0  0  0  0  0  0  0  0  0  0  0  0
   13.5401   14.6609   20.5726 H   0  0  0  0  0  0  0  0  0  0  0  0
    9.0162    7.5540   23.7430 H   0  0  0  0  0  0  0  0  0  0  0  0
   10.0143    8.6926   24.6998 H   0  0  0  0  0  0  0  0  0  0  0  0
   10.0369    8.7609   22.9179 H   0  0  0  0  0  0  0  0  0  0  0  0
   12.6748   13.2047   22.3393 H   0  0  0  0  0  0  0  0  0  0  0  0
   11.5421   14.5001   22.8547 H   0  0  0  0  0  0  0  0  0  0  0  0
   11.4334   13.5649   20.0308 H   0  0  0  0  0  0  0  0  0  0  0  0
  1  2  1  0  0  0  0
  1  5  2  0  0  0  0
  2  6  2  0  0  0  0
  3  4  2  0  0  0  0
  3  6  1  0  0  0  0
  4  5  1  0  0  0  0
  4 13  1  0  0  0  0
  5 14  1  0  0  0  0
  6 15  1  0  0  0  0
  7  9  1  0  0  0  0
  8 13  1  0  0  0  0
  9 10  1  0  0  0  0
 10 15  1  0  0  0  0
 11 15  2  0  0  0  0
 12 15  2  0  0  0  0
  1 16  1  0  0  0  0
  2 17  1  0  0  0  0
  3 18  1  0  0  0  0
  7 19  1  0  0  0  0
  7 20  1  0  0  0  0
  7 21  1  0  0  0  0
  8 22  1  0  0  0  0
  8 23  1  0  0  0  0
  8 24  1  0  0  0  0
  9 25  1  0  0  0  0
  9 26  1  0  0  0  0
 10 27  1  0  0  0  0
M  END
> <Catalog ID>
Z199511268

> <PlateID>
1337959-R-11

> <Well>
D02

> <MW (desalted)>
233.260

> <CLogP>
1.868

> <HBD>
1

> <TPSA>
55.400

> <RotBonds>
3

> <ROCS_ShapeQuery>
x0446_0A_x1080_0A_x0929_0A_x0812_0A_x0719_0A_x1140_0A_x0528_0A_x0310_0A

> <ROCS_TanimotoCombo>
0.293 

> <ROCS_ShapeTanimoto>
0.170 

> <ROCS_ColorTanimoto>
0.123 

> <ROCS_RefTversky>
0.160 

> <ROCS_RefColorTversky>
0.130 

> <ROCS_RefTverskyCombo>
0.290 

> <ROCS_FitTversky>
1.554 

> <ROCS_FitColorTversky>
0.700 

> <ROCS_FitTverskyCombo>
2.254 

> <ROCS_ColorScore>
-4.626

> <ROCS_Overlap>
1887.618

> <ROCS_Rank>
423                 

$$$$
untitled-dbase-202_16
  -OEChem-02082415003D

 34 35  0     0  0  0  0  0  0999 V2000
    5.9554   11.5290   25.5447 C   0  0  0  0  0  0  0  0  0  0  0  0
    5.6434   12.8636   25.2856 C   0  0  0  0  0  0  0  0  0  0  0  0
    7.1508   10.9877   25.0719 C   0  0  0  0  0  0  0  0  0  0  0  0
    6.5268   13.6569   24.5536 C   0  0  0  0  0  0  0  0  0  0  0  0
    8.0343   11.7809   24.3398 C   0  0  0  0  0  0  0  0  0  0  0  0
    7.7223   13.1156   24.0807 C   0  0  0  0  0  0  0  0  0  0  0  0
   11.5435   11.2878   23.7002 C   0  0  0  0  0  0  0  0  0  0  0  0
   10.3820   12.0147   22.9945 C   0  0  0  0  0  0  0  0  0  0  0  0
   10.5468   10.8646   24.7971 C   0  0  0  0  0  0  0  0  0  0  0  0
    9.3785   11.1546   23.8129 C   0  0  0  0  0  0  0  0  0  0  0  0
    9.1572   15.3338   21.5268 C   0  0  0  0  0  0  0  0  0  0  0  0
    7.6337   13.3487   21.2268 C   0  0  0  0  0  0  0  0  0  0  0  0
    8.0770   14.4678   22.1568 C   0  0  0  0  0  0  0  0  0  0  0  0
    9.0988    9.9224   23.0559 N   0  0  0  0  0  0  0  0  0  0  0  0
    8.5754   13.9025   23.3677 O   0  0  0  0  0  0  0  0  0  0  0  0
    5.2669   10.9118   26.1145 H   0  0  0  0  0  0  0  0  0  0  0  0
    4.7123   13.2846   25.6537 H   0  0  0  0  0  0  0  0  0  0  0  0
    7.3867    9.9472   25.2781 H   0  0  0  0  0  0  0  0  0  0  0  0
    6.2773   14.6956   24.3547 H   0  0  0  0  0  0  0  0  0  0  0  0
   11.9586   10.4503   23.1285 H   0  0  0  0  0  0  0  0  0  0  0  0
   12.3663   11.9265   24.0324 H   0  0  0  0  0  0  0  0  0  0  0  0
   10.3424   13.0847   23.2365 H   0  0  0  0  0  0  0  0  0  0  0  0
   10.3566   11.9155   21.9045 H   0  0  0  0  0  0  0  0  0  0  0  0
   10.6544    9.8372   25.1592 H   0  0  0  0  0  0  0  0  0  0  0  0
   10.5656   11.5331   25.6672 H   0  0  0  0  0  0  0  0  0  0  0  0
   10.0348   14.7393   21.2555 H   0  0  0  0  0  0  0  0  0  0  0  0
    8.7745   15.8246   20.6255 H   0  0  0  0  0  0  0  0  0  0  0  0
    9.4714   16.1313   22.2093 H   0  0  0  0  0  0  0  0  0  0  0  0
    8.4750   12.7069   20.9483 H   0  0  0  0  0  0  0  0  0  0  0  0
    7.1929   13.7638   20.3141 H   0  0  0  0  0  0  0  0  0  0  0  0
    6.8609   12.7296   21.6957 H   0  0  0  0  0  0  0  0  0  0  0  0
    7.2146   15.0905   22.4163 H   0  0  0  0  0  0  0  0  0  0  0  0
    9.4375   10.0505   22.1347 H   0  0  0  0  0  0  0  0  0  0  0  0
    9.5681    9.1776   23.5086 H   0  0  0  0  0  0  0  0  0  0  0  0
  1  2  2  0  0  0  0
  1  3  1  0  0  0  0
  2  4  1  0  0  0  0
  3  5  2  0  0  0  0
  4  6  2  0  0  0  0
  5  6  1  0  0  0  0
  5 10  1  0  0  0  0
  6 15  1  0  0  0  0
  7  8  1  0  0  0  0
  7  9  1  0  0  0  0
  8 10  1  0  0  0  0
  9 10  1  0  0  0  0
 10 14  1  0  0  0  0
 11 13  1  0  0  0  0
 12 13  1  0  0  0  0
 13 15  1  0  0  0  0
  1 16  1  0  0  0  0
  2 17  1  0  0  0  0
  3 18  1  0  0  0  0
  4 19  1  0  0  0  0
  7 20  1  0  0  0  0
  7 21  1  0  0  0  0
  8 22  1  0  0  0  0
  8 23  1  0  0  0  0
  9 24  1  0  0  0  0
  9 25  1  0  0  0  0
 11 26  1  0  0  0  0
 11 27  1  0  0  0  0
 11 28  1  0  0  0  0
 12 29  1  0  0  0  0
 12 30  1  0  0  0  0
 12 31  1  0  0  0  0
 13 32  1  0  0  0  0
 14 33  1  0  0  0  0
 14 34  1  0  0  0  0
M  END
> <Catalog ID>
Z2680599751

> <PlateID>
1337959-R-05

> <Well>
A05

> <MW (desalted)>
205.296

> <CLogP>
2.754

> <HBD>
1

> <TPSA>
35.250

> <RotBonds>
3

> <ROCS_ShapeQuery>
x0446_0A_x1080_0A_x0929_0A_x0812_0A_x0719_0A_x1140_0A_x0528_0A_x0310_0A

> <ROCS_TanimotoCombo>
0.293 

> <ROCS_ShapeTanimoto>
0.206 

> <ROCS_ColorTanimoto>
0.087 

> <ROCS_RefTversky>
0.189 

> <ROCS_RefColorTversky>
0.097 

> <ROCS_RefTverskyCombo>
0.285 

> <ROCS_FitTversky>
1.802 

> <ROCS_FitColorTversky>
0.455 

> <ROCS_FitTverskyCombo>
2.257 

> <ROCS_ColorScore>
-3.439

> <ROCS_Overlap>
2227.516

> <ROCS_Rank>
424                 

$$$$
untitled-dbase-214_4
  -OEChem-02082415003D

 24 25  0     0  0  0  0  0  0999 V2000
    9.3347   12.4443   23.1875 C   0  0  0  0  0  0  0  0  0  0  0  0
    8.0605   12.5948   23.6650 C   0  0  0  0  0  0  0  0  0  0  0  0
    8.7245   14.4118   22.8014 C   0  0  0  0  0  0  0  0  0  0  0  0
   10.0900   11.1798   23.3105 C   0  0  0  0  0  0  0  0  0  0  0  0
    7.2380   11.5627   24.3120 C   0  0  0  0  0  0  0  0  0  0  0  0
    8.1771   10.3769   24.6559 C   0  0  0  0  0  0  0  0  0  0  0  0
    9.4959   17.5320   21.0750 C   0  0  0  0  0  0  0  0  0  0  0  0
    8.5816   15.8209   22.4011 C   0  0  0  0  0  0  0  0  0  0  0  0
    9.7653   13.6160   22.6362 N   0  0  0  0  0  0  0  0  0  0  0  0
    9.1470   10.0646   23.5768 N   0  0  0  0  0  0  0  0  0  0  0  0
    7.6371   13.8571   23.4238 O   0  0  0  0  0  0  0  0  0  0  0  0
    9.6116   16.1767   21.4768 O   0  0  0  0  0  0  0  0  0  0  0  0
   10.6480   10.9835   22.3864 H   0  0  0  0  0  0  0  0  0  0  0  0
   10.8093   11.2422   24.1348 H   0  0  0  0  0  0  0  0  0  0  0  0
    6.7993   11.9676   25.2300 H   0  0  0  0  0  0  0  0  0  0  0  0
    6.4281   11.2271   23.6584 H   0  0  0  0  0  0  0  0  0  0  0  0
    8.7280   10.6154   25.5742 H   0  0  0  0  0  0  0  0  0  0  0  0
    7.5820    9.4778   24.8714 H   0  0  0  0  0  0  0  0  0  0  0  0
   10.2954   17.7734   20.3703 H   0  0  0  0  0  0  0  0  0  0  0  0
    9.5614   18.1801   21.9527 H   0  0  0  0  0  0  0  0  0  0  0  0
    8.5284   17.6773   20.5887 H   0  0  0  0  0  0  0  0  0  0  0  0
    7.6086   16.0235   21.9159 H   0  0  0  0  0  0  0  0  0  0  0  0
    8.6488   16.5080   23.2649 H   0  0  0  0  0  0  0  0  0  0  0  0
    8.6385    9.8541   22.7209 H   0  0  0  0  0  0  0  0  0  0  0  0
  1  2  2  0  0  0  0
  1  4  1  0  0  0  0
  1  9  1  0  0  0  0
  2  5  1  0  0  0  0
  2 11  1  0  0  0  0
  3  8  1  0  0  0  0
  3  9  2  0  0  0  0
  3 11  1  0  0  0  0
  4 10  1  0  0  0  0
  5  6  1  0  0  0  0
  6 10  1  0  0  0  0
  7 12  1  0  0  0  0
  8 12  1  0  0  0  0
  4 13  1  0  0  0  0
  4 14  1  0  0  0  0
  5 15  1  0  0  0  0
  5 16  1  0  0  0  0
  6 17  1  0  0  0  0
  6 18  1  0  0  0  0
  7 19  1  0  0  0  0
  7 20  1  0  0  0  0
  7 21  1  0  0  0  0
  8 22  1  0  0  0  0
  8 23  1  0  0  0  0
 10 24  1  0  0  0  0
M  END
> <Catalog ID>
Z4500867606

> <PlateID>
1337959-R-05

> <Well>
C06

> <MW (desalted)>
168.193

> <CLogP>
-1.158

> <HBD>
1

> <TPSA>
47.290

> <RotBonds>
2

> <ROCS_ShapeQuery>
x0446_0A_x1080_0A_x0929_0A_x0812_0A_x0719_0A_x1140_0A_x0528_0A_x0310_0A

> <ROCS_TanimotoCombo>
0.293 

> <ROCS_ShapeTanimoto>
0.174 

> <ROCS_ColorTanimoto>
0.119 

> <ROCS_RefTversky>
0.162 

> <ROCS_RefColorTversky>
0.129 

> <ROCS_RefTverskyCombo>
0.291 

> <ROCS_FitTversky>
1.697 

> <ROCS_FitColorTversky>
0.605 

> <ROCS_FitTverskyCombo>
2.301 

> <ROCS_ColorScore>
-4.583

> <ROCS_Overlap>
1914.422

> <ROCS_Rank>
425                 

$$$$
untitled-dbase-601_42
  -OEChem-02082415003D

 35 36  0     1  0  0  0  0  0999 V2000
    9.0044   13.8427   23.3262 C   0  0  0  0  0  0  0  0  0  0  0  0
    9.0285   18.2012   22.0671 C   0  0  0  0  0  0  0  0  0  0  0  0
    9.9213   17.0321   21.7573 C   0  0  0  0  0  0  0  0  0  0  0  0
   10.0095   10.4021   22.4841 C   0  0  0  0  0  0  0  0  0  0  0  0
    9.5643    9.7554   23.7874 C   0  0  0  0  0  0  0  0  0  0  0  0
    8.7844   12.3805   23.0928 C   0  0  2  0  0  0  0  0  0  0  0  0
    8.4551   16.8124   22.0082 C   0  0  0  0  0  0  0  0  0  0  0  0
    8.3271   11.6787   24.3795 C   0  0  1  0  0  0  0  0  0  0  0  0
    6.9215   12.1073   24.7910 C   0  0  0  0  0  0  0  0  0  0  0  0
    6.6383   14.1867   22.5985 C   0  0  0  0  0  0  0  0  0  0  0  0
    8.0008   16.1337   23.2555 C   0  0  0  0  0  0  0  0  0  0  0  0
   10.0760   11.8547   22.6422 N   0  0  0  0  0  0  0  0  0  0  0  0
    7.9233   14.6869   23.0699 N   0  0  0  0  0  0  0  0  0  0  0  0
   10.1059   14.2294   23.7256 O   0  0  0  0  0  0  0  0  0  0  0  0
    8.2864   10.2598   24.1729 O   0  0  0  0  0  0  0  0  0  0  0  0
    9.1387   18.6765   23.0339 H   0  0  0  0  0  0  0  0  0  0  0  0
    8.7882   18.8801   21.2581 H   0  0  0  0  0  0  0  0  0  0  0  0
   10.2795   16.9267   20.7405 H   0  0  0  0  0  0  0  0  0  0  0  0
   10.6296   16.7244   22.5166 H   0  0  0  0  0  0  0  0  0  0  0  0
   10.9924   10.0209   22.1892 H   0  0  0  0  0  0  0  0  0  0  0  0
    9.3066   10.1594   21.6780 H   0  0  0  0  0  0  0  0  0  0  0  0
    9.4675    8.6734   23.6523 H   0  0  0  0  0  0  0  0  0  0  0  0
   10.2861    9.9250   24.5958 H   0  0  0  0  0  0  0  0  0  0  0  0
    8.0493   12.2666   22.2953 H   0  0  0  0  0  0  0  0  0  0  0  0
    7.8314   16.5620   21.1586 H   0  0  0  0  0  0  0  0  0  0  0  0
    9.0098   11.8930   25.2126 H   0  0  0  0  0  0  0  0  0  0  0  0
    6.2208   11.9060   23.9817 H   0  0  0  0  0  0  0  0  0  0  0  0
    6.9096   13.1733   25.0144 H   0  0  0  0  0  0  0  0  0  0  0  0
    6.6099   11.5549   25.6767 H   0  0  0  0  0  0  0  0  0  0  0  0
    5.9970   13.9518   23.4608 H   0  0  0  0  0  0  0  0  0  0  0  0
    6.1517   14.9536   21.9779 H   0  0  0  0  0  0  0  0  0  0  0  0
    6.7961   13.2770   22.0006 H   0  0  0  0  0  0  0  0  0  0  0  0
    8.7131   16.3544   24.0641 H   0  0  0  0  0  0  0  0  0  0  0  0
    7.0058   16.5144   23.5293 H   0  0  0  0  0  0  0  0  0  0  0  0
   10.7881   12.0695   23.3417 H   0  0  0  0  0  0  0  0  0  0  0  0
  1  6  1  6  0  0  0
  1 13  1  0  0  0  0
  1 14  2  0  0  0  0
  2  3  1  0  0  0  0
  2  7  1  0  0  0  0
  3  7  1  0  0  0  0
  4  5  1  0  0  0  0
  4 12  1  0  0  0  0
  5 15  1  0  0  0  0
  6  8  1  0  0  0  0
  6 12  1  0  0  0  0
  7 11  1  0  0  0  0
  8  9  1  1  0  0  0
  8 15  1  0  0  0  0
 10 13  1  0  0  0  0
 11 13  1  0  0  0  0
  2 16  1  0  0  0  0
  2 17  1  0  0  0  0
  3 18  1  0  0  0  0
  3 19  1  0  0  0  0
  4 20  1  0  0  0  0
  4 21  1  0  0  0  0
  5 22  1  0  0  0  0
  5 23  1  0  0  0  0
  6 24  1  0  0  0  0
  7 25  1  0  0  0  0
  8 26  1  0  0  0  0
  9 27  1  0  0  0  0
  9 28  1  0  0  0  0
  9 29  1  0  0  0  0
 10 30  1  0  0  0  0
 10 31  1  0  0  0  0
 10 32  1  0  0  0  0
 11 33  1  0  0  0  0
 11 34  1  0  0  0  0
 12 35  1  0  0  0  0
M  END
> <Catalog ID>
Z2053260577

> <PlateID>
1337959-R-14

> <Well>
A07

> <MW (desalted)>
212.289

> <CLogP>
0.850

> <HBD>
1

> <TPSA>
41.570

> <RotBonds>
3

> <ROCS_ShapeQuery>
x0446_0A_x1080_0A_x0929_0A_x0812_0A_x0719_0A_x1140_0A_x0528_0A_x0310_0A

> <ROCS_TanimotoCombo>
0.293 

> <ROCS_ShapeTanimoto>
0.188 

> <ROCS_ColorTanimoto>
0.105 

> <ROCS_RefTversky>
0.175 

> <ROCS_RefColorTversky>
0.112 

> <ROCS_RefTverskyCombo>
0.287 

> <ROCS_FitTversky>
1.678 

> <ROCS_FitColorTversky>
0.605 

> <ROCS_FitTverskyCombo>
2.283 

> <ROCS_ColorScore>
-3.996

> <ROCS_Overlap>
2060.759

> <ROCS_Rank>
426                 

$$$$
untitled-dbase-322_0
  -OEChem-02082415003D

 28 30  0     1  0  0  0  0  0999 V2000
    5.5721   12.1608   24.7649 C   0  0  0  0  0  0  0  0  0  0  0  0
    6.0113   13.3974   24.3155 C   0  0  0  0  0  0  0  0  0  0  0  0
    6.4341   11.0715   24.7213 C   0  0  0  0  0  0  0  0  0  0  0  0
    7.3092   13.5408   23.8162 C   0  0  0  0  0  0  0  0  0  0  0  0
    7.7457   11.2123   24.2319 C   0  0  0  0  0  0  0  0  0  0  0  0
    8.2138   12.4592   23.7459 C   0  0  0  0  0  0  0  0  0  0  0  0
    8.6201    9.9809   24.1894 C   0  0  0  0  0  0  0  0  0  0  0  0
   10.1054   10.3137   24.1133 C   0  0  0  0  0  0  0  0  0  0  0  0
   10.3734   11.2784   22.9659 C   0  0  0  0  0  0  0  0  0  0  0  0
   10.4949   13.7624   23.6955 C   0  0  0  0  0  0  0  0  0  0  0  0
   10.0092   13.7665   22.2727 C   0  0  2  0  0  0  0  0  0  0  0  0
    9.6523   12.6006   23.1947 C   0  0  2  0  0  0  0  0  0  0  0  0
   10.9653   13.6290   21.1653 N   0  0  0  0  0  0  0  0  0  0  0  0
    4.5633   12.0443   25.1487 H   0  0  0  0  0  0  0  0  0  0  0  0
    5.3475   14.2564   24.3502 H   0  0  0  0  0  0  0  0  0  0  0  0
    6.0820   10.1046   25.0729 H   0  0  0  0  0  0  0  0  0  0  0  0
    7.6071   14.5320   23.4838 H   0  0  0  0  0  0  0  0  0  0  0  0
    8.4463    9.3695   25.0833 H   0  0  0  0  0  0  0  0  0  0  0  0
    8.3296    9.3827   23.3168 H   0  0  0  0  0  0  0  0  0  0  0  0
   10.4372   10.7604   25.0593 H   0  0  0  0  0  0  0  0  0  0  0  0
   10.6803    9.3920   23.9690 H   0  0  0  0  0  0  0  0  0  0  0  0
   11.4563   11.4278   22.8779 H   0  0  0  0  0  0  0  0  0  0  0  0
   10.0331   10.8393   22.0195 H   0  0  0  0  0  0  0  0  0  0  0  0
   11.5498   13.5938   23.8831 H   0  0  0  0  0  0  0  0  0  0  0  0
   10.0537   14.4789   24.3794 H   0  0  0  0  0  0  0  0  0  0  0  0
    9.2271   14.4909   22.0379 H   0  0  0  0  0  0  0  0  0  0  0  0
   11.8604   13.8778   21.5068 H   0  0  0  0  0  0  0  0  0  0  0  0
   10.9466   12.6855   20.8667 H   0  0  0  0  0  0  0  0  0  0  0  0
  1  2  2  0  0  0  0
  1  3  1  0  0  0  0
  2  4  1  0  0  0  0
  3  5  2  0  0  0  0
  4  6  2  0  0  0  0
  5  6  1  0  0  0  0
  5  7  1  0  0  0  0
  6 12  1  0  0  0  0
  7  8  1  0  0  0  0
  8  9  1  0  0  0  0
  9 12  1  0  0  0  0
 10 11  1  0  0  0  0
 10 12  1  1  0  0  0
 11 12  1  0  0  0  0
 11 13  1  6  0  0  0
  1 14  1  0  0  0  0
  2 15  1  0  0  0  0
  3 16  1  0  0  0  0
  4 17  1  0  0  0  0
  7 18  1  0  0  0  0
  7 19  1  0  0  0  0
  8 20  1  0  0  0  0
  8 21  1  0  0  0  0
  9 22  1  0  0  0  0
  9 23  1  0  0  0  0
 10 24  1  0  0  0  0
 10 25  1  0  0  0  0
 11 26  1  0  0  0  0
 13 27  1  0  0  0  0
 13 28  1  0  0  0  0
M  END
> <Catalog ID>
Z3486763906

> <PlateID>
1337959-R-07

> <Well>
H02

> <MW (desalted)>
173.254

> <CLogP>
2.421

> <HBD>
1

> <TPSA>
26.020

> <RotBonds>
0

> <ROCS_ShapeQuery>
x0446_0A_x1080_0A_x0929_0A_x0812_0A_x0719_0A_x1140_0A_x0528_0A_x0310_0A

> <ROCS_TanimotoCombo>
0.293 

> <ROCS_ShapeTanimoto>
0.198 

> <ROCS_ColorTanimoto>
0.094 

> <ROCS_RefTversky>
0.182 

> <ROCS_RefColorTversky>
0.100 

> <ROCS_RefTverskyCombo>
0.282 

> <ROCS_FitTversky>
1.843 

> <ROCS_FitColorTversky>
0.627 

> <ROCS_FitTverskyCombo>
2.470 

> <ROCS_ColorScore>
-3.551

> <ROCS_Overlap>
2142.475

> <ROCS_Rank>
427                 

$$$$
untitled-dbase-315_0
  -OEChem-02082415003D

 24 28  0     1  0  0  0  0  0999 V2000
    7.7631   10.6583   24.2502 C   0  0  0  0  0  0  0  0  0  0  0  0
    7.9743   11.1362   22.8068 C   0  0  0  0  0  0  0  0  0  0  0  0
    9.2411   10.2513   24.3318 C   0  0  0  0  0  0  0  0  0  0  0  0
    8.1202   12.0592   24.7664 C   0  0  0  0  0  0  0  0  0  0  0  0
    9.4512   10.7270   22.8880 C   0  0  0  0  0  0  0  0  0  0  0  0
    8.3288   12.5372   23.3231 C   0  0  0  0  0  0  0  0  0  0  0  0
    9.5972   11.6511   24.8503 C   0  0  0  0  0  0  0  0  0  0  0  0
    9.8169   12.1357   23.4016 C   0  0  0  0  0  0  0  0  0  0  0  0
   12.3173   12.2626   23.1112 C   0  0  0  0  0  0  0  0  0  0  0  0
   10.9615   12.9588   22.9291 C   0  0  1  0  0  0  0  0  0  0  0  0
   10.8149   13.2710   21.4744 N   0  0  0  0  0  0  0  0  0  0  0  0
    6.9303   10.0590   24.5947 H   0  0  0  0  0  0  0  0  0  0  0  0
    7.3125   10.9254   21.9766 H   0  0  0  0  0  0  0  0  0  0  0  0
    9.6104    9.3203   24.7421 H   0  0  0  0  0  0  0  0  0  0  0  0
    7.5771   12.5999   25.5307 H   0  0  0  0  0  0  0  0  0  0  0  0
    9.9888   10.1797   22.1239 H   0  0  0  0  0  0  0  0  0  0  0  0
    7.9510   13.4658   22.9140 H   0  0  0  0  0  0  0  0  0  0  0  0
   10.2535   11.8571   25.6865 H   0  0  0  0  0  0  0  0  0  0  0  0
   12.3484   11.2886   22.6106 H   0  0  0  0  0  0  0  0  0  0  0  0
   12.5221   12.1035   24.1750 H   0  0  0  0  0  0  0  0  0  0  0  0
   13.1273   12.8722   22.6953 H   0  0  0  0  0  0  0  0  0  0  0  0
   11.0033   13.9309   23.4584 H   0  0  0  0  0  0  0  0  0  0  0  0
   11.5951   12.8759   21.0273 H   0  0  0  0  0  0  0  0  0  0  0  0
    9.9702   12.8594   21.1882 H   0  0  0  0  0  0  0  0  0  0  0  0
  1  2  1  0  0  0  0
  1  3  1  0  0  0  0
  1  4  1  0  0  0  0
  2  5  1  0  0  0  0
  2  6  1  0  0  0  0
  3  5  1  0  0  0  0
  3  7  1  0  0  0  0
  4  6  1  0  0  0  0
  4  7  1  0  0  0  0
  5  8  1  0  0  0  0
  6  8  1  0  0  0  0
  7  8  1  0  0  0  0
  8 10  1  0  0  0  0
  9 10  1  0  0  0  0
 10 11  1  6  0  0  0
  1 12  1  0  0  0  0
  2 13  1  0  0  0  0
  3 14  1  0  0  0  0
  4 15  1  0  0  0  0
  5 16  1  0  0  0  0
  6 17  1  0  0  0  0
  7 18  1  0  0  0  0
  9 19  1  0  0  0  0
  9 20  1  0  0  0  0
  9 21  1  0  0  0  0
 10 22  1  0  0  0  0
 11 23  1  0  0  0  0
 11 24  1  0  0  0  0
M  END
> <Catalog ID>
Z4368631540

> <PlateID>
1337959-R-07

> <Well>
F03

> <MW (desalted)>
147.217

> <CLogP>
1.237

> <HBD>
1

> <TPSA>
26.020

> <RotBonds>
1

> <ROCS_ShapeQuery>
x0446_0A_x1080_0A_x0929_0A_x0812_0A_x0719_0A_x1140_0A_x0528_0A_x0310_0A

> <ROCS_TanimotoCombo>
0.292 

> <ROCS_ShapeTanimoto>
0.188 

> <ROCS_ColorTanimoto>
0.104 

> <ROCS_RefTversky>
0.174 

> <ROCS_RefColorTversky>
0.667 

> <ROCS_RefTverskyCombo>
0.841 

> <ROCS_FitTversky>
1.805 

> <ROCS_FitColorTversky>
0.110 

> <ROCS_FitTverskyCombo>
1.915 

> <ROCS_ColorScore>
-34.528

> <ROCS_Overlap>
2046.548

> <ROCS_Rank>
428                 

$$$$
untitled-dbase-70_1
  -OEChem-02082415003D

 26 27  0     0  0  0  0  0  0999 V2000
    7.6013   12.5819   25.5452 C   0  0  0  0  0  0  0  0  0  0  0  0
    7.3179   12.5342   23.0644 C   0  0  0  0  0  0  0  0  0  0  0  0
   10.2808   10.3916   23.1523 C   0  0  0  0  0  0  0  0  0  0  0  0
    8.1891   10.4694   24.3082 C   0  0  0  0  0  0  0  0  0  0  0  0
    7.4438   14.0990   25.4687 C   0  0  0  0  0  0  0  0  0  0  0  0
    7.1898   14.0540   23.1151 C   0  0  0  0  0  0  0  0  0  0  0  0
   10.2850   11.9117   23.0765 C   0  0  0  0  0  0  0  0  0  0  0  0
    8.1783   12.0083   24.2348 C   0  0  0  0  0  0  0  0  0  0  0  0
    8.9082    9.8871   23.1730 N   0  0  0  0  0  0  0  0  0  0  0  0
    6.6284   14.4694   24.3589 O   0  0  0  0  0  0  0  0  0  0  0  0
    9.5345   12.4852   24.1465 O   0  0  0  0  0  0  0  0  0  0  0  0
    8.2519   12.3375   26.3932 H   0  0  0  0  0  0  0  0  0  0  0  0
    6.6169   12.1347   25.7330 H   0  0  0  0  0  0  0  0  0  0  0  0
    6.3140   12.0963   23.1390 H   0  0  0  0  0  0  0  0  0  0  0  0
    7.7226   12.2527   22.0880 H   0  0  0  0  0  0  0  0  0  0  0  0
   10.8144    9.9703   22.2940 H   0  0  0  0  0  0  0  0  0  0  0  0
   10.8031   10.0558   24.0561 H   0  0  0  0  0  0  0  0  0  0  0  0
    8.6704   10.1333   25.2357 H   0  0  0  0  0  0  0  0  0  0  0  0
    7.1663   10.0757   24.3240 H   0  0  0  0  0  0  0  0  0  0  0  0
    6.9546   14.4651   26.3769 H   0  0  0  0  0  0  0  0  0  0  0  0
    8.4141   14.6035   25.3938 H   0  0  0  0  0  0  0  0  0  0  0  0
    8.1570   14.5476   22.9651 H   0  0  0  0  0  0  0  0  0  0  0  0
    6.5194   14.3949   22.3197 H   0  0  0  0  0  0  0  0  0  0  0  0
   11.3125   12.2796   23.1660 H   0  0  0  0  0  0  0  0  0  0  0  0
    9.9044   12.2721   22.1151 H   0  0  0  0  0  0  0  0  0  0  0  0
    8.4404   10.1430   22.3043 H   0  0  0  0  0  0  0  0  0  0  0  0
  1  5  1  0  0  0  0
  1  8  1  0  0  0  0
  2  6  1  0  0  0  0
  2  8  1  0  0  0  0
  3  7  1  0  0  0  0
  3  9  1  0  0  0  0
  4  8  1  0  0  0  0
  4  9  1  0  0  0  0
  5 10  1  0  0  0  0
  6 10  1  0  0  0  0
  7 11  1  0  0  0  0
  8 11  1  0  0  0  0
  1 12  1  0  0  0  0
  1 13  1  0  0  0  0
  2 14  1  0  0  0  0
  2 15  1  0  0  0  0
  3 16  1  0  0  0  0
  3 17  1  0  0  0  0
  4 18  1  0  0  0  0
  4 19  1  0  0  0  0
  5 20  1  0  0  0  0
  5 21  1  0  0  0  0
  6 22  1  0  0  0  0
  6 23  1  0  0  0  0
  7 24  1  0  0  0  0
  7 25  1  0  0  0  0
  9 26  1  0  0  0  0
M  END
> <Catalog ID>
Z1258762864

> <PlateID>
1337959-R-02

> <Well>
C04

> <MW (desalted)>
157.210

> <CLogP>
-0.816

> <HBD>
1

> <TPSA>
30.490

> <RotBonds>
0

> <ROCS_ShapeQuery>
x0446_0A_x1080_0A_x0929_0A_x0812_0A_x0719_0A_x1140_0A_x0528_0A_x0310_0A

> <ROCS_TanimotoCombo>
0.292 

> <ROCS_ShapeTanimoto>
0.178 

> <ROCS_ColorTanimoto>
0.115 

> <ROCS_RefTversky>
0.165 

> <ROCS_RefColorTversky>
0.125 

> <ROCS_RefTverskyCombo>
0.289 

> <ROCS_FitTversky>
1.812 

> <ROCS_FitColorTversky>
0.588 

> <ROCS_FitTverskyCombo>
2.399 

> <ROCS_ColorScore>
-4.442

> <ROCS_Overlap>
1941.021

> <ROCS_Rank>
429                 

$$$$
untitled-dbase-662_11
  -OEChem-02082415003D

 38 39  0     0  0  0  0  0  0999 V2000
    9.5924   12.2301   22.4370 C   0  0  0  0  0  0  0  0  0  0  0  0
   12.2260   16.3988   22.1520 C   0  0  0  0  0  0  0  0  0  0  0  0
   11.1001   15.8662   21.2696 C   0  0  0  0  0  0  0  0  0  0  0  0
   12.5226   15.4650   23.3224 C   0  0  0  0  0  0  0  0  0  0  0  0
   11.3811   14.4384   20.7995 C   0  0  0  0  0  0  0  0  0  0  0  0
   12.8006   14.0382   22.8474 C   0  0  0  0  0  0  0  0  0  0  0  0
    7.1952   10.2611   24.2807 C   0  0  0  0  0  0  0  0  0  0  0  0
    7.8562   12.2400   25.6821 C   0  0  0  0  0  0  0  0  0  0  0  0
    7.4776   11.0864   23.0271 C   0  0  0  0  0  0  0  0  0  0  0  0
    8.1502   13.0298   24.4031 C   0  0  0  0  0  0  0  0  0  0  0  0
   11.6824   13.4783   21.9581 C   0  0  0  0  0  0  0  0  0  0  0  0
    6.8071   11.1512   25.4617 C   0  0  0  0  0  0  0  0  0  0  0  0
    8.4739   12.1313   23.2835 N   0  0  0  0  0  0  0  0  0  0  0  0
   10.4885   13.2481   22.7405 N   0  0  0  0  0  0  0  0  0  0  0  0
    9.7760   11.4711   21.4793 O   0  0  0  0  0  0  0  0  0  0  0  0
    5.5468   11.7689   25.2143 O   0  0  0  0  0  0  0  0  0  0  0  0
   13.1328   16.5349   21.5502 H   0  0  0  0  0  0  0  0  0  0  0  0
   11.9491   17.3889   22.5375 H   0  0  0  0  0  0  0  0  0  0  0  0
   10.1548   15.8920   21.8224 H   0  0  0  0  0  0  0  0  0  0  0  0
   10.9797   16.5194   20.3971 H   0  0  0  0  0  0  0  0  0  0  0  0
   13.3912   15.8393   23.8775 H   0  0  0  0  0  0  0  0  0  0  0  0
   11.6752   15.4630   24.0166 H   0  0  0  0  0  0  0  0  0  0  0  0
   10.5110   14.0725   20.2273 H   0  0  0  0  0  0  0  0  0  0  0  0
   12.2292   14.4543   20.0948 H   0  0  0  0  0  0  0  0  0  0  0  0
   13.7583   14.0234   22.3006 H   0  0  0  0  0  0  0  0  0  0  0  0
   12.9381   13.3881   23.7289 H   0  0  0  0  0  0  0  0  0  0  0  0
    6.3970    9.5323   24.0793 H   0  0  0  0  0  0  0  0  0  0  0  0
    8.0788    9.6644   24.5438 H   0  0  0  0  0  0  0  0  0  0  0  0
    8.7831   11.7888   26.0609 H   0  0  0  0  0  0  0  0  0  0  0  0
    7.5204   12.9263   26.4729 H   0  0  0  0  0  0  0  0  0  0  0  0
    7.8795   10.4453   22.2339 H   0  0  0  0  0  0  0  0  0  0  0  0
    6.5433   11.5153   22.6530 H   0  0  0  0  0  0  0  0  0  0  0  0
    7.2847   13.6581   24.1932 H   0  0  0  0  0  0  0  0  0  0  0  0
    9.0138   13.6876   24.5504 H   0  0  0  0  0  0  0  0  0  0  0  0
   11.9772   12.5089   21.5642 H   0  0  0  0  0  0  0  0  0  0  0  0
    6.7080   10.5421   26.3714 H   0  0  0  0  0  0  0  0  0  0  0  0
   10.2919   13.8439   23.5374 H   0  0  0  0  0  0  0  0  0  0  0  0
    4.9022   11.0521   25.1013 H   0  0  0  0  0  0  0  0  0  0  0  0
  1 13  1  0  0  0  0
  1 14  1  0  0  0  0
  1 15  2  0  0  0  0
  2  3  1  0  0  0  0
  2  4  1  0  0  0  0
  3  5  1  0  0  0  0
  4  6  1  0  0  0  0
  5 11  1  0  0  0  0
  6 11  1  0  0  0  0
  7  9  1  0  0  0  0
  7 12  1  0  0  0  0
  8 10  1  0  0  0  0
  8 12  1  0  0  0  0
  9 13  1  0  0  0  0
 10 13  1  0  0  0  0
 11 14  1  0  0  0  0
 12 16  1  0  0  0  0
  2 17  1  0  0  0  0
  2 18  1  0  0  0  0
  3 19  1  0  0  0  0
  3 20  1  0  0  0  0
  4 21  1  0  0  0  0
  4 22  1  0  0  0  0
  5 23  1  0  0  0  0
  5 24  1  0  0  0  0
  6 25  1  0  0  0  0
  6 26  1  0  0  0  0
  7 27  1  0  0  0  0
  7 28  1  0  0  0  0
  8 29  1  0  0  0  0
  8 30  1  0  0  0  0
  9 31  1  0  0  0  0
  9 32  1  0  0  0  0
 10 33  1  0  0  0  0
 10 34  1  0  0  0  0
 11 35  1  0  0  0  0
 12 36  1  0  0  0  0
 14 37  1  0  0  0  0
 16 38  1  0  0  0  0
M  END
> <Catalog ID>
Z125403266

> <PlateID>
1337959-R-15

> <Well>
E11

> <MW (desalted)>
226.315

> <CLogP>
0.725

> <HBD>
2

> <TPSA>
52.570

> <RotBonds>
1

> <ROCS_ShapeQuery>
x0446_0A_x1080_0A_x0929_0A_x0812_0A_x0719_0A_x1140_0A_x0528_0A_x0310_0A

> <ROCS_TanimotoCombo>
0.292 

> <ROCS_ShapeTanimoto>
0.184 

> <ROCS_ColorTanimoto>
0.108 

> <ROCS_RefTversky>
0.172 

> <ROCS_RefColorTversky>
0.118 

> <ROCS_RefTverskyCombo>
0.291 

> <ROCS_FitTversky>
1.607 

> <ROCS_FitColorTversky>
0.558 

> <ROCS_FitTverskyCombo>
2.165 

> <ROCS_ColorScore>
-4.220

> <ROCS_Overlap>
2030.497

> <ROCS_Rank>
430                 

$$$$
untitled-dbase-511_1
  -OEChem-02082415003D

 28 28  0     0  0  0  0  0  0999 V2000
    9.0823   10.0912   24.2105 C   0  0  0  0  0  0  0  0  0  0  0  0
   10.1423   10.8714   23.7487 C   0  0  0  0  0  0  0  0  0  0  0  0
    7.8247   10.6645   24.3992 C   0  0  0  0  0  0  0  0  0  0  0  0
    8.6872   12.7983   23.6644 C   0  0  0  0  0  0  0  0  0  0  0  0
    9.9447   12.2250   23.4757 C   0  0  0  0  0  0  0  0  0  0  0  0
    7.6272   12.0180   24.1262 C   0  0  0  0  0  0  0  0  0  0  0  0
   11.0494   13.0381   22.9923 C   0  0  0  0  0  0  0  0  0  0  0  0
   12.3382   13.9475   21.0447 C   0  0  0  0  0  0  0  0  0  0  0  0
   10.4224   12.4440   20.6348 C   0  0  0  0  0  0  0  0  0  0  0  0
    5.2332   12.5270   22.7982 C   0  0  0  0  0  0  0  0  0  0  0  0
   11.2637   13.1405   21.6056 N   0  0  0  0  0  0  0  0  0  0  0  0
   11.7395   13.6120   23.8452 O   0  0  0  0  0  0  0  0  0  0  0  0
    5.3405   11.9367   25.3506 O   0  0  0  0  0  0  0  0  0  0  0  0
    6.2131   14.1676   24.5708 O   0  0  0  0  0  0  0  0  0  0  0  0
    6.0529   12.7349   24.3629 S   0  0  0  0  0  0  0  0  0  0  0  0
    9.2362    9.0372   24.4236 H   0  0  0  0  0  0  0  0  0  0  0  0
   11.1175   10.4138   23.6054 H   0  0  0  0  0  0  0  0  0  0  0  0
    7.0058   10.0480   24.7599 H   0  0  0  0  0  0  0  0  0  0  0  0
    8.5327   13.8539   23.4518 H   0  0  0  0  0  0  0  0  0  0  0  0
   13.2439   13.3319   20.9408 H   0  0  0  0  0  0  0  0  0  0  0  0
   12.0359   14.3245   20.0565 H   0  0  0  0  0  0  0  0  0  0  0  0
   12.5464   14.7961   21.7129 H   0  0  0  0  0  0  0  0  0  0  0  0
    9.5762   13.0880   20.3533 H   0  0  0  0  0  0  0  0  0  0  0  0
   11.0157   12.2061   19.7396 H   0  0  0  0  0  0  0  0  0  0  0  0
   10.0420   11.5130   21.0806 H   0  0  0  0  0  0  0  0  0  0  0  0
    4.2331   12.9566   22.8736 H   0  0  0  0  0  0  0  0  0  0  0  0
    5.8148   13.0440   22.0334 H   0  0  0  0  0  0  0  0  0  0  0  0
    5.1756   11.4598   22.5788 H   0  0  0  0  0  0  0  0  0  0  0  0
  1  2  1  0  0  0  0
  1  3  2  0  0  0  0
  2  5  2  0  0  0  0
  3  6  1  0  0  0  0
  4  5  1  0  0  0  0
  4  6  2  0  0  0  0
  5  7  1  0  0  0  0
  6 15  1  0  0  0  0
  7 11  1  0  0  0  0
  7 12  2  0  0  0  0
  8 11  1  0  0  0  0
  9 11  1  0  0  0  0
 10 15  1  0  0  0  0
 13 15  2  0  0  0  0
 14 15  2  0  0  0  0
  1 16  1  0  0  0  0
  2 17  1  0  0  0  0
  3 18  1  0  0  0  0
  4 19  1  0  0  0  0
  8 20  1  0  0  0  0
  8 21  1  0  0  0  0
  8 22  1  0  0  0  0
  9 23  1  0  0  0  0
  9 24  1  0  0  0  0
  9 25  1  0  0  0  0
 10 26  1  0  0  0  0
 10 27  1  0  0  0  0
 10 28  1  0  0  0  0
M  END
> <Catalog ID>
Z32013792

> <PlateID>
1337959-R-12

> <Well>
B04

> <MW (desalted)>
227.280

> <CLogP>
-0.616

> <HBD>
0

> <TPSA>
54.450

> <RotBonds>
2

> <ROCS_ShapeQuery>
x0446_0A_x1080_0A_x0929_0A_x0812_0A_x0719_0A_x1140_0A_x0528_0A_x0310_0A

> <ROCS_TanimotoCombo>
0.292 

> <ROCS_ShapeTanimoto>
0.191 

> <ROCS_ColorTanimoto>
0.101 

> <ROCS_RefTversky>
0.177 

> <ROCS_RefColorTversky>
0.106 

> <ROCS_RefTverskyCombo>
0.283 

> <ROCS_FitTversky>
1.718 

> <ROCS_FitColorTversky>
0.667 

> <ROCS_FitTverskyCombo>
2.385 

> <ROCS_ColorScore>
-3.777

> <ROCS_Overlap>
2089.964

> <ROCS_Rank>
431                 

$$$$
untitled-dbase-255_1
  -OEChem-02082415003D

 27 28  0     0  0  0  0  0  0999 V2000
    9.9835   11.6171   24.0331 C   0  0  0  0  0  0  0  0  0  0  0  0
    8.4564   10.5275   23.0044 C   0  0  0  0  0  0  0  0  0  0  0  0
    7.9506   11.7508   24.6858 C   0  0  0  0  0  0  0  0  0  0  0  0
    8.6498   12.0906   23.2873 C   0  0  0  0  0  0  0  0  0  0  0  0
    8.9254   10.6034   24.4521 C   0  0  0  0  0  0  0  0  0  0  0  0
    9.7443   14.0592   22.1859 C   0  0  0  0  0  0  0  0  0  0  0  0
    7.3615   14.2149   22.9503 C   0  0  0  0  0  0  0  0  0  0  0  0
    7.9548   12.7825   20.9799 C   0  0  0  0  0  0  0  0  0  0  0  0
    8.4359   13.2419   22.3860 C   0  0  0  0  0  0  0  0  0  0  0  0
    9.1298    9.5083   25.3109 N   0  0  0  0  0  0  0  0  0  0  0  0
   10.8031   11.2637   23.3989 H   0  0  0  0  0  0  0  0  0  0  0  0
   10.3805   12.2858   24.8039 H   0  0  0  0  0  0  0  0  0  0  0  0
    7.4334   10.1848   22.8185 H   0  0  0  0  0  0  0  0  0  0  0  0
    9.1329   10.0724   22.2738 H   0  0  0  0  0  0  0  0  0  0  0  0
    8.1568   12.4320   25.5177 H   0  0  0  0  0  0  0  0  0  0  0  0
    6.8802   11.5224   24.6575 H   0  0  0  0  0  0  0  0  0  0  0  0
    9.6172   14.9210   21.5211 H   0  0  0  0  0  0  0  0  0  0  0  0
   10.5268   13.4216   21.7591 H   0  0  0  0  0  0  0  0  0  0  0  0
   10.1077   14.4326   23.1498 H   0  0  0  0  0  0  0  0  0  0  0  0
    7.2200   15.0594   22.2664 H   0  0  0  0  0  0  0  0  0  0  0  0
    6.3992   13.6999   23.0475 H   0  0  0  0  0  0  0  0  0  0  0  0
    7.6223   14.6223   23.9335 H   0  0  0  0  0  0  0  0  0  0  0  0
    7.8031   13.6516   20.3298 H   0  0  0  0  0  0  0  0  0  0  0  0
    7.0153   12.2194   21.0082 H   0  0  0  0  0  0  0  0  0  0  0  0
    8.7123   12.1441   20.5112 H   0  0  0  0  0  0  0  0  0  0  0  0
    8.5364    9.5692   26.1267 H   0  0  0  0  0  0  0  0  0  0  0  0
    8.9237    8.6362   24.8437 H   0  0  0  0  0  0  0  0  0  0  0  0
  1  4  1  0  0  0  0
  1  5  1  0  0  0  0
  2  4  1  0  0  0  0
  2  5  1  0  0  0  0
  3  4  1  0  0  0  0
  3  5  1  0  0  0  0
  4  9  1  0  0  0  0
  5 10  1  0  0  0  0
  6  9  1  0  0  0  0
  7  9  1  0  0  0  0
  8  9  1  0  0  0  0
  1 11  1  0  0  0  0
  1 12  1  0  0  0  0
  2 13  1  0  0  0  0
  2 14  1  0  0  0  0
  3 15  1  0  0  0  0
  3 16  1  0  0  0  0
  6 17  1  0  0  0  0
  6 18  1  0  0  0  0
  6 19  1  0  0  0  0
  7 20  1  0  0  0  0
  7 21  1  0  0  0  0
  7 22  1  0  0  0  0
  8 23  1  0  0  0  0
  8 24  1  0  0  0  0
  8 25  1  0  0  0  0
 10 26  1  0  0  0  0
 10 27  1  0  0  0  0
M  END
> <Catalog ID>
Z2724381027

> <PlateID>
1337959-R-06

> <Well>
A09

> <MW (desalted)>
139.238

> <CLogP>
1.850

> <HBD>
1

> <TPSA>
26.020

> <RotBonds>
1

> <ROCS_ShapeQuery>
x0446_0A_x1080_0A_x0929_0A_x0812_0A_x0719_0A_x1140_0A_x0528_0A_x0310_0A

> <ROCS_TanimotoCombo>
0.292 

> <ROCS_ShapeTanimoto>
0.150 

> <ROCS_ColorTanimoto>
0.142 

> <ROCS_RefTversky>
0.142 

> <ROCS_RefColorTversky>
0.165 

> <ROCS_RefTverskyCombo>
0.307 

> <ROCS_FitTversky>
1.639 

> <ROCS_FitColorTversky>
0.500 

> <ROCS_FitTverskyCombo>
2.139 

> <ROCS_ColorScore>
-5.924

> <ROCS_Overlap>
1674.642

> <ROCS_Rank>
432                 

$$$$
untitled-dbase-113_0
  -OEChem-02082415003D

 22 23  0     1  0  0  0  0  0999 V2000
   10.2318   12.6508   23.7561 C   0  0  0  0  0  0  0  0  0  0  0  0
    7.1620   12.2861   23.4840 C   0  0  0  0  0  0  0  0  0  0  0  0
    7.9618   12.3176   24.7851 C   0  0  0  0  0  0  0  0  0  0  0  0
    7.2801   10.9258   22.8038 C   0  0  0  0  0  0  0  0  0  0  0  0
    9.6153   11.2317   21.7849 C   0  0  0  0  0  0  0  0  0  0  0  0
    9.3731   11.7422   24.6226 C   0  0  1  0  0  0  0  0  0  0  0  0
    8.7272   10.4148   22.7240 C   0  0  1  0  0  0  0  0  0  0  0  0
   10.2063   12.4065   22.3997 N   0  0  0  0  0  0  0  0  0  0  0  0
    9.3355   10.3917   24.0566 N   0  0  0  0  0  0  0  0  0  0  0  0
   10.8433   13.6012   24.2467 O   0  0  0  0  0  0  0  0  0  0  0  0
    6.1093   12.5129   23.6875 H   0  0  0  0  0  0  0  0  0  0  0  0
    7.5210   13.0707   22.8076 H   0  0  0  0  0  0  0  0  0  0  0  0
    8.0087   13.3493   25.1537 H   0  0  0  0  0  0  0  0  0  0  0  0
    7.4244   11.7340   25.5442 H   0  0  0  0  0  0  0  0  0  0  0  0
    6.6801   10.1996   23.3682 H   0  0  0  0  0  0  0  0  0  0  0  0
    6.8409   10.9777   21.8005 H   0  0  0  0  0  0  0  0  0  0  0  0
   10.4611   10.6190   21.4509 H   0  0  0  0  0  0  0  0  0  0  0  0
    9.0731   11.5582   20.8916 H   0  0  0  0  0  0  0  0  0  0  0  0
    9.8502   11.6844   25.6080 H   0  0  0  0  0  0  0  0  0  0  0  0
    8.6887    9.3863   22.3452 H   0  0  0  0  0  0  0  0  0  0  0  0
   10.6306   13.0967   21.7877 H   0  0  0  0  0  0  0  0  0  0  0  0
   10.2848   10.0241   23.9930 H   0  0  0  0  0  0  0  0  0  0  0  0
  1  6  1  0  0  0  0
  1  8  1  0  0  0  0
  1 10  2  0  0  0  0
  2  3  1  0  0  0  0
  2  4  1  0  0  0  0
  3  6  1  0  0  0  0
  4  7  1  0  0  0  0
  5  7  1  0  0  0  0
  5  8  1  0  0  0  0
  6  9  1  0  0  0  0
  7  9  1  0  0  0  0
  2 11  1  0  0  0  0
  2 12  1  0  0  0  0
  3 13  1  0  0  0  0
  3 14  1  0  0  0  0
  4 15  1  0  0  0  0
  4 16  1  0  0  0  0
  5 17  1  0  0  0  0
  5 18  1  0  0  0  0
  6 19  1  0  0  0  0
  7 20  1  0  0  0  0
  8 21  1  0  0  0  0
  9 22  1  0  0  0  0
M  END
> <Catalog ID>
Z3487940635

> <PlateID>
1337959-R-03

> <Well>
B08

> <MW (desalted)>
140.183

> <CLogP>
0.075

> <HBD>
2

> <TPSA>
41.130

> <RotBonds>
0

> <ROCS_ShapeQuery>
x0446_0A_x1080_0A_x0929_0A_x0812_0A_x0719_0A_x1140_0A_x0528_0A_x0310_0A

> <ROCS_TanimotoCombo>
0.292 

> <ROCS_ShapeTanimoto>
0.159 

> <ROCS_ColorTanimoto>
0.133 

> <ROCS_RefTversky>
0.150 

> <ROCS_RefColorTversky>
0.143 

> <ROCS_RefTverskyCombo>
0.292 

> <ROCS_FitTversky>
1.700 

> <ROCS_FitColorTversky>
0.650 

> <ROCS_FitTverskyCombo>
2.350 

> <ROCS_ColorScore>
-5.095

> <ROCS_Overlap>
1762.022

> <ROCS_Rank>
433                 

$$$$
untitled-dbase-258_17
  -OEChem-02082415003D

 20 20  0     1  0  0  0  0  0999 V2000
    9.2320   14.7831   22.8302 C   0  0  0  0  0  0  0  0  0  0  0  0
    9.3479   11.8594   23.1934 C   0  0  0  0  0  0  0  0  0  0  0  0
    9.2981   10.3508   23.1001 C   0  0  0  0  0  0  0  0  0  0  0  0
    7.6528   11.0444   24.5949 C   0  0  0  0  0  0  0  0  0  0  0  0
    7.9456   12.1857   23.6433 C   0  0  1  0  0  0  0  0  0  0  0  0
    7.8429   14.5026   23.3327 C   0  0  0  0  0  0  0  0  0  0  0  0
   10.2647   14.6444   23.4683 O   0  0  0  0  0  0  0  0  0  0  0  0
    8.3769    9.9063   24.1075 O   0  0  0  0  0  0  0  0  0  0  0  0
    9.1865   15.2191   21.5461 O   0  0  0  0  0  0  0  0  0  0  0  0
    7.8784   13.4436   24.2788 O   0  0  0  0  0  0  0  0  0  0  0  0
   10.1308   12.2012   23.8744 H   0  0  0  0  0  0  0  0  0  0  0  0
    9.5272   12.2832   22.1995 H   0  0  0  0  0  0  0  0  0  0  0  0
    8.9667   10.0001   22.1194 H   0  0  0  0  0  0  0  0  0  0  0  0
   10.2732    9.9038   23.3191 H   0  0  0  0  0  0  0  0  0  0  0  0
    7.9622   11.2457   25.6246 H   0  0  0  0  0  0  0  0  0  0  0  0
    6.5900   10.7818   24.5817 H   0  0  0  0  0  0  0  0  0  0  0  0
    7.2255   12.2011   22.7854 H   0  0  0  0  0  0  0  0  0  0  0  0
    7.2105   14.1938   22.4963 H   0  0  0  0  0  0  0  0  0  0  0  0
    7.4285   15.3938   23.8116 H   0  0  0  0  0  0  0  0  0  0  0  0
   10.0816   15.4093   21.1922 H   0  0  0  0  0  0  0  0  0  0  0  0
  1  6  1  0  0  0  0
  1  7  2  0  0  0  0
  1  9  1  0  0  0  0
  2  3  1  0  0  0  0
  2  5  1  0  0  0  0
  3  8  1  0  0  0  0
  4  5  1  0  0  0  0
  4  8  1  0  0  0  0
  5 10  1  1  0  0  0
  6 10  1  0  0  0  0
  2 11  1  0  0  0  0
  2 12  1  0  0  0  0
  3 13  1  0  0  0  0
  3 14  1  0  0  0  0
  4 15  1  0  0  0  0
  4 16  1  0  0  0  0
  5 17  1  0  0  0  0
  6 18  1  0  0  0  0
  6 19  1  0  0  0  0
  9 20  1  0  0  0  0
M  END
> <Catalog ID>
Z1508964879

> <PlateID>
1337959-R-06

> <Well>
C05

> <MW (desalted)>
146.141

> <CLogP>
-0.367

> <HBD>
1

> <TPSA>
55.760

> <RotBonds>
3

> <ROCS_ShapeQuery>
x0446_0A_x1080_0A_x0929_0A_x0812_0A_x0719_0A_x1140_0A_x0528_0A_x0310_0A

> <ROCS_TanimotoCombo>
0.292 

> <ROCS_ShapeTanimoto>
0.156 

> <ROCS_ColorTanimoto>
0.136 

> <ROCS_RefTversky>
0.146 

> <ROCS_RefColorTversky>
0.146 

> <ROCS_RefTverskyCombo>
0.292 

> <ROCS_FitTversky>
1.689 

> <ROCS_FitColorTversky>
0.685 

> <ROCS_FitTverskyCombo>
2.375 

> <ROCS_ColorScore>
-5.188

> <ROCS_Overlap>
1723.092

> <ROCS_Rank>
434                 

$$$$
untitled-dbase-613_3
  -OEChem-02082415003D

 34 35  0     0  0  0  0  0  0999 V2000
    9.3106    9.8808   23.6481 C   0  0  0  0  0  0  0  0  0  0  0  0
    7.9543   10.1985   23.5773 C   0  0  0  0  0  0  0  0  0  0  0  0
   10.2410   10.8649   23.9822 C   0  0  0  0  0  0  0  0  0  0  0  0
    7.5283   11.5004   23.8404 C   0  0  0  0  0  0  0  0  0  0  0  0
    9.8150   12.1668   24.2453 C   0  0  0  0  0  0  0  0  0  0  0  0
    8.4586   12.4846   24.1744 C   0  0  0  0  0  0  0  0  0  0  0  0
    7.5098   16.1710   23.4756 C   0  0  0  0  0  0  0  0  0  0  0  0
    7.0367   14.1081   22.1214 C   0  0  0  0  0  0  0  0  0  0  0  0
    6.0142   16.2529   23.7862 C   0  0  0  0  0  0  0  0  0  0  0  0
    5.5587   14.2672   22.4825 C   0  0  0  0  0  0  0  0  0  0  0  0
    7.9822   14.7324   23.1711 C   0  0  0  0  0  0  0  0  0  0  0  0
    8.0016   13.8839   24.4571 C   0  0  0  0  0  0  0  0  0  0  0  0
    9.4134   14.7745   22.6069 C   0  0  0  0  0  0  0  0  0  0  0  0
    5.2120   15.6685   22.7130 N   0  0  0  0  0  0  0  0  0  0  0  0
    9.3923   15.5340   21.4172 O   0  0  0  0  0  0  0  0  0  0  0  0
    9.6420    8.8667   23.4445 H   0  0  0  0  0  0  0  0  0  0  0  0
    7.2296    9.4321   23.3182 H   0  0  0  0  0  0  0  0  0  0  0  0
   11.2969   10.6176   24.0386 H   0  0  0  0  0  0  0  0  0  0  0  0
    6.4695   11.7389   23.7826 H   0  0  0  0  0  0  0  0  0  0  0  0
   10.5470   12.9271   24.5047 H   0  0  0  0  0  0  0  0  0  0  0  0
    7.7187   16.8149   22.6100 H   0  0  0  0  0  0  0  0  0  0  0  0
    8.0783   16.5897   24.3153 H   0  0  0  0  0  0  0  0  0  0  0  0
    7.2652   13.0434   21.9871 H   0  0  0  0  0  0  0  0  0  0  0  0
    7.2078   14.5849   21.1464 H   0  0  0  0  0  0  0  0  0  0  0  0
    5.7857   15.7655   24.7408 H   0  0  0  0  0  0  0  0  0  0  0  0
    5.7341   17.3064   23.8982 H   0  0  0  0  0  0  0  0  0  0  0  0
    4.9496   13.8884   21.6540 H   0  0  0  0  0  0  0  0  0  0  0  0
    5.3034   13.6619   23.3597 H   0  0  0  0  0  0  0  0  0  0  0  0
    7.0008   13.8801   24.8896 H   0  0  0  0  0  0  0  0  0  0  0  0
    8.6594   14.3625   25.1830 H   0  0  0  0  0  0  0  0  0  0  0  0
    9.7445   13.7630   22.3933 H   0  0  0  0  0  0  0  0  0  0  0  0
   10.0714   15.2428   23.3322 H   0  0  0  0  0  0  0  0  0  0  0  0
    4.2239   15.7359   22.9553 H   0  0  0  0  0  0  0  0  0  0  0  0
   10.3018   15.5536   21.0699 H   0  0  0  0  0  0  0  0  0  0  0  0
  1  2  2  0  0  0  0
  1  3  1  0  0  0  0
  2  4  1  0  0  0  0
  3  5  2  0  0  0  0
  4  6  2  0  0  0  0
  5  6  1  0  0  0  0
  6 12  1  0  0  0  0
  7  9  1  0  0  0  0
  7 11  1  0  0  0  0
  8 10  1  0  0  0  0
  8 11  1  0  0  0  0
  9 14  1  0  0  0  0
 10 14  1  0  0  0  0
 11 12  1  0  0  0  0
 11 13  1  0  0  0  0
 13 15  1  0  0  0  0
  1 16  1  0  0  0  0
  2 17  1  0  0  0  0
  3 18  1  0  0  0  0
  4 19  1  0  0  0  0
  5 20  1  0  0  0  0
  7 21  1  0  0  0  0
  7 22  1  0  0  0  0
  8 23  1  0  0  0  0
  8 24  1  0  0  0  0
  9 25  1  0  0  0  0
  9 26  1  0  0  0  0
 10 27  1  0  0  0  0
 10 28  1  0  0  0  0
 12 29  1  0  0  0  0
 12 30  1  0  0  0  0
 13 31  1  0  0  0  0
 13 32  1  0  0  0  0
 14 33  1  0  0  0  0
 15 34  1  0  0  0  0
M  END
> <Catalog ID>
Z1881598569

> <PlateID>
1337959-R-14

> <Well>
C09

> <MW (desalted)>
205.296

> <CLogP>
1.404

> <HBD>
2

> <TPSA>
32.260

> <RotBonds>
3

> <ROCS_ShapeQuery>
x0446_0A_x1080_0A_x0929_0A_x0812_0A_x0719_0A_x1140_0A_x0528_0A_x0310_0A

> <ROCS_TanimotoCombo>
0.292 

> <ROCS_ShapeTanimoto>
0.180 

> <ROCS_ColorTanimoto>
0.111 

> <ROCS_RefTversky>
0.169 

> <ROCS_RefColorTversky>
0.122 

> <ROCS_RefTverskyCombo>
0.290 

> <ROCS_FitTversky>
1.613 

> <ROCS_FitColorTversky>
0.573 

> <ROCS_FitTverskyCombo>
2.186 

> <ROCS_ColorScore>
-4.332

> <ROCS_Overlap>
1989.020

> <ROCS_Rank>
435                 

$$$$
untitled-dbase-89_3
  -OEChem-02082415003D

 30 31  0     0  0  0  0  0  0999 V2000
    7.5880   16.0112   20.9835 C   0  0  0  0  0  0  0  0  0  0  0  0
    8.7404   15.2770   20.7035 C   0  0  0  0  0  0  0  0  0  0  0  0
    6.8022   15.6816   22.0879 C   0  0  0  0  0  0  0  0  0  0  0  0
    9.1070   14.2131   21.5278 C   0  0  0  0  0  0  0  0  0  0  0  0
    7.1688   14.6178   22.9122 C   0  0  0  0  0  0  0  0  0  0  0  0
    8.3212   13.8835   22.6321 C   0  0  0  0  0  0  0  0  0  0  0  0
    9.4973   11.5862   22.7864 C   0  0  0  0  0  0  0  0  0  0  0  0
    7.4646   12.0478   24.1751 C   0  0  0  0  0  0  0  0  0  0  0  0
    9.6778   10.3090   23.6017 C   0  0  0  0  0  0  0  0  0  0  0  0
    7.7615   10.7411   24.9056 C   0  0  0  0  0  0  0  0  0  0  0  0
    8.7266   12.7047   23.5456 C   0  0  0  0  0  0  0  0  0  0  0  0
    9.6362   13.2839   24.6550 C   0  0  0  0  0  0  0  0  0  0  0  0
    8.4198    9.8155   24.0484 O   0  0  0  0  0  0  0  0  0  0  0  0
   10.7735   13.8592   24.0425 O   0  0  0  0  0  0  0  0  0  0  0  0
    7.3034   16.8404   20.3424 H   0  0  0  0  0  0  0  0  0  0  0  0
    9.3529   15.5341   19.8443 H   0  0  0  0  0  0  0  0  0  0  0  0
    5.9055   16.2538   22.3069 H   0  0  0  0  0  0  0  0  0  0  0  0
   10.0065   13.6464   21.3017 H   0  0  0  0  0  0  0  0  0  0  0  0
    6.5504   14.3681   23.7703 H   0  0  0  0  0  0  0  0  0  0  0  0
   10.4970   11.9671   22.5176 H   0  0  0  0  0  0  0  0  0  0  0  0
    8.9890   11.3451   21.8389 H   0  0  0  0  0  0  0  0  0  0  0  0
    6.7013   11.8647   23.3980 H   0  0  0  0  0  0  0  0  0  0  0  0
    7.0131   12.7563   24.8931 H   0  0  0  0  0  0  0  0  0  0  0  0
   10.1941    9.5301   23.0297 H   0  0  0  0  0  0  0  0  0  0  0  0
   10.2857   10.5193   24.4873 H   0  0  0  0  0  0  0  0  0  0  0  0
    8.4310   10.9397   25.7519 H   0  0  0  0  0  0  0  0  0  0  0  0
    6.8529   10.2812   25.3173 H   0  0  0  0  0  0  0  0  0  0  0  0
    9.9482   12.4864   25.3261 H   0  0  0  0  0  0  0  0  0  0  0  0
    9.0958   14.0479   25.2101 H   0  0  0  0  0  0  0  0  0  0  0  0
   11.3326   14.2174   24.7538 H   0  0  0  0  0  0  0  0  0  0  0  0
  1  2  2  0  0  0  0
  1  3  1  0  0  0  0
  2  4  1  0  0  0  0
  3  5  2  0  0  0  0
  4  6  2  0  0  0  0
  5  6  1  0  0  0  0
  6 11  1  0  0  0  0
  7  9  1  0  0  0  0
  7 11  1  0  0  0  0
  8 10  1  0  0  0  0
  8 11  1  0  0  0  0
  9 13  1  0  0  0  0
 10 13  1  0  0  0  0
 11 12  1  0  0  0  0
 12 14  1  0  0  0  0
  1 15  1  0  0  0  0
  2 16  1  0  0  0  0
  3 17  1  0  0  0  0
  4 18  1  0  0  0  0
  5 19  1  0  0  0  0
  7 20  1  0  0  0  0
  7 21  1  0  0  0  0
  8 22  1  0  0  0  0
  8 23  1  0  0  0  0
  9 24  1  0  0  0  0
  9 25  1  0  0  0  0
 10 26  1  0  0  0  0
 10 27  1  0  0  0  0
 12 28  1  0  0  0  0
 12 29  1  0  0  0  0
 14 30  1  0  0  0  0
M  END
> <Catalog ID>
Z1251413950

> <PlateID>
1337959-R-02

> <Well>
F06

> <MW (desalted)>
192.254

> <CLogP>
1.045

> <HBD>
1

> <TPSA>
29.460

> <RotBonds>
2

> <ROCS_ShapeQuery>
x0446_0A_x1080_0A_x0929_0A_x0812_0A_x0719_0A_x1140_0A_x0528_0A_x0310_0A

> <ROCS_TanimotoCombo>
0.291 

> <ROCS_ShapeTanimoto>
0.190 

> <ROCS_ColorTanimoto>
0.102 

> <ROCS_RefTversky>
0.176 

> <ROCS_RefColorTversky>
0.109 

> <ROCS_RefTverskyCombo>
0.285 

> <ROCS_FitTversky>
1.729 

> <ROCS_FitColorTversky>
0.589 

> <ROCS_FitTverskyCombo>
2.318 

> <ROCS_ColorScore>
-3.890

> <ROCS_Overlap>
2070.592

> <ROCS_Rank>
436                 

$$$$
untitled-dbase-145_0
  -OEChem-02082415003D

 20 20  0     0  0  0  0  0  0999 V2000
    9.2618   10.2622   23.2715 C   0  0  0  0  0  0  0  0  0  0  0  0
    9.4775   11.6510   23.1915 C   0  0  0  0  0  0  0  0  0  0  0  0
    8.5722   12.1904   24.0724 C   0  0  0  0  0  0  0  0  0  0  0  0
    5.4662   10.9808   24.9651 C   0  0  0  0  0  0  0  0  0  0  0  0
    6.8369   11.1852   25.5871 C   0  0  0  0  0  0  0  0  0  0  0  0
    8.2922   13.5893   24.4501 C   0  0  0  0  0  0  0  0  0  0  0  0
    8.2954    9.9393   24.1352 N   0  0  0  0  0  0  0  0  0  0  0  0
    7.8959   11.1330   24.6060 N   0  0  0  0  0  0  0  0  0  0  0  0
   10.3711   12.3037   22.4232 N   0  0  0  0  0  0  0  0  0  0  0  0
    9.0758   14.5139   23.8064 F   0  0  0  0  0  0  0  0  0  0  0  0
    7.0062   13.9942   24.1945 F   0  0  0  0  0  0  0  0  0  0  0  0
    8.4804   13.8370   25.7853 F   0  0  0  0  0  0  0  0  0  0  0  0
    9.7666    9.4690   22.7381 H   0  0  0  0  0  0  0  0  0  0  0  0
    5.2566   11.7453   24.2094 H   0  0  0  0  0  0  0  0  0  0  0  0
    4.6887   11.0378   25.7331 H   0  0  0  0  0  0  0  0  0  0  0  0
    5.3947   10.0023   24.4785 H   0  0  0  0  0  0  0  0  0  0  0  0
    7.0375   10.4159   26.3414 H   0  0  0  0  0  0  0  0  0  0  0  0
    6.8914   12.1568   26.0910 H   0  0  0  0  0  0  0  0  0  0  0  0
   11.0475   11.8072   21.8218 H   0  0  0  0  0  0  0  0  0  0  0  0
   10.4901   13.3282   22.4661 H   0  0  0  0  0  0  0  0  0  0  0  0
  1  2  1  0  0  0  0
  1  7  2  0  0  0  0
  2  3  2  0  0  0  0
  2  9  1  0  0  0  0
  3  6  1  0  0  0  0
  3  8  1  0  0  0  0
  4  5  1  0  0  0  0
  5  8  1  0  0  0  0
  6 10  1  0  0  0  0
  6 11  1  0  0  0  0
  6 12  1  0  0  0  0
  7  8  1  0  0  0  0
  1 13  1  0  0  0  0
  4 14  1  0  0  0  0
  4 15  1  0  0  0  0
  4 16  1  0  0  0  0
  5 17  1  0  0  0  0
  5 18  1  0  0  0  0
  9 19  1  0  0  0  0
  9 20  1  0  0  0  0
M  END
> <Catalog ID>
Z1971703351

> <PlateID>
1337959-R-03

> <Well>
H04

> <MW (desalted)>
179.143

> <CLogP>
1.135

> <HBD>
1

> <TPSA>
43.840

> <RotBonds>
2

> <ROCS_ShapeQuery>
x0446_0A_x1080_0A_x0929_0A_x0812_0A_x0719_0A_x1140_0A_x0528_0A_x0310_0A

> <ROCS_TanimotoCombo>
0.291 

> <ROCS_ShapeTanimoto>
0.188 

> <ROCS_ColorTanimoto>
0.103 

> <ROCS_RefTversky>
0.173 

> <ROCS_RefColorTversky>
0.109 

> <ROCS_RefTverskyCombo>
0.282 

> <ROCS_FitTversky>
1.803 

> <ROCS_FitColorTversky>
0.682 

> <ROCS_FitTverskyCombo>
2.485 

> <ROCS_ColorScore>
-3.859

> <ROCS_Overlap>
2041.931

> <ROCS_Rank>
437                 

$$$$
untitled-dbase-3_8
  -OEChem-02082415003D

 28 29  0     0  0  0  0  0  0999 V2000
   10.9527   15.6889   22.8711 C   0  0  0  0  0  0  0  0  0  0  0  0
   11.3860   16.7541   22.0816 C   0  0  0  0  0  0  0  0  0  0  0  0
    7.9088   11.4589   25.4562 C   0  0  0  0  0  0  0  0  0  0  0  0
    7.0933   11.9125   23.2395 C   0  0  0  0  0  0  0  0  0  0  0  0
   12.5777   15.2115   20.6543 C   0  0  0  0  0  0  0  0  0  0  0  0
    6.6427   11.7676   25.9268 C   0  0  0  0  0  0  0  0  0  0  0  0
    5.8637   12.2007   23.8093 C   0  0  0  0  0  0  0  0  0  0  0  0
   11.3319   14.3850   22.5522 C   0  0  0  0  0  0  0  0  0  0  0  0
    8.1302   11.5351   24.0856 C   0  0  0  0  0  0  0  0  0  0  0  0
   12.1985   16.5154   20.9733 C   0  0  0  0  0  0  0  0  0  0  0  0
   12.1444   14.1463   21.4438 C   0  0  0  0  0  0  0  0  0  0  0  0
   10.8547   13.3041   23.4062 C   0  0  0  0  0  0  0  0  0  0  0  0
    9.4836   11.2120   23.5215 C   0  0  0  0  0  0  0  0  0  0  0  0
    5.6108   12.1379   25.1359 N   0  0  0  0  0  0  0  0  0  0  0  0
   10.0516   12.3307   22.8042 N   0  0  0  0  0  0  0  0  0  0  0  0
   11.1448   13.2833   24.6137 O   0  0  0  0  0  0  0  0  0  0  0  0
   12.6134   17.5384   20.2146 F   0  0  0  0  0  0  0  0  0  0  0  0
   12.6353   12.5472   21.0144 Cl  0  0  0  0  0  0  0  0  0  0  0  0
   10.3202   15.8887   23.7325 H   0  0  0  0  0  0  0  0  0  0  0  0
   11.0933   17.7699   22.3304 H   0  0  0  0  0  0  0  0  0  0  0  0
    8.6969   11.1686   26.1428 H   0  0  0  0  0  0  0  0  0  0  0  0
    7.2349   11.9808   22.1664 H   0  0  0  0  0  0  0  0  0  0  0  0
   13.2105   15.0435   19.7866 H   0  0  0  0  0  0  0  0  0  0  0  0
    6.4189   11.7246   26.9877 H   0  0  0  0  0  0  0  0  0  0  0  0
    5.0227   12.4997   23.1925 H   0  0  0  0  0  0  0  0  0  0  0  0
   10.1793   10.9359   24.3213 H   0  0  0  0  0  0  0  0  0  0  0  0
    9.4291   10.3641   22.8306 H   0  0  0  0  0  0  0  0  0  0  0  0
    9.7943   12.4316   21.8278 H   0  0  0  0  0  0  0  0  0  0  0  0
  1  2  1  0  0  0  0
  1  8  2  0  0  0  0
  2 10  2  0  0  0  0
  3  6  1  0  0  0  0
  3  9  2  0  0  0  0
  4  7  2  0  0  0  0
  4  9  1  0  0  0  0
  5 10  1  0  0  0  0
  5 11  2  0  0  0  0
  6 14  2  0  0  0  0
  7 14  1  0  0  0  0
  8 11  1  0  0  0  0
  8 12  1  0  0  0  0
  9 13  1  0  0  0  0
 10 17  1  0  0  0  0
 11 18  1  0  0  0  0
 12 15  1  0  0  0  0
 12 16  2  0  0  0  0
 13 15  1  0  0  0  0
  1 19  1  0  0  0  0
  2 20  1  0  0  0  0
  3 21  1  0  0  0  0
  4 22  1  0  0  0  0
  5 23  1  0  0  0  0
  6 24  1  0  0  0  0
  7 25  1  0  0  0  0
 13 26  1  0  0  0  0
 13 27  1  0  0  0  0
 15 28  1  0  0  0  0
M  END
> <Catalog ID>
Z30168858

> <PlateID>
1337959-R-01

> <Well>
A07

> <MW (desalted)>
264.683

> <CLogP>
1.630

> <HBD>
1

> <TPSA>
41.990

> <RotBonds>
3

> <ROCS_ShapeQuery>
x0446_0A_x1080_0A_x0929_0A_x0812_0A_x0719_0A_x1140_0A_x0528_0A_x0310_0A

> <ROCS_TanimotoCombo>
0.291 

> <ROCS_ShapeTanimoto>
0.182 

> <ROCS_ColorTanimoto>
0.109 

> <ROCS_RefTversky>
0.172 

> <ROCS_RefColorTversky>
0.116 

> <ROCS_RefTverskyCombo>
0.288 

> <ROCS_FitTversky>
1.475 

> <ROCS_FitColorTversky>
0.626 

> <ROCS_FitTverskyCombo>
2.101 

> <ROCS_ColorScore>
-4.137

> <ROCS_Overlap>
2031.696

> <ROCS_Rank>
438                 

$$$$
untitled-dbase-369_8
  -OEChem-02082415003D

 27 28  0     0  0  0  0  0  0999 V2000
    6.1324   12.2402   24.0771 C   0  0  0  0  0  0  0  0  0  0  0  0
    7.7392   12.6461   25.5222 C   0  0  0  0  0  0  0  0  0  0  0  0
    7.4469   12.7328   24.1830 C   0  0  0  0  0  0  0  0  0  0  0  0
   11.3513   10.7920   23.8413 C   0  0  0  0  0  0  0  0  0  0  0  0
   10.0579   10.0057   23.9304 C   0  0  0  0  0  0  0  0  0  0  0  0
   10.8547   12.2204   23.6835 C   0  0  0  0  0  0  0  0  0  0  0  0
    9.1681   10.6765   22.8926 C   0  0  0  0  0  0  0  0  0  0  0  0
    6.4530   11.8497   27.5200 C   0  0  0  0  0  0  0  0  0  0  0  0
    5.6248   11.8678   25.2551 N   0  0  0  0  0  0  0  0  0  0  0  0
    6.6255   12.1266   26.1140 N   0  0  0  0  0  0  0  0  0  0  0  0
    9.6468   12.0882   22.8233 N   0  0  0  0  0  0  0  0  0  0  0  0
    7.7080   13.3291   21.6632 O   0  0  0  0  0  0  0  0  0  0  0  0
    9.1172   14.5523   23.3559 O   0  0  0  0  0  0  0  0  0  0  0  0
    8.4900   13.3298   22.8865 S   0  0  0  0  0  0  0  0  0  0  0  0
    5.5210   12.1353   23.1920 H   0  0  0  0  0  0  0  0  0  0  0  0
    8.6227   12.9031   26.0907 H   0  0  0  0  0  0  0  0  0  0  0  0
   11.9154   10.6908   24.7727 H   0  0  0  0  0  0  0  0  0  0  0  0
   11.9861   10.4755   23.0138 H   0  0  0  0  0  0  0  0  0  0  0  0
   10.2346    8.9548   23.6583 H   0  0  0  0  0  0  0  0  0  0  0  0
    9.6162   10.0253   24.9342 H   0  0  0  0  0  0  0  0  0  0  0  0
   10.6309   12.6712   24.6500 H   0  0  0  0  0  0  0  0  0  0  0  0
   11.5858   12.8366   23.1573 H   0  0  0  0  0  0  0  0  0  0  0  0
    9.2526   10.1915   21.9122 H   0  0  0  0  0  0  0  0  0  0  0  0
    8.1174   10.6521   23.2158 H   0  0  0  0  0  0  0  0  0  0  0  0
    6.0409   12.7455   27.9921 H   0  0  0  0  0  0  0  0  0  0  0  0
    5.7706   11.0041   27.6435 H   0  0  0  0  0  0  0  0  0  0  0  0
    7.4214   11.5955   27.9598 H   0  0  0  0  0  0  0  0  0  0  0  0
  1  3  1  0  0  0  0
  1  9  2  0  0  0  0
  2  3  2  0  0  0  0
  2 10  1  0  0  0  0
  3 14  1  0  0  0  0
  4  5  1  0  0  0  0
  4  6  1  0  0  0  0
  5  7  1  0  0  0  0
  6 11  1  0  0  0  0
  7 11  1  0  0  0  0
  8 10  1  0  0  0  0
  9 10  1  0  0  0  0
 11 14  1  0  0  0  0
 12 14  2  0  0  0  0
 13 14  2  0  0  0  0
  1 15  1  0  0  0  0
  2 16  1  0  0  0  0
  4 17  1  0  0  0  0
  4 18  1  0  0  0  0
  5 19  1  0  0  0  0
  5 20  1  0  0  0  0
  6 21  1  0  0  0  0
  6 22  1  0  0  0  0
  7 23  1  0  0  0  0
  7 24  1  0  0  0  0
  8 25  1  0  0  0  0
  8 26  1  0  0  0  0
  8 27  1  0  0  0  0
M  END
> <Catalog ID>
Z416372424

> <PlateID>
1337959-R-09

> <Well>
A03

> <MW (desalted)>
215.273

> <CLogP>
0.252

> <HBD>
0

> <TPSA>
55.200

> <RotBonds>
1

> <ROCS_ShapeQuery>
x0446_0A_x1080_0A_x0929_0A_x0812_0A_x0719_0A_x1140_0A_x0528_0A_x0310_0A

> <ROCS_TanimotoCombo>
0.291 

> <ROCS_ShapeTanimoto>
0.175 

> <ROCS_ColorTanimoto>
0.116 

> <ROCS_RefTversky>
0.164 

> <ROCS_RefColorTversky>
0.123 

> <ROCS_RefTverskyCombo>
0.287 

> <ROCS_FitTversky>
1.622 

> <ROCS_FitColorTversky>
0.663 

> <ROCS_FitTverskyCombo>
2.285 

> <ROCS_ColorScore>
-4.386

> <ROCS_Overlap>
1931.220

> <ROCS_Rank>
439                 

$$$$
untitled-dbase-105_1
  -OEChem-02082415003D

 29 29  0     0  0  0  0  0  0999 V2000
    7.8934   10.3437   24.2307 C   0  0  0  0  0  0  0  0  0  0  0  0
   10.0996   11.0230   23.5421 C   0  0  0  0  0  0  0  0  0  0  0  0
    7.3794   11.7740   24.0939 C   0  0  0  0  0  0  0  0  0  0  0  0
    9.6374   12.4692   23.3890 C   0  0  0  0  0  0  0  0  0  0  0  0
    6.6775   15.5547   20.5016 C   0  0  0  0  0  0  0  0  0  0  0  0
    7.4781   17.3278   22.5973 C   0  0  0  0  0  0  0  0  0  0  0  0
    7.2990   14.6188   22.9719 N   0  0  0  0  0  0  0  0  0  0  0  0
    8.9991   10.0872   23.3065 N   0  0  0  0  0  0  0  0  0  0  0  0
    8.5019   12.7297   24.3205 N   0  0  0  0  0  0  0  0  0  0  0  0
    9.1831   15.5975   21.4477 O   0  0  0  0  0  0  0  0  0  0  0  0
    7.0407   14.4645   25.5274 O   0  0  0  0  0  0  0  0  0  0  0  0
    9.2548   15.1770   24.5499 O   0  0  0  0  0  0  0  0  0  0  0  0
    7.8097   15.7470   21.8557 S   0  0  0  0  0  0  0  0  0  0  0  0
    8.0484   14.3729   24.4872 S   0  0  0  0  0  0  0  0  0  0  0  0
    8.2381   10.1735   25.2564 H   0  0  0  0  0  0  0  0  0  0  0  0
    7.0847    9.6264   24.0444 H   0  0  0  0  0  0  0  0  0  0  0  0
   10.9205   10.8075   22.8471 H   0  0  0  0  0  0  0  0  0  0  0  0
   10.4910   10.8672   24.5531 H   0  0  0  0  0  0  0  0  0  0  0  0
    6.9816   11.9156   23.0831 H   0  0  0  0  0  0  0  0  0  0  0  0
    6.5760   11.9708   24.8138 H   0  0  0  0  0  0  0  0  0  0  0  0
   10.4570   13.1658   23.6021 H   0  0  0  0  0  0  0  0  0  0  0  0
    9.3044   12.6307   22.3579 H   0  0  0  0  0  0  0  0  0  0  0  0
    6.8644   14.5882   20.0311 H   0  0  0  0  0  0  0  0  0  0  0  0
    5.6605   15.5987   20.8942 H   0  0  0  0  0  0  0  0  0  0  0  0
    6.8491   16.3653   19.7918 H   0  0  0  0  0  0  0  0  0  0  0  0
    8.1648   17.4664   23.4339 H   0  0  0  0  0  0  0  0  0  0  0  0
    7.6329   18.1011   21.8434 H   0  0  0  0  0  0  0  0  0  0  0  0
    6.4443   17.3345   22.9459 H   0  0  0  0  0  0  0  0  0  0  0  0
    9.3376    9.1359   23.4528 H   0  0  0  0  0  0  0  0  0  0  0  0
  1  3  1  0  0  0  0
  1  8  1  0  0  0  0
  2  4  1  0  0  0  0
  2  8  1  0  0  0  0
  3  9  1  0  0  0  0
  4  9  1  0  0  0  0
  5 13  1  0  0  0  0
  6 13  1  0  0  0  0
  7 13  2  0  0  0  0
  7 14  1  0  0  0  0
  9 14  1  0  0  0  0
 10 13  2  0  0  0  0
 11 14  2  0  0  0  0
 12 14  2  0  0  0  0
  1 15  1  0  0  0  0
  1 16  1  0  0  0  0
  2 17  1  0  0  0  0
  2 18  1  0  0  0  0
  3 19  1  0  0  0  0
  3 20  1  0  0  0  0
  4 21  1  0  0  0  0
  4 22  1  0  0  0  0
  5 23  1  0  0  0  0
  5 24  1  0  0  0  0
  5 25  1  0  0  0  0
  6 26  1  0  0  0  0
  6 27  1  0  0  0  0
  6 28  1  0  0  0  0
  8 29  1  0  0  0  0
M  END
> <Catalog ID>
Z2168484245

> <PlateID>
1337959-R-02

> <Well>
H11

> <MW (desalted)>
241.332

> <CLogP>
-0.372

> <HBD>
1

> <TPSA>
78.840

> <RotBonds>
0

> <ROCS_ShapeQuery>
x0446_0A_x1080_0A_x0929_0A_x0812_0A_x0719_0A_x1140_0A_x0528_0A_x0310_0A

> <ROCS_TanimotoCombo>
0.291 

> <ROCS_ShapeTanimoto>
0.173 

> <ROCS_ColorTanimoto>
0.118 

> <ROCS_RefTversky>
0.161 

> <ROCS_RefColorTversky>
0.125 

> <ROCS_RefTverskyCombo>
0.287 

> <ROCS_FitTversky>
1.676 

> <ROCS_FitColorTversky>
0.674 

> <ROCS_FitTverskyCombo>
2.350 

> <ROCS_ColorScore>
-4.456

> <ROCS_Overlap>
1902.673

> <ROCS_Rank>
440                 

$$$$
untitled-dbase-220_4
  -OEChem-02082415003D

 20 20  0     0  0  0  0  0  0999 V2000
    9.2513   10.7866   23.2056 C   0  0  0  0  0  0  0  0  0  0  0  0
    8.1465   12.1745   24.5050 C   0  0  0  0  0  0  0  0  0  0  0  0
    9.1535   12.1425   23.5715 C   0  0  0  0  0  0  0  0  0  0  0  0
    5.3778   10.1416   24.7569 C   0  0  0  0  0  0  0  0  0  0  0  0
    6.6689   10.4170   25.5085 C   0  0  0  0  0  0  0  0  0  0  0  0
    8.3763   10.0132   23.8539 N   0  0  0  0  0  0  0  0  0  0  0  0
    7.7192   10.8860   24.6366 N   0  0  0  0  0  0  0  0  0  0  0  0
   11.1273   12.6907   21.8660 N   0  0  0  0  0  0  0  0  0  0  0  0
    9.2139   14.3774   22.2393 O   0  0  0  0  0  0  0  0  0  0  0  0
   10.9042   14.0055   24.0702 O   0  0  0  0  0  0  0  0  0  0  0  0
   10.0719   13.4474   22.9916 S   0  0  0  0  0  0  0  0  0  0  0  0
    9.9228   10.3269   22.4944 H   0  0  0  0  0  0  0  0  0  0  0  0
    7.7084   12.9840   25.0729 H   0  0  0  0  0  0  0  0  0  0  0  0
    5.0132   11.0431   24.2532 H   0  0  0  0  0  0  0  0  0  0  0  0
    4.6017    9.7996   25.4486 H   0  0  0  0  0  0  0  0  0  0  0  0
    5.5211    9.3684   23.9949 H   0  0  0  0  0  0  0  0  0  0  0  0
    7.0256    9.5096   26.0089 H   0  0  0  0  0  0  0  0  0  0  0  0
    6.5103   11.1750   26.2839 H   0  0  0  0  0  0  0  0  0  0  0  0
   10.9654   12.8445   20.8633 H   0  0  0  0  0  0  0  0  0  0  0  0
   12.1186   12.5896   22.1158 H   0  0  0  0  0  0  0  0  0  0  0  0
  1  3  1  0  0  0  0
  1  6  2  0  0  0  0
  2  3  2  0  0  0  0
  2  7  1  0  0  0  0
  3 11  1  0  0  0  0
  4  5  1  0  0  0  0
  5  7  1  0  0  0  0
  6  7  1  0  0  0  0
  8 11  1  0  0  0  0
  9 11  2  0  0  0  0
 10 11  2  0  0  0  0
  1 12  1  0  0  0  0
  2 13  1  0  0  0  0
  4 14  1  0  0  0  0
  4 15  1  0  0  0  0
  4 16  1  0  0  0  0
  5 17  1  0  0  0  0
  5 18  1  0  0  0  0
  8 19  1  0  0  0  0
  8 20  1  0  0  0  0
M  END
> <Catalog ID>
Z815438822

> <PlateID>
1337959-R-05

> <Well>
D05

> <MW (desalted)>
175.209

> <CLogP>
-0.546

> <HBD>
1

> <TPSA>
77.980

> <RotBonds>
2

> <ROCS_ShapeQuery>
x0446_0A_x1080_0A_x0929_0A_x0812_0A_x0719_0A_x1140_0A_x0528_0A_x0310_0A

> <ROCS_TanimotoCombo>
0.291 

> <ROCS_ShapeTanimoto>
0.164 

> <ROCS_ColorTanimoto>
0.127 

> <ROCS_RefTversky>
0.153 

> <ROCS_RefColorTversky>
0.133 

> <ROCS_RefTverskyCombo>
0.287 

> <ROCS_FitTversky>
1.715 

> <ROCS_FitColorTversky>
0.718 

> <ROCS_FitTverskyCombo>
2.433 

> <ROCS_ColorScore>
-4.749

> <ROCS_Overlap>
1807.504

> <ROCS_Rank>
441                 

$$$$
untitled-dbase-243_1
  -OEChem-02082415003D

 27 28  0     0  0  0  0  0  0999 V2000
    5.6277   12.2448   25.0635 C   0  0  0  0  0  0  0  0  0  0  0  0
    6.3875   11.4420   23.9937 C   0  0  0  0  0  0  0  0  0  0  0  0
    6.6569   13.3726   24.8763 C   0  0  0  0  0  0  0  0  0  0  0  0
    8.6127   11.8107   25.4043 C   0  0  0  0  0  0  0  0  0  0  0  0
    9.2839   10.4711   25.1111 C   0  0  0  0  0  0  0  0  0  0  0  0
    9.3059   10.2525   22.6970 C   0  0  0  0  0  0  0  0  0  0  0  0
    9.0520   11.5222   21.9039 C   0  0  0  0  0  0  0  0  0  0  0  0
    7.6548   12.3022   24.3041 C   0  0  0  0  0  0  0  0  0  0  0  0
   10.1006   10.4352   23.9035 N   0  0  0  0  0  0  0  0  0  0  0  0
    9.6946   13.6603   23.2311 O   0  0  0  0  0  0  0  0  0  0  0  0
    7.5340   13.6150   21.9582 O   0  0  0  0  0  0  0  0  0  0  0  0
    8.5025   12.9442   22.8094 S   0  0  0  0  0  0  0  0  0  0  0  0
    4.5930   12.5017   24.8180 H   0  0  0  0  0  0  0  0  0  0  0  0
    5.6488   11.7878   26.0604 H   0  0  0  0  0  0  0  0  0  0  0  0
    6.4641   10.3640   24.1851 H   0  0  0  0  0  0  0  0  0  0  0  0
    5.9638   11.5698   22.9869 H   0  0  0  0  0  0  0  0  0  0  0  0
    6.3342   14.1335   24.1574 H   0  0  0  0  0  0  0  0  0  0  0  0
    6.9439   13.8817   25.7987 H   0  0  0  0  0  0  0  0  0  0  0  0
    8.0797   11.7558   26.3611 H   0  0  0  0  0  0  0  0  0  0  0  0
    9.4138   12.5438   25.5664 H   0  0  0  0  0  0  0  0  0  0  0  0
    9.9259   10.2096   25.9442 H   0  0  0  0  0  0  0  0  0  0  0  0
    8.5217    9.7041   25.0473 H   0  0  0  0  0  0  0  0  0  0  0  0
    8.3592    9.6896   22.9002 H   0  0  0  0  0  0  0  0  0  0  0  0
    9.8850    9.5600   22.0426 H   0  0  0  0  0  0  0  0  0  0  0  0
    9.9392   11.8246   21.3116 H   0  0  0  0  0  0  0  0  0  0  0  0
    8.2578   11.3268   21.1565 H   0  0  0  0  0  0  0  0  0  0  0  0
   10.6806   11.2565   23.8398 H   0  0  0  0  0  0  0  0  0  0  0  0
  1  2  1  0  0  0  0
  1  3  1  0  0  0  0
  2  8  1  0  0  0  0
  3  8  1  0  0  0  0
  4  5  1  0  0  0  0
  4  8  1  0  0  0  0
  5  9  1  0  0  0  0
  6  7  1  0  0  0  0
  6  9  1  0  0  0  0
  7 12  1  0  0  0  0
  8 12  1  0  0  0  0
 10 12  2  0  0  0  0
 11 12  2  0  0  0  0
  1 13  1  0  0  0  0
  1 14  1  0  0  0  0
  2 15  1  0  0  0  0
  2 16  1  0  0  0  0
  3 17  1  0  0  0  0
  3 18  1  0  0  0  0
  4 19  1  0  0  0  0
  4 20  1  0  0  0  0
  5 21  1  0  0  0  0
  5 22  1  0  0  0  0
  6 23  1  0  0  0  0
  6 24  1  0  0  0  0
  7 25  1  0  0  0  0
  7 26  1  0  0  0  0
  9 27  1  0  0  0  0
M  END
> <Catalog ID>
Z2301516905

> <PlateID>
1337959-R-05

> <Well>
H02

> <MW (desalted)>
189.275

> <CLogP>
-0.677

> <HBD>
1

> <TPSA>
46.170

> <RotBonds>
0

> <ROCS_ShapeQuery>
x0446_0A_x1080_0A_x0929_0A_x0812_0A_x0719_0A_x1140_0A_x0528_0A_x0310_0A

> <ROCS_TanimotoCombo>
0.290 

> <ROCS_ShapeTanimoto>
0.169 

> <ROCS_ColorTanimoto>
0.121 

> <ROCS_RefTversky>
0.158 

> <ROCS_RefColorTversky>
0.131 

> <ROCS_RefTverskyCombo>
0.289 

> <ROCS_FitTversky>
1.718 

> <ROCS_FitColorTversky>
0.618 

> <ROCS_FitTverskyCombo>
2.336 

> <ROCS_ColorScore>
-4.676

> <ROCS_Overlap>
1860.083

> <ROCS_Rank>
442                 

$$$$
untitled-dbase-38_0
  -OEChem-02082415003D

 25 27  0     0  0  0  0  0  0999 V2000
    5.3793   12.1355   25.5477 C   0  0  0  0  0  0  0  0  0  0  0  0
    5.8595   13.4114   25.2798 C   0  0  0  0  0  0  0  0  0  0  0  0
    6.1308   11.0254   25.1772 C   0  0  0  0  0  0  0  0  0  0  0  0
    7.0934   13.5778   24.6446 C   0  0  0  0  0  0  0  0  0  0  0  0
    7.3654   11.1876   24.5284 C   0  0  0  0  0  0  0  0  0  0  0  0
    7.8828   12.4774   24.2580 C   0  0  0  0  0  0  0  0  0  0  0  0
    8.1774    9.9602   24.1792 C   0  0  0  0  0  0  0  0  0  0  0  0
    9.3361   13.5203   22.3440 C   0  0  0  0  0  0  0  0  0  0  0  0
   10.0397   13.8897   23.6156 C   0  0  0  0  0  0  0  0  0  0  0  0
   10.0536   11.3213   23.5230 C   0  0  0  0  0  0  0  0  0  0  0  0
    9.2392   12.6038   23.5515 C   0  0  0  0  0  0  0  0  0  0  0  0
    9.1895   10.2029   23.1462 N   0  0  0  0  0  0  0  0  0  0  0  0
    4.4235   12.0054   26.0458 H   0  0  0  0  0  0  0  0  0  0  0  0
    5.2759   14.2824   25.5638 H   0  0  0  0  0  0  0  0  0  0  0  0
    5.7535   10.0296   25.3972 H   0  0  0  0  0  0  0  0  0  0  0  0
    7.4289   14.5929   24.4487 H   0  0  0  0  0  0  0  0  0  0  0  0
    8.6553    9.5811   25.0911 H   0  0  0  0  0  0  0  0  0  0  0  0
    7.5050    9.1789   23.8067 H   0  0  0  0  0  0  0  0  0  0  0  0
    8.4737   14.1106   22.0574 H   0  0  0  0  0  0  0  0  0  0  0  0
    9.9451   13.2098   21.5027 H   0  0  0  0  0  0  0  0  0  0  0  0
   11.1224   13.8236   23.6241 H   0  0  0  0  0  0  0  0  0  0  0  0
    9.6649   14.7354   24.1775 H   0  0  0  0  0  0  0  0  0  0  0  0
   10.8669   11.3950   22.7914 H   0  0  0  0  0  0  0  0  0  0  0  0
   10.5209   11.1439   24.5001 H   0  0  0  0  0  0  0  0  0  0  0  0
    9.7554    9.3619   23.0342 H   0  0  0  0  0  0  0  0  0  0  0  0
  1  2  2  0  0  0  0
  1  3  1  0  0  0  0
  2  4  1  0  0  0  0
  3  5  2  0  0  0  0
  4  6  2  0  0  0  0
  5  6  1  0  0  0  0
  5  7  1  0  0  0  0
  6 11  1  0  0  0  0
  7 12  1  0  0  0  0
  8  9  1  0  0  0  0
  8 11  1  0  0  0  0
  9 11  1  0  0  0  0
 10 11  1  0  0  0  0
 10 12  1  0  0  0  0
  1 13  1  0  0  0  0
  2 14  1  0  0  0  0
  3 15  1  0  0  0  0
  4 16  1  0  0  0  0
  7 17  1  0  0  0  0
  7 18  1  0  0  0  0
  8 19  1  0  0  0  0
  8 20  1  0  0  0  0
  9 21  1  0  0  0  0
  9 22  1  0  0  0  0
 10 23  1  0  0  0  0
 10 24  1  0  0  0  0
 12 25  1  0  0  0  0
M  END
> <Catalog ID>
Z1255452599

> <PlateID>
1337959-R-01

> <Well>
F06

> <MW (desalted)>
159.228

> <CLogP>
1.909

> <HBD>
1

> <TPSA>
12.030

> <RotBonds>
0

> <ROCS_ShapeQuery>
x0446_0A_x1080_0A_x0929_0A_x0812_0A_x0719_0A_x1140_0A_x0528_0A_x0310_0A

> <ROCS_TanimotoCombo>
0.290 

> <ROCS_ShapeTanimoto>
0.188 

> <ROCS_ColorTanimoto>
0.102 

> <ROCS_RefTversky>
0.174 

> <ROCS_RefColorTversky>
0.107 

> <ROCS_RefTverskyCombo>
0.281 

> <ROCS_FitTversky>
1.814 

> <ROCS_FitColorTversky>
0.673 

> <ROCS_FitTverskyCombo>
2.487 

> <ROCS_ColorScore>
-3.812

> <ROCS_Overlap>
2045.880

> <ROCS_Rank>
443                 

$$$$
untitled-dbase-327_6
  -OEChem-02082415003D

 31 32  0     0  0  0  0  0  0999 V2000
   11.2673   15.9309   21.4060 C   0  0  0  0  0  0  0  0  0  0  0  0
   12.3457   16.0959   22.2751 C   0  0  0  0  0  0  0  0  0  0  0  0
   10.6157   14.6999   21.3289 C   0  0  0  0  0  0  0  0  0  0  0  0
   12.7726   15.0299   23.0670 C   0  0  0  0  0  0  0  0  0  0  0  0
   11.0426   13.6340   22.1208 C   0  0  0  0  0  0  0  0  0  0  0  0
   12.1211   13.7990   22.9899 C   0  0  0  0  0  0  0  0  0  0  0  0
   10.3586   12.3488   22.0369 C   0  0  0  0  0  0  0  0  0  0  0  0
    8.1363   10.1380   23.8955 C   0  0  0  0  0  0  0  0  0  0  0  0
    7.8716   12.5398   24.6269 C   0  0  0  0  0  0  0  0  0  0  0  0
    9.5938   10.4352   23.5543 C   0  0  0  0  0  0  0  0  0  0  0  0
    9.3331   12.7852   24.2577 C   0  0  0  0  0  0  0  0  0  0  0  0
    7.6284   11.0731   24.9997 C   0  0  0  0  0  0  0  0  0  0  0  0
    9.7648   11.8545   23.2128 N   0  0  0  0  0  0  0  0  0  0  0  0
    6.2305   10.8409   25.2675 N   0  0  0  0  0  0  0  0  0  0  0  0
   10.3177   11.7382   20.9674 O   0  0  0  0  0  0  0  0  0  0  0  0
   12.5407   12.7815   23.7558 F   0  0  0  0  0  0  0  0  0  0  0  0
   10.9350   16.7608   20.7893 H   0  0  0  0  0  0  0  0  0  0  0  0
   12.8529   17.0544   22.3353 H   0  0  0  0  0  0  0  0  0  0  0  0
    9.7764   14.5834   20.6480 H   0  0  0  0  0  0  0  0  0  0  0  0
   13.6122   15.1582   23.7438 H   0  0  0  0  0  0  0  0  0  0  0  0
    7.5185   10.2296   22.9990 H   0  0  0  0  0  0  0  0  0  0  0  0
    8.0530    9.1022   24.2371 H   0  0  0  0  0  0  0  0  0  0  0  0
    7.6128   13.1698   25.4822 H   0  0  0  0  0  0  0  0  0  0  0  0
    7.2246   12.8424   23.8012 H   0  0  0  0  0  0  0  0  0  0  0  0
   10.2264   10.1507   24.3991 H   0  0  0  0  0  0  0  0  0  0  0  0
    9.9310    9.8472   22.6931 H   0  0  0  0  0  0  0  0  0  0  0  0
    9.4813   13.8018   23.8772 H   0  0  0  0  0  0  0  0  0  0  0  0
    9.9606   12.6781   25.1483 H   0  0  0  0  0  0  0  0  0  0  0  0
    8.1829   10.8540   25.9197 H   0  0  0  0  0  0  0  0  0  0  0  0
    5.7456   11.6917   25.1165 H   0  0  0  0  0  0  0  0  0  0  0  0
    5.9142   10.1371   24.6460 H   0  0  0  0  0  0  0  0  0  0  0  0
  1  2  2  0  0  0  0
  1  3  1  0  0  0  0
  2  4  1  0  0  0  0
  3  5  2  0  0  0  0
  4  6  2  0  0  0  0
  5  6  1  0  0  0  0
  5  7  1  0  0  0  0
  6 16  1  0  0  0  0
  7 13  1  0  0  0  0
  7 15  2  0  0  0  0
  8 10  1  0  0  0  0
  8 12  1  0  0  0  0
  9 11  1  0  0  0  0
  9 12  1  0  0  0  0
 10 13  1  0  0  0  0
 11 13  1  0  0  0  0
 12 14  1  0  0  0  0
  1 17  1  0  0  0  0
  2 18  1  0  0  0  0
  3 19  1  0  0  0  0
  4 20  1  0  0  0  0
  8 21  1  0  0  0  0
  8 22  1  0  0  0  0
  9 23  1  0  0  0  0
  9 24  1  0  0  0  0
 10 25  1  0  0  0  0
 10 26  1  0  0  0  0
 11 27  1  0  0  0  0
 11 28  1  0  0  0  0
 12 29  1  0  0  0  0
 14 30  1  0  0  0  0
 14 31  1  0  0  0  0
M  END
> <Catalog ID>
Z1455655270

> <PlateID>
1337959-R-07

> <Well>
H10

> <MW (desalted)>
222.259

> <CLogP>
0.032

> <HBD>
1

> <TPSA>
46.330

> <RotBonds>
1

> <ROCS_ShapeQuery>
x0446_0A_x1080_0A_x0929_0A_x0812_0A_x0719_0A_x1140_0A_x0528_0A_x0310_0A

> <ROCS_TanimotoCombo>
0.290 

> <ROCS_ShapeTanimoto>
0.211 

> <ROCS_ColorTanimoto>
0.080 

> <ROCS_RefTversky>
0.193 

> <ROCS_RefColorTversky>
0.087 

> <ROCS_RefTverskyCombo>
0.280 

> <ROCS_FitTversky>
1.764 

> <ROCS_FitColorTversky>
0.471 

> <ROCS_FitTverskyCombo>
2.235 

> <ROCS_ColorScore>
-3.112

> <ROCS_Overlap>
2276.109

> <ROCS_Rank>
444                 

$$$$
untitled-dbase-212_6
  -OEChem-02082415003D

 27 28  0     0  0  0  0  0  0999 V2000
    9.4348   14.3129   22.3529 C   0  0  0  0  0  0  0  0  0  0  0  0
    9.5363   11.7104   21.9038 C   0  0  0  0  0  0  0  0  0  0  0  0
    7.6989   12.3805   22.8294 C   0  0  0  0  0  0  0  0  0  0  0  0
    8.3446    9.9188   23.3810 C   0  0  0  0  0  0  0  0  0  0  0  0
    9.4537   11.4326   24.4892 C   0  0  0  0  0  0  0  0  0  0  0  0
    8.7268   13.0410   21.8626 C   0  0  0  0  0  0  0  0  0  0  0  0
    8.7598   11.3506   23.1435 C   0  0  0  0  0  0  0  0  0  0  0  0
    8.6506   10.1586   24.8902 C   0  0  0  0  0  0  0  0  0  0  0  0
    7.4799   10.3325   25.8327 C   0  0  0  0  0  0  0  0  0  0  0  0
    9.5952    9.1365   25.3461 N   0  0  0  0  0  0  0  0  0  0  0  0
   10.0145   14.4253   23.4228 O   0  0  0  0  0  0  0  0  0  0  0  0
    9.3283   15.3043   21.4348 O   0  0  0  0  0  0  0  0  0  0  0  0
    6.6926    9.2388   25.8223 F   0  0  0  0  0  0  0  0  0  0  0  0
    7.9088   10.5303   27.0948 F   0  0  0  0  0  0  0  0  0  0  0  0
    6.7309   11.3932   25.4719 F   0  0  0  0  0  0  0  0  0  0  0  0
    9.4053   11.0619   21.0292 H   0  0  0  0  0  0  0  0  0  0  0  0
   10.6140   11.8534   22.0659 H   0  0  0  0  0  0  0  0  0  0  0  0
    7.4207   13.0124   23.6814 H   0  0  0  0  0  0  0  0  0  0  0  0
    6.7844   12.0120   22.3554 H   0  0  0  0  0  0  0  0  0  0  0  0
    7.2840    9.7250   23.1802 H   0  0  0  0  0  0  0  0  0  0  0  0
    8.9269    9.1424   22.8752 H   0  0  0  0  0  0  0  0  0  0  0  0
   10.5410   11.3526   24.4825 H   0  0  0  0  0  0  0  0  0  0  0  0
    9.1779   12.3201   25.0647 H   0  0  0  0  0  0  0  0  0  0  0  0
    8.2906   13.2166   20.8703 H   0  0  0  0  0  0  0  0  0  0  0  0
   10.4092    9.5985   25.6696 H   0  0  0  0  0  0  0  0  0  0  0  0
    9.1611    8.6271   26.0759 H   0  0  0  0  0  0  0  0  0  0  0  0
    9.7732   16.1270   21.7306 H   0  0  0  0  0  0  0  0  0  0  0  0
  1  6  1  0  0  0  0
  1 11  2  0  0  0  0
  1 12  1  0  0  0  0
  2  6  1  0  0  0  0
  2  7  1  0  0  0  0
  3  6  1  0  0  0  0
  3  7  1  0  0  0  0
  4  7  1  0  0  0  0
  4  8  1  0  0  0  0
  5  7  1  0  0  0  0
  5  8  1  0  0  0  0
  8  9  1  0  0  0  0
  8 10  1  0  0  0  0
  9 13  1  0  0  0  0
  9 14  1  0  0  0  0
  9 15  1  0  0  0  0
  2 16  1  0  0  0  0
  2 17  1  0  0  0  0
  3 18  1  0  0  0  0
  3 19  1  0  0  0  0
  4 20  1  0  0  0  0
  4 21  1  0  0  0  0
  5 22  1  0  0  0  0
  5 23  1  0  0  0  0
  6 24  1  0  0  0  0
 10 25  1  0  0  0  0
 10 26  1  0  0  0  0
 12 27  1  0  0  0  0
M  END
> <Catalog ID>
Z1222278698

> <PlateID>
1337959-R-05

> <Well>
C03

> <MW (desalted)>
223.192

> <CLogP>
-1.972

> <HBD>
2

> <TPSA>
63.320

> <RotBonds>
2

> <ROCS_ShapeQuery>
x0446_0A_x1080_0A_x0929_0A_x0812_0A_x0719_0A_x1140_0A_x0528_0A_x0310_0A

> <ROCS_TanimotoCombo>
0.290 

> <ROCS_ShapeTanimoto>
0.163 

> <ROCS_ColorTanimoto>
0.127 

> <ROCS_RefTversky>
0.155 

> <ROCS_RefColorTversky>
0.139 

> <ROCS_RefTverskyCombo>
0.295 

> <ROCS_FitTversky>
1.462 

> <ROCS_FitColorTversky>
0.582 

> <ROCS_FitTverskyCombo>
2.044 

> <ROCS_ColorScore>
-4.970

> <ROCS_Overlap>
1833.790

> <ROCS_Rank>
445                 

$$$$
untitled-dbase-266_2
  -OEChem-02082415003D

 33 35  0     1  0  0  0  0  0999 V2000
   11.6677   12.4578   23.2420 C   0  0  0  0  0  0  0  0  0  0  0  0
   11.8554   11.0851   23.4475 C   0  0  0  0  0  0  0  0  0  0  0  0
   10.3904   13.0142   23.3055 C   0  0  0  0  0  0  0  0  0  0  0  0
   10.7682   10.2510   23.7220 C   0  0  0  0  0  0  0  0  0  0  0  0
    9.3166   12.1791   23.5820 C   0  0  0  0  0  0  0  0  0  0  0  0
    9.4972   10.8037   23.7944 C   0  0  0  0  0  0  0  0  0  0  0  0
    7.5269   13.7396   24.5630 C   0  0  0  0  0  0  0  0  0  0  0  0
    7.2558   12.6920   22.2534 C   0  0  0  0  0  0  0  0  0  0  0  0
    7.3033   15.0069   23.7377 C   0  0  0  0  0  0  0  0  0  0  0  0
    5.9783   13.5285   22.2877 C   0  0  0  0  0  0  0  0  0  0  0  0
    7.3181   11.2080   24.3491 C   0  0  0  0  0  0  0  0  0  0  0  0
    7.8428   12.5180   23.6739 C   0  0  0  0  0  0  0  0  0  0  0  0
    8.1912    8.8345   24.6044 C   0  0  0  0  0  0  0  0  0  0  0  0
    6.2034   14.8886   22.7803 N   0  0  0  0  0  0  0  0  0  0  0  0
    8.2938   10.1618   24.0516 N   0  0  2  0  0  0  0  0  0  0  0  0
   12.5245   13.0939   23.0361 H   0  0  0  0  0  0  0  0  0  0  0  0
   12.8566   10.6657   23.3954 H   0  0  0  0  0  0  0  0  0  0  0  0
   10.2515   14.0784   23.1480 H   0  0  0  0  0  0  0  0  0  0  0  0
   10.9332    9.1893   23.8736 H   0  0  0  0  0  0  0  0  0  0  0  0
    8.3598   13.9169   25.2556 H   0  0  0  0  0  0  0  0  0  0  0  0
    6.6452   13.5506   25.1860 H   0  0  0  0  0  0  0  0  0  0  0  0
    7.0508   11.7195   21.7979 H   0  0  0  0  0  0  0  0  0  0  0  0
    7.9839   13.1910   21.6062 H   0  0  0  0  0  0  0  0  0  0  0  0
    7.1329   15.8754   24.3961 H   0  0  0  0  0  0  0  0  0  0  0  0
    8.2265   15.2344   23.1803 H   0  0  0  0  0  0  0  0  0  0  0  0
    5.5667   13.5911   21.2667 H   0  0  0  0  0  0  0  0  0  0  0  0
    5.2028   13.0301   22.8952 H   0  0  0  0  0  0  0  0  0  0  0  0
    7.1832   11.3121   25.4304 H   0  0  0  0  0  0  0  0  0  0  0  0
    6.3491   10.9126   23.9247 H   0  0  0  0  0  0  0  0  0  0  0  0
    7.1308    8.5613   24.7091 H   0  0  0  0  0  0  0  0  0  0  0  0
    8.6896    8.1187   23.9341 H   0  0  0  0  0  0  0  0  0  0  0  0
    8.6752    8.8102   25.5919 H   0  0  0  0  0  0  0  0  0  0  0  0
    5.3376   15.2328   23.2208 H   0  0  0  0  0  0  0  0  0  0  0  0
  1  2  2  0  0  0  0
  1  3  1  0  0  0  0
  2  4  1  0  0  0  0
  3  5  2  0  0  0  0
  4  6  2  0  0  0  0
  5  6  1  0  0  0  0
  5 12  1  0  0  0  0
  6 15  1  0  0  0  0
  7  9  1  0  0  0  0
  7 12  1  0  0  0  0
  8 10  1  0  0  0  0
  8 12  1  0  0  0  0
  9 14  1  0  0  0  0
 10 14  1  0  0  0  0
 11 12  1  0  0  0  0
 11 15  1  0  0  0  0
 13 15  1  0  0  0  0
  1 16  1  0  0  0  0
  2 17  1  0  0  0  0
  3 18  1  0  0  0  0
  4 19  1  0  0  0  0
  7 20  1  0  0  0  0
  7 21  1  0  0  0  0
  8 22  1  0  0  0  0
  8 23  1  0  0  0  0
  9 24  1  0  0  0  0
  9 25  1  0  0  0  0
 10 26  1  0  0  0  0
 10 27  1  0  0  0  0
 11 28  1  0  0  0  0
 11 29  1  0  0  0  0
 13 30  1  0  0  0  0
 13 31  1  0  0  0  0
 13 32  1  0  0  0  0
 14 33  1  0  0  0  0
M  END
> <Catalog ID>
Z1509148590

> <PlateID>
1337959-R-06

> <Well>
E03

> <MW (desalted)>
202.295

> <CLogP>
2.134

> <HBD>
1

> <TPSA>
15.270

> <RotBonds>
0

> <ROCS_ShapeQuery>
x0446_0A_x1080_0A_x0929_0A_x0812_0A_x0719_0A_x1140_0A_x0528_0A_x0310_0A

> <ROCS_TanimotoCombo>
0.290 

> <ROCS_ShapeTanimoto>
0.209 

> <ROCS_ColorTanimoto>
0.081 

> <ROCS_RefTversky>
0.191 

> <ROCS_RefColorTversky>
0.089 

> <ROCS_RefTverskyCombo>
0.280 

> <ROCS_FitTversky>
1.787 

> <ROCS_FitColorTversky>
0.479 

> <ROCS_FitTverskyCombo>
2.266 

> <ROCS_ColorScore>
-3.177

> <ROCS_Overlap>
2254.241

> <ROCS_Rank>
446                 

$$$$
untitled-dbase-595_2
  -OEChem-02082415003D

 29 30  0     0  0  0  0  0  0999 V2000
    9.5182   12.8472   23.4311 C   0  0  0  0  0  0  0  0  0  0  0  0
    5.7638   12.7000   23.8280 C   0  0  0  0  0  0  0  0  0  0  0  0
    6.7611   11.9697   26.0419 C   0  0  0  0  0  0  0  0  0  0  0  0
    7.0740   12.4488   23.0724 C   0  0  0  0  0  0  0  0  0  0  0  0
    8.0079   12.6156   25.4342 C   0  0  0  0  0  0  0  0  0  0  0  0
    8.7057   10.6704   23.9347 C   0  0  0  0  0  0  0  0  0  0  0  0
    9.6256   10.5995   22.7301 C   0  0  0  0  0  0  0  0  0  0  0  0
    5.6196   11.7655   25.0312 C   0  0  0  0  0  0  0  0  0  0  0  0
    8.2793   12.1554   23.9989 C   0  0  0  0  0  0  0  0  0  0  0  0
    4.2591   11.9375   25.7041 C   0  0  0  0  0  0  0  0  0  0  0  0
   10.2211   11.9042   22.6883 N   0  0  0  0  0  0  0  0  0  0  0  0
    9.8077   14.0266   23.5706 O   0  0  0  0  0  0  0  0  0  0  0  0
    4.1407   11.0781   26.7273 F   0  0  0  0  0  0  0  0  0  0  0  0
    4.1321   13.1890   26.1702 F   0  0  0  0  0  0  0  0  0  0  0  0
    3.2771   11.7005   24.8214 F   0  0  0  0  0  0  0  0  0  0  0  0
    5.7225   13.7462   24.1530 H   0  0  0  0  0  0  0  0  0  0  0  0
    4.9245   12.5525   23.1385 H   0  0  0  0  0  0  0  0  0  0  0  0
    7.0421   10.9972   26.4790 H   0  0  0  0  0  0  0  0  0  0  0  0
    6.4027   12.5792   26.8875 H   0  0  0  0  0  0  0  0  0  0  0  0
    6.9220   11.5952   22.3967 H   0  0  0  0  0  0  0  0  0  0  0  0
    7.2744   13.3181   22.4321 H   0  0  0  0  0  0  0  0  0  0  0  0
    7.8917   13.7016   25.4733 H   0  0  0  0  0  0  0  0  0  0  0  0
    8.8661   12.3597   26.0625 H   0  0  0  0  0  0  0  0  0  0  0  0
    7.8595    9.9834   23.8459 H   0  0  0  0  0  0  0  0  0  0  0  0
    9.2691   10.3924   24.8340 H   0  0  0  0  0  0  0  0  0  0  0  0
   10.4023    9.8371   22.8340 H   0  0  0  0  0  0  0  0  0  0  0  0
    9.0775   10.4417   21.7960 H   0  0  0  0  0  0  0  0  0  0  0  0
    5.6760   10.7209   24.6644 H   0  0  0  0  0  0  0  0  0  0  0  0
   11.0671   12.1207   22.1714 H   0  0  0  0  0  0  0  0  0  0  0  0
  1  9  1  0  0  0  0
  1 11  1  0  0  0  0
  1 12  2  0  0  0  0
  2  4  1  0  0  0  0
  2  8  1  0  0  0  0
  3  5  1  0  0  0  0
  3  8  1  0  0  0  0
  4  9  1  0  0  0  0
  5  9  1  0  0  0  0
  6  7  1  0  0  0  0
  6  9  1  0  0  0  0
  7 11  1  0  0  0  0
  8 10  1  0  0  0  0
 10 13  1  0  0  0  0
 10 14  1  0  0  0  0
 10 15  1  0  0  0  0
  2 16  1  0  0  0  0
  2 17  1  0  0  0  0
  3 18  1  0  0  0  0
  3 19  1  0  0  0  0
  4 20  1  0  0  0  0
  4 21  1  0  0  0  0
  5 22  1  0  0  0  0
  5 23  1  0  0  0  0
  6 24  1  0  0  0  0
  6 25  1  0  0  0  0
  7 26  1  0  0  0  0
  7 27  1  0  0  0  0
  8 28  1  0  0  0  0
 11 29  1  0  0  0  0
M  END
> <Catalog ID>
Z3006439231

> <PlateID>
1337959-R-13

> <Well>
G11

> <MW (desalted)>
221.219

> <CLogP>
0.811

> <HBD>
1

> <TPSA>
29.100

> <RotBonds>
1

> <ROCS_ShapeQuery>
x0446_0A_x1080_0A_x0929_0A_x0812_0A_x0719_0A_x1140_0A_x0528_0A_x0310_0A

> <ROCS_TanimotoCombo>
0.290 

> <ROCS_ShapeTanimoto>
0.171 

> <ROCS_ColorTanimoto>
0.119 

> <ROCS_RefTversky>
0.162 

> <ROCS_RefColorTversky>
0.123 

> <ROCS_RefTverskyCombo>
0.285 

> <ROCS_FitTversky>
1.521 

> <ROCS_FitColorTversky>
0.773 

> <ROCS_FitTverskyCombo>
2.294 

> <ROCS_ColorScore>
-4.377

> <ROCS_Overlap>
1905.751

> <ROCS_Rank>
447                 

$$$$
untitled-dbase-28_6
  -OEChem-02082415003D

 27 28  0     0  0  0  0  0  0999 V2000
    7.6976   11.3949   24.3427 C   0  0  0  0  0  0  0  0  0  0  0  0
    8.4491   12.3868   23.6845 C   0  0  0  0  0  0  0  0  0  0  0  0
    9.4182   11.6894   23.0056 C   0  0  0  0  0  0  0  0  0  0  0  0
    7.1166   14.3351   24.6846 C   0  0  0  0  0  0  0  0  0  0  0  0
    8.0748   14.5301   22.3280 C   0  0  0  0  0  0  0  0  0  0  0  0
    5.7281   14.4061   24.0511 C   0  0  0  0  0  0  0  0  0  0  0  0
    6.6342   14.5906   21.8223 C   0  0  0  0  0  0  0  0  0  0  0  0
    8.2319   13.8986   23.7209 C   0  0  0  0  0  0  0  0  0  0  0  0
   10.5188   12.1253   22.1295 C   0  0  0  0  0  0  0  0  0  0  0  0
    8.1504   10.1613   24.1035 N   0  0  0  0  0  0  0  0  0  0  0  0
    9.1967   10.3734   23.2872 N   0  0  0  0  0  0  0  0  0  0  0  0
    5.7382   15.1814   22.8132 N   0  0  0  0  0  0  0  0  0  0  0  0
    6.8382   11.5176   24.9865 H   0  0  0  0  0  0  0  0  0  0  0  0
    7.3675   15.3257   25.1239 H   0  0  0  0  0  0  0  0  0  0  0  0
    7.0836   13.6447   25.5580 H   0  0  0  0  0  0  0  0  0  0  0  0
    8.6964   13.9727   21.5909 H   0  0  0  0  0  0  0  0  0  0  0  0
    8.5027   15.5567   22.3316 H   0  0  0  0  0  0  0  0  0  0  0  0
    5.3756   13.3910   23.8316 H   0  0  0  0  0  0  0  0  0  0  0  0
    5.0081   14.8394   24.7577 H   0  0  0  0  0  0  0  0  0  0  0  0
    6.5827   15.1602   20.8850 H   0  0  0  0  0  0  0  0  0  0  0  0
    6.2872   13.5766   21.5891 H   0  0  0  0  0  0  0  0  0  0  0  0
    9.2069   14.3095   24.1514 H   0  0  0  0  0  0  0  0  0  0  0  0
   11.4400   12.3138   22.7071 H   0  0  0  0  0  0  0  0  0  0  0  0
   10.7592   11.3739   21.3563 H   0  0  0  0  0  0  0  0  0  0  0  0
   10.2738   13.0534   21.5825 H   0  0  0  0  0  0  0  0  0  0  0  0
    9.7184    9.5696   22.9600 H   0  0  0  0  0  0  0  0  0  0  0  0
    4.7926   15.2065   22.4306 H   0  0  0  0  0  0  0  0  0  0  0  0
  1  2  1  0  0  0  0
  1 10  2  0  0  0  0
  2  3  2  0  0  0  0
  2  8  1  0  0  0  0
  3  9  1  0  0  0  0
  3 11  1  0  0  0  0
  4  6  1  0  0  0  0
  4  8  1  0  0  0  0
  5  7  1  0  0  0  0
  5  8  1  0  0  0  0
  6 12  1  0  0  0  0
  7 12  1  0  0  0  0
 10 11  1  0  0  0  0
  1 13  1  0  0  0  0
  4 14  1  0  0  0  0
  4 15  1  0  0  0  0
  5 16  1  0  0  0  0
  5 17  1  0  0  0  0
  6 18  1  0  0  0  0
  6 19  1  0  0  0  0
  7 20  1  0  0  0  0
  7 21  1  0  0  0  0
  8 22  1  0  0  0  0
  9 23  1  0  0  0  0
  9 24  1  0  0  0  0
  9 25  1  0  0  0  0
 11 26  1  0  0  0  0
 12 27  1  0  0  0  0
M  END
> <Catalog ID>
Z1416193393

> <PlateID>
1337959-R-01

> <Well>
D10

> <MW (desalted)>
165.236

> <CLogP>
0.431

> <HBD>
2

> <TPSA>
40.710

> <RotBonds>
1

> <ROCS_ShapeQuery>
x0446_0A_x1080_0A_x0929_0A_x0812_0A_x0719_0A_x1140_0A_x0528_0A_x0310_0A

> <ROCS_TanimotoCombo>
0.290 

> <ROCS_ShapeTanimoto>
0.178 

> <ROCS_ColorTanimoto>
0.111 

> <ROCS_RefTversky>
0.166 

> <ROCS_RefColorTversky>
0.122 

> <ROCS_RefTverskyCombo>
0.287 

> <ROCS_FitTversky>
1.751 

> <ROCS_FitColorTversky>
0.573 

> <ROCS_FitTverskyCombo>
2.324 

> <ROCS_ColorScore>
-4.331

> <ROCS_Overlap>
1953.614

> <ROCS_Rank>
448                 

$$$$
untitled-dbase-612_8
  -OEChem-02082415003D

 34 35  0     0  0  0  0  0  0999 V2000
    8.2786   14.7591   22.5779 C   0  0  0  0  0  0  0  0  0  0  0  0
    9.5078   15.3606   22.4062 C   0  0  0  0  0  0  0  0  0  0  0  0
    8.5307   16.0797   20.5792 C   0  0  0  0  0  0  0  0  0  0  0  0
    7.7847   13.9052   23.6519 C   0  0  0  0  0  0  0  0  0  0  0  0
    8.6988   10.5525   22.7013 C   0  0  0  0  0  0  0  0  0  0  0  0
    8.2164   10.6151   25.1784 C   0  0  0  0  0  0  0  0  0  0  0  0
    9.1371   12.0146   22.7767 C   0  0  0  0  0  0  0  0  0  0  0  0
    8.6726   12.0725   25.2001 C   0  0  0  0  0  0  0  0  0  0  0  0
    8.8644    9.8112   24.0384 C   0  0  0  0  0  0  0  0  0  0  0  0
   10.6598   15.2664   23.3263 C   0  0  0  0  0  0  0  0  0  0  0  0
    8.3079   16.7726   19.2918 C   0  0  0  0  0  0  0  0  0  0  0  0
   10.3330    9.4939   24.3309 C   0  0  0  0  0  0  0  0  0  0  0  0
    9.6543   16.1179   21.2605 N   0  0  0  0  0  0  0  0  0  0  0  0
    8.4705   12.6987   23.8862 N   0  0  0  0  0  0  0  0  0  0  0  0
    6.8053   14.2499   24.3156 O   0  0  0  0  0  0  0  0  0  0  0  0
    7.2564   15.1523   21.2582 S   0  0  0  0  0  0  0  0  0  0  0  0
    7.6450   10.5076   22.3803 H   0  0  0  0  0  0  0  0  0  0  0  0
    9.2794   10.0416   21.9138 H   0  0  0  0  0  0  0  0  0  0  0  0
    8.4495   10.1470   26.1506 H   0  0  0  0  0  0  0  0  0  0  0  0
    7.1188   10.5808   25.0784 H   0  0  0  0  0  0  0  0  0  0  0  0
   10.2255   12.0693   22.8816 H   0  0  0  0  0  0  0  0  0  0  0  0
    8.8696   12.5447   21.8546 H   0  0  0  0  0  0  0  0  0  0  0  0
    8.0868   12.6467   25.9283 H   0  0  0  0  0  0  0  0  0  0  0  0
    9.7178   12.1218   25.5164 H   0  0  0  0  0  0  0  0  0  0  0  0
    8.3245    8.8454   23.9571 H   0  0  0  0  0  0  0  0  0  0  0  0
   11.3043   14.4109   23.0675 H   0  0  0  0  0  0  0  0  0  0  0  0
   11.2828   16.1762   23.3018 H   0  0  0  0  0  0  0  0  0  0  0  0
   10.3411   15.1422   24.3749 H   0  0  0  0  0  0  0  0  0  0  0  0
    8.5830   16.1266   18.4434 H   0  0  0  0  0  0  0  0  0  0  0  0
    7.2544   17.0698   19.1620 H   0  0  0  0  0  0  0  0  0  0  0  0
    8.8999   17.6995   19.2163 H   0  0  0  0  0  0  0  0  0  0  0  0
   10.9008   10.4190   24.4186 H   0  0  0  0  0  0  0  0  0  0  0  0
   10.7500    8.8953   23.5224 H   0  0  0  0  0  0  0  0  0  0  0  0
   10.4123    8.9374   25.2637 H   0  0  0  0  0  0  0  0  0  0  0  0
  1  2  2  0  0  0  0
  1  4  1  0  0  0  0
  1 16  1  0  0  0  0
  2 10  1  0  0  0  0
  2 13  1  0  0  0  0
  3 11  1  0  0  0  0
  3 13  2  0  0  0  0
  3 16  1  0  0  0  0
  4 14  1  0  0  0  0
  4 15  2  0  0  0  0
  5  7  1  0  0  0  0
  5  9  1  0  0  0  0
  6  8  1  0  0  0  0
  6  9  1  0  0  0  0
  7 14  1  0  0  0  0
  8 14  1  0  0  0  0
  9 12  1  0  0  0  0
  5 17  1  0  0  0  0
  5 18  1  0  0  0  0
  6 19  1  0  0  0  0
  6 20  1  0  0  0  0
  7 21  1  0  0  0  0
  7 22  1  0  0  0  0
  8 23  1  0  0  0  0
  8 24  1  0  0  0  0
  9 25  1  0  0  0  0
 10 26  1  0  0  0  0
 10 27  1  0  0  0  0
 10 28  1  0  0  0  0
 11 29  1  0  0  0  0
 11 30  1  0  0  0  0
 11 31  1  0  0  0  0
 12 32  1  0  0  0  0
 12 33  1  0  0  0  0
 12 34  1  0  0  0  0
M  END
> <Catalog ID>
Z54737428

> <PlateID>
1337959-R-14

> <Well>
C08

> <MW (desalted)>
238.349

> <CLogP>
2.045

> <HBD>
0

> <TPSA>
33.200

> <RotBonds>
1

> <ROCS_ShapeQuery>
x0446_0A_x1080_0A_x0929_0A_x0812_0A_x0719_0A_x1140_0A_x0528_0A_x0310_0A

> <ROCS_TanimotoCombo>
0.290 

> <ROCS_ShapeTanimoto>
0.179 

> <ROCS_ColorTanimoto>
0.111 

> <ROCS_RefTversky>
0.168 

> <ROCS_RefColorTversky>
0.116 

> <ROCS_RefTverskyCombo>
0.284 

> <ROCS_FitTversky>
1.566 

> <ROCS_FitColorTversky>
0.727 

> <ROCS_FitTverskyCombo>
2.293 

> <ROCS_ColorScore>
-4.114

> <ROCS_Overlap>
1980.840

> <ROCS_Rank>
449                 

$$$$
untitled-dbase-647_1
  -OEChem-02082415003D

 31 32  0     1  0  0  0  0  0999 V2000
    9.5941   12.3411   23.8240 C   0  0  0  0  0  0  0  0  0  0  0  0
    7.1495   12.5727   23.1491 C   0  0  0  0  0  0  0  0  0  0  0  0
    7.7494   12.7684   25.5778 C   0  0  0  0  0  0  0  0  0  0  0  0
   10.0530   11.0385   23.1695 C   0  0  0  0  0  0  0  0  0  0  0  0
    8.1213   10.5745   24.3827 C   0  0  0  0  0  0  0  0  0  0  0  0
    6.9770   14.0862   23.1416 C   0  0  0  0  0  0  0  0  0  0  0  0
    8.1343   12.1044   24.2426 C   0  0  2  0  0  0  0  0  0  0  0  0
    7.4560   14.2814   25.4973 C   0  0  0  0  0  0  0  0  0  0  0  0
    6.7084   14.7044   26.7737 C   0  0  0  0  0  0  0  0  0  0  0  0
    8.7241   15.1403   25.3987 C   0  0  0  0  0  0  0  0  0  0  0  0
    8.9396   10.0893   23.2677 N   0  0  0  0  0  0  0  0  0  0  0  0
    6.5614   14.5679   24.4148 O   0  0  0  0  0  0  0  0  0  0  0  0
   10.2259   12.5363   24.6996 H   0  0  0  0  0  0  0  0  0  0  0  0
    9.7066   13.1915   23.1435 H   0  0  0  0  0  0  0  0  0  0  0  0
    6.1684   12.0908   23.2381 H   0  0  0  0  0  0  0  0  0  0  0  0
    7.5522   12.2776   22.1690 H   0  0  0  0  0  0  0  0  0  0  0  0
    6.9071   12.2431   26.0442 H   0  0  0  0  0  0  0  0  0  0  0  0
    8.6048   12.6296   26.2539 H   0  0  0  0  0  0  0  0  0  0  0  0
   10.3317   11.1945   22.1193 H   0  0  0  0  0  0  0  0  0  0  0  0
   10.9361   10.6385   23.6852 H   0  0  0  0  0  0  0  0  0  0  0  0
    8.5696   10.2502   25.3337 H   0  0  0  0  0  0  0  0  0  0  0  0
    7.1216   10.1305   24.3209 H   0  0  0  0  0  0  0  0  0  0  0  0
    7.9414   14.5570   22.9183 H   0  0  0  0  0  0  0  0  0  0  0  0
    6.2828   14.4183   22.3625 H   0  0  0  0  0  0  0  0  0  0  0  0
    6.4945   15.7687   26.7320 H   0  0  0  0  0  0  0  0  0  0  0  0
    7.3263   14.4929   27.6419 H   0  0  0  0  0  0  0  0  0  0  0  0
    5.7770   14.1502   26.8480 H   0  0  0  0  0  0  0  0  0  0  0  0
    8.4437   16.1869   25.3459 H   0  0  0  0  0  0  0  0  0  0  0  0
    9.2745   14.8636   24.5057 H   0  0  0  0  0  0  0  0  0  0  0  0
    9.3400   14.9702   26.2755 H   0  0  0  0  0  0  0  0  0  0  0  0
    8.3965   10.1313   22.4129 H   0  0  0  0  0  0  0  0  0  0  0  0
  1  4  1  0  0  0  0
  1  7  1  0  0  0  0
  2  6  1  0  0  0  0
  2  7  1  0  0  0  0
  3  7  1  0  0  0  0
  3  8  1  0  0  0  0
  4 11  1  0  0  0  0
  5  7  1  0  0  0  0
  5 11  1  0  0  0  0
  6 12  1  0  0  0  0
  8  9  1  0  0  0  0
  8 10  1  0  0  0  0
  8 12  1  0  0  0  0
  1 13  1  0  0  0  0
  1 14  1  0  0  0  0
  2 15  1  0  0  0  0
  2 16  1  0  0  0  0
  3 17  1  0  0  0  0
  3 18  1  0  0  0  0
  4 19  1  0  0  0  0
  4 20  1  0  0  0  0
  5 21  1  0  0  0  0
  5 22  1  0  0  0  0
  6 23  1  0  0  0  0
  6 24  1  0  0  0  0
  9 25  1  0  0  0  0
  9 26  1  0  0  0  0
  9 27  1  0  0  0  0
 10 28  1  0  0  0  0
 10 29  1  0  0  0  0
 10 30  1  0  0  0  0
 11 31  1  0  0  0  0
M  END
> <Catalog ID>
Z4594428398

> <PlateID>
1337959-R-15

> <Well>
B07

> <MW (desalted)>
169.264

> <CLogP>
1.006

> <HBD>
1

> <TPSA>
21.260

> <RotBonds>
0

> <ROCS_ShapeQuery>
x0446_0A_x1080_0A_x0929_0A_x0812_0A_x0719_0A_x1140_0A_x0528_0A_x0310_0A

> <ROCS_TanimotoCombo>
0.290 

> <ROCS_ShapeTanimoto>
0.165 

> <ROCS_ColorTanimoto>
0.125 

> <ROCS_RefTversky>
0.155 

> <ROCS_RefColorTversky>
0.134 

> <ROCS_RefTverskyCombo>
0.289 

> <ROCS_FitTversky>
1.649 

> <ROCS_FitColorTversky>
0.633 

> <ROCS_FitTverskyCombo>
2.282 

> <ROCS_ColorScore>
-4.784

> <ROCS_Overlap>
1827.394

> <ROCS_Rank>
450                 

$$$$
untitled-dbase-375_2
  -OEChem-02082415003D

 29 30  0     0  0  0  0  0  0999 V2000
    8.1942   13.1086   22.3427 C   0  0  0  0  0  0  0  0  0  0  0  0
   12.3320   14.2298   24.2460 C   0  0  0  0  0  0  0  0  0  0  0  0
   12.1540   14.6788   22.7988 C   0  0  0  0  0  0  0  0  0  0  0  0
    9.8743   11.3467   22.8099 C   0  0  0  0  0  0  0  0  0  0  0  0
    8.4858   12.3161   24.6695 C   0  0  0  0  0  0  0  0  0  0  0  0
   11.1889   13.2594   24.5051 C   0  0  0  0  0  0  0  0  0  0  0  0
   10.9213   13.9386   22.3014 C   0  0  0  0  0  0  0  0  0  0  0  0
    8.9374   10.1398   22.8381 C   0  0  0  0  0  0  0  0  0  0  0  0
    7.6290   11.0532   24.5894 C   0  0  0  0  0  0  0  0  0  0  0  0
    9.1812   12.6207   23.3292 C   0  0  0  0  0  0  0  0  0  0  0  0
    7.4195   13.4914   21.5685 N   0  0  0  0  0  0  0  0  0  0  0  0
   10.1768   13.6791   23.5346 N   0  0  0  0  0  0  0  0  0  0  0  0
    8.4067    9.9416   24.1475 O   0  0  0  0  0  0  0  0  0  0  0  0
   13.3053   13.7550   24.4067 H   0  0  0  0  0  0  0  0  0  0  0  0
   12.2666   15.0967   24.9141 H   0  0  0  0  0  0  0  0  0  0  0  0
   11.9979   15.7633   22.7635 H   0  0  0  0  0  0  0  0  0  0  0  0
   13.0342   14.4461   22.1907 H   0  0  0  0  0  0  0  0  0  0  0  0
   10.7330   11.1175   23.4562 H   0  0  0  0  0  0  0  0  0  0  0  0
   10.2632   11.4876   21.7935 H   0  0  0  0  0  0  0  0  0  0  0  0
    7.8681   13.1597   25.0027 H   0  0  0  0  0  0  0  0  0  0  0  0
    9.2501   12.1497   25.4414 H   0  0  0  0  0  0  0  0  0  0  0  0
   11.5275   12.2300   24.3239 H   0  0  0  0  0  0  0  0  0  0  0  0
   10.8253   13.3287   25.5363 H   0  0  0  0  0  0  0  0  0  0  0  0
   10.3457   14.5426   21.5913 H   0  0  0  0  0  0  0  0  0  0  0  0
   11.2229   13.0078   21.8016 H   0  0  0  0  0  0  0  0  0  0  0  0
    8.1151   10.2452   22.1212 H   0  0  0  0  0  0  0  0  0  0  0  0
    9.4927    9.2364   22.5659 H   0  0  0  0  0  0  0  0  0  0  0  0
    7.2384   10.8097   25.5827 H   0  0  0  0  0  0  0  0  0  0  0  0
    6.7677   11.1859   23.9244 H   0  0  0  0  0  0  0  0  0  0  0  0
  1 10  1  0  0  0  0
  1 11  3  0  0  0  0
  2  3  1  0  0  0  0
  2  6  1  0  0  0  0
  3  7  1  0  0  0  0
  4  8  1  0  0  0  0
  4 10  1  0  0  0  0
  5  9  1  0  0  0  0
  5 10  1  0  0  0  0
  6 12  1  0  0  0  0
  7 12  1  0  0  0  0
  8 13  1  0  0  0  0
  9 13  1  0  0  0  0
 10 12  1  0  0  0  0
  2 14  1  0  0  0  0
  2 15  1  0  0  0  0
  3 16  1  0  0  0  0
  3 17  1  0  0  0  0
  4 18  1  0  0  0  0
  4 19  1  0  0  0  0
  5 20  1  0  0  0  0
  5 21  1  0  0  0  0
  6 22  1  0  0  0  0
  6 23  1  0  0  0  0
  7 24  1  0  0  0  0
  7 25  1  0  0  0  0
  8 26  1  0  0  0  0
  8 27  1  0  0  0  0
  9 28  1  0  0  0  0
  9 29  1  0  0  0  0
M  END
> <Catalog ID>
Z447995202

> <PlateID>
1337959-R-09

> <Well>
A10

> <MW (desalted)>
180.247

> <CLogP>
-0.243

> <HBD>
0

> <TPSA>
36.260

> <RotBonds>
1

> <ROCS_ShapeQuery>
x0446_0A_x1080_0A_x0929_0A_x0812_0A_x0719_0A_x1140_0A_x0528_0A_x0310_0A

> <ROCS_TanimotoCombo>
0.290 

> <ROCS_ShapeTanimoto>
0.193 

> <ROCS_ColorTanimoto>
0.097 

> <ROCS_RefTversky>
0.177 

> <ROCS_RefColorTversky>
0.105 

> <ROCS_RefTverskyCombo>
0.282 

> <ROCS_FitTversky>
1.808 

> <ROCS_FitColorTversky>
0.563 

> <ROCS_FitTverskyCombo>
2.372 

> <ROCS_ColorScore>
-3.722

> <ROCS_Overlap>
2092.592

> <ROCS_Rank>
451                 

$$$$
untitled-dbase-55_3
  -OEChem-02082415003D

 27 28  0     0  0  0  0  0  0999 V2000
    8.4789   12.7153   24.2148 C   0  0  0  0  0  0  0  0  0  0  0  0
   10.1068   11.2895   23.1408 C   0  0  0  0  0  0  0  0  0  0  0  0
    8.0463   10.3498   23.9823 C   0  0  0  0  0  0  0  0  0  0  0  0
    9.7084   12.5533   23.5764 C   0  0  0  0  0  0  0  0  0  0  0  0
    7.6478   11.6135   24.4179 C   0  0  0  0  0  0  0  0  0  0  0  0
    9.2758   10.1877   23.3438 C   0  0  0  0  0  0  0  0  0  0  0  0
   11.9795   13.7012   23.9848 C   0  0  0  0  0  0  0  0  0  0  0  0
   10.9289   14.5995   24.5587 C   0  0  0  0  0  0  0  0  0  0  0  0
   10.5965   13.7301   23.3595 C   0  0  0  0  0  0  0  0  0  0  0  0
   10.4441   14.4044   22.0243 C   0  0  0  0  0  0  0  0  0  0  0  0
    6.3337   11.7863   25.1016 C   0  0  0  0  0  0  0  0  0  0  0  0
   11.1599   13.6881   21.0113 N   0  0  0  0  0  0  0  0  0  0  0  0
    9.6591    8.9739   22.9267 F   0  0  0  0  0  0  0  0  0  0  0  0
    6.0753   13.0750   25.4737 F   0  0  0  0  0  0  0  0  0  0  0  0
    5.2656   11.4162   24.3348 F   0  0  0  0  0  0  0  0  0  0  0  0
    6.2361   11.0485   26.2458 F   0  0  0  0  0  0  0  0  0  0  0  0
    8.1672   13.7003   24.5545 H   0  0  0  0  0  0  0  0  0  0  0  0
   11.0627   11.1521   22.6423 H   0  0  0  0  0  0  0  0  0  0  0  0
    7.4056    9.4856   24.1367 H   0  0  0  0  0  0  0  0  0  0  0  0
   12.7999   14.1643   23.4489 H   0  0  0  0  0  0  0  0  0  0  0  0
   12.2714   12.8336   24.5654 H   0  0  0  0  0  0  0  0  0  0  0  0
   10.5162   14.3353   25.5257 H   0  0  0  0  0  0  0  0  0  0  0  0
   11.0414   15.6670   24.4086 H   0  0  0  0  0  0  0  0  0  0  0  0
    9.3783   14.4336   21.7707 H   0  0  0  0  0  0  0  0  0  0  0  0
   10.8400   15.4233   22.1036 H   0  0  0  0  0  0  0  0  0  0  0  0
   11.8487   14.2855   20.5967 H   0  0  0  0  0  0  0  0  0  0  0  0
   11.6144   12.8929   21.4167 H   0  0  0  0  0  0  0  0  0  0  0  0
  1  4  1  0  0  0  0
  1  5  2  0  0  0  0
  2  4  2  0  0  0  0
  2  6  1  0  0  0  0
  3  5  1  0  0  0  0
  3  6  2  0  0  0  0
  4  9  1  0  0  0  0
  5 11  1  0  0  0  0
  6 13  1  0  0  0  0
  7  8  1  0  0  0  0
  7  9  1  0  0  0  0
  8  9  1  0  0  0  0
  9 10  1  0  0  0  0
 10 12  1  0  0  0  0
 11 14  1  0  0  0  0
 11 15  1  0  0  0  0
 11 16  1  0  0  0  0
  1 17  1  0  0  0  0
  2 18  1  0  0  0  0
  3 19  1  0  0  0  0
  7 20  1  0  0  0  0
  7 21  1  0  0  0  0
  8 22  1  0  0  0  0
  8 23  1  0  0  0  0
 10 24  1  0  0  0  0
 10 25  1  0  0  0  0
 12 26  1  0  0  0  0
 12 27  1  0  0  0  0
M  END
> <Catalog ID>
Z1723952047

> <PlateID>
1337959-R-02

> <Well>
A02

> <MW (desalted)>
233.205

> <CLogP>
2.893

> <HBD>
1

> <TPSA>
26.020

> <RotBonds>
3

> <ROCS_ShapeQuery>
x0446_0A_x1080_0A_x0929_0A_x0812_0A_x0719_0A_x1140_0A_x0528_0A_x0310_0A

> <ROCS_TanimotoCombo>
0.289 

> <ROCS_ShapeTanimoto>
0.217 

> <ROCS_ColorTanimoto>
0.072 

> <ROCS_RefTversky>
0.198 

> <ROCS_RefColorTversky>
0.076 

> <ROCS_RefTverskyCombo>
0.274 

> <ROCS_FitTversky>
1.802 

> <ROCS_FitColorTversky>
0.576 

> <ROCS_FitTverskyCombo>
2.378 

> <ROCS_ColorScore>
-2.713

> <ROCS_Overlap>
2333.614

> <ROCS_Rank>
452                 

$$$$
untitled-dbase-618_7
  -OEChem-02082415003D

 36 37  0     0  0  0  0  0  0999 V2000
   12.7575   15.0199   23.1503 C   0  0  0  0  0  0  0  0  0  0  0  0
   12.3874   16.0836   22.3275 C   0  0  0  0  0  0  0  0  0  0  0  0
   12.1025   13.7932   23.0413 C   0  0  0  0  0  0  0  0  0  0  0  0
   11.3622   15.9208   21.3959 C   0  0  0  0  0  0  0  0  0  0  0  0
   11.0772   13.6304   22.1097 C   0  0  0  0  0  0  0  0  0  0  0  0
   10.7070   14.6942   21.2869 C   0  0  0  0  0  0  0  0  0  0  0  0
   10.4114   12.3353   22.0208 C   0  0  0  0  0  0  0  0  0  0  0  0
    9.5848   10.4545   23.5427 C   0  0  0  0  0  0  0  0  0  0  0  0
    9.2540   12.8182   24.1585 C   0  0  0  0  0  0  0  0  0  0  0  0
    8.1423   10.1738   23.9707 C   0  0  0  0  0  0  0  0  0  0  0  0
    7.8155   12.4928   24.5566 C   0  0  0  0  0  0  0  0  0  0  0  0
    6.3428   10.8041   25.4450 C   0  0  0  0  0  0  0  0  0  0  0  0
    8.8342   15.6373   19.9347 C   0  0  0  0  0  0  0  0  0  0  0  0
    9.7632   11.8645   23.1736 N   0  0  0  0  0  0  0  0  0  0  0  0
    7.7110   11.1031   25.0245 N   0  0  0  0  0  0  0  0  0  0  0  0
    9.6700   14.5509   20.3383 N   0  0  0  0  0  0  0  0  0  0  0  0
   10.4426   11.7163   20.9576 O   0  0  0  0  0  0  0  0  0  0  0  0
   13.5562   15.1459   23.8753 H   0  0  0  0  0  0  0  0  0  0  0  0
   12.8972   17.0389   22.4130 H   0  0  0  0  0  0  0  0  0  0  0  0
   12.3998   12.9728   23.6895 H   0  0  0  0  0  0  0  0  0  0  0  0
   11.0827   16.7572   20.7603 H   0  0  0  0  0  0  0  0  0  0  0  0
   10.2762   10.2508   24.3698 H   0  0  0  0  0  0  0  0  0  0  0  0
    9.8563    9.7888   22.7192 H   0  0  0  0  0  0  0  0  0  0  0  0
    9.3099   13.8390   23.7662 H   0  0  0  0  0  0  0  0  0  0  0  0
    9.9169   12.7670   25.0311 H   0  0  0  0  0  0  0  0  0  0  0  0
    7.4814   10.2372   23.0959 H   0  0  0  0  0  0  0  0  0  0  0  0
    8.0917    9.1436   24.3434 H   0  0  0  0  0  0  0  0  0  0  0  0
    7.5193   13.1774   25.3605 H   0  0  0  0  0  0  0  0  0  0  0  0
    7.1447   12.6758   23.7067 H   0  0  0  0  0  0  0  0  0  0  0  0
    6.0384   11.5089   26.2328 H   0  0  0  0  0  0  0  0  0  0  0  0
    5.6651   10.9017   24.5841 H   0  0  0  0  0  0  0  0  0  0  0  0
    6.2953    9.7764   25.8343 H   0  0  0  0  0  0  0  0  0  0  0  0
    9.1349   16.5503   20.4694 H   0  0  0  0  0  0  0  0  0  0  0  0
    8.9374   15.7962   18.8511 H   0  0  0  0  0  0  0  0  0  0  0  0
    7.7864   15.4016   20.1725 H   0  0  0  0  0  0  0  0  0  0  0  0
    9.5363   13.6378   19.9492 H   0  0  0  0  0  0  0  0  0  0  0  0
  1  2  2  0  0  0  0
  1  3  1  0  0  0  0
  2  4  1  0  0  0  0
  3  5  2  0  0  0  0
  4  6  2  0  0  0  0
  5  6  1  0  0  0  0
  5  7  1  0  0  0  0
  6 16  1  0  0  0  0
  7 14  1  0  0  0  0
  7 17  2  0  0  0  0
  8 10  1  0  0  0  0
  8 14  1  0  0  0  0
  9 11  1  0  0  0  0
  9 14  1  0  0  0  0
 10 15  1  0  0  0  0
 11 15  1  0  0  0  0
 12 15  1  0  0  0  0
 13 16  1  0  0  0  0
  1 18  1  0  0  0  0
  2 19  1  0  0  0  0
  3 20  1  0  0  0  0
  4 21  1  0  0  0  0
  8 22  1  0  0  0  0
  8 23  1  0  0  0  0
  9 24  1  0  0  0  0
  9 25  1  0  0  0  0
 10 26  1  0  0  0  0
 10 27  1  0  0  0  0
 11 28  1  0  0  0  0
 11 29  1  0  0  0  0
 12 30  1  0  0  0  0
 12 31  1  0  0  0  0
 12 32  1  0  0  0  0
 13 33  1  0  0  0  0
 13 34  1  0  0  0  0
 13 35  1  0  0  0  0
 16 36  1  0  0  0  0
M  END
> <Catalog ID>
Z805298050

> <PlateID>
1337959-R-14

> <Well>
E10

> <MW (desalted)>
233.309

> <CLogP>
1.264

> <HBD>
1

> <TPSA>
35.580

> <RotBonds>
2

> <ROCS_ShapeQuery>
x0446_0A_x1080_0A_x0929_0A_x0812_0A_x0719_0A_x1140_0A_x0528_0A_x0310_0A

> <ROCS_TanimotoCombo>
0.289 

> <ROCS_ShapeTanimoto>
0.210 

> <ROCS_ColorTanimoto>
0.079 

> <ROCS_RefTversky>
0.193 

> <ROCS_RefColorTversky>
0.087 

> <ROCS_RefTverskyCombo>
0.280 

> <ROCS_FitTversky>
1.713 

> <ROCS_FitColorTversky>
0.468 

> <ROCS_FitTverskyCombo>
2.181 

> <ROCS_ColorScore>
-3.094

> <ROCS_Overlap>
2279.122

> <ROCS_Rank>
453                 

$$$$
untitled-dbase-57_0
  -OEChem-02082415003D

 19 23  0     0  0  0  0  0  0999 V2000
    9.0784   13.7420   22.4361 C   0  0  0  0  0  0  0  0  0  0  0  0
    8.6020   12.4404   24.6452 C   0  0  0  0  0  0  0  0  0  0  0  0
    7.8780   11.4624   22.8423 C   0  0  0  0  0  0  0  0  0  0  0  0
   10.0042   11.4623   23.3007 C   0  0  0  0  0  0  0  0  0  0  0  0
    7.5522   11.3440   24.3495 C   0  0  0  0  0  0  0  0  0  0  0  0
    9.6804   11.3440   24.8080 C   0  0  0  0  0  0  0  0  0  0  0  0
    8.9557   10.3649   23.0037 C   0  0  0  0  0  0  0  0  0  0  0  0
    8.9234   12.5329   23.1540 C   0  0  0  0  0  0  0  0  0  0  0  0
    8.6395   10.3160   24.4702 C   0  0  0  0  0  0  0  0  0  0  0  0
    9.2055   14.7336   21.8473 N   0  0  0  0  0  0  0  0  0  0  0  0
    8.4839    9.1069   25.1873 N   0  0  0  0  0  0  0  0  0  0  0  0
    8.4560   13.2733   25.3218 H   0  0  0  0  0  0  0  0  0  0  0  0
    7.1423   11.4986   22.0488 H   0  0  0  0  0  0  0  0  0  0  0  0
   11.0016   11.4978   22.8807 H   0  0  0  0  0  0  0  0  0  0  0  0
    6.5588   11.2927   24.7762 H   0  0  0  0  0  0  0  0  0  0  0  0
   10.4091   11.2914   25.6063 H   0  0  0  0  0  0  0  0  0  0  0  0
    9.0983    9.5214   22.3412 H   0  0  0  0  0  0  0  0  0  0  0  0
    8.6151    8.3129   24.5806 H   0  0  0  0  0  0  0  0  0  0  0  0
    9.1574    9.0469   25.9347 H   0  0  0  0  0  0  0  0  0  0  0  0
  1  8  1  0  0  0  0
  1 10  3  0  0  0  0
  2  5  1  0  0  0  0
  2  6  1  0  0  0  0
  2  8  1  0  0  0  0
  3  5  1  0  0  0  0
  3  7  1  0  0  0  0
  3  8  1  0  0  0  0
  4  6  1  0  0  0  0
  4  7  1  0  0  0  0
  4  8  1  0  0  0  0
  5  9  1  0  0  0  0
  6  9  1  0  0  0  0
  7  9  1  0  0  0  0
  9 11  1  0  0  0  0
  2 12  1  0  0  0  0
  3 13  1  0  0  0  0
  4 14  1  0  0  0  0
  5 15  1  0  0  0  0
  6 16  1  0  0  0  0
  7 17  1  0  0  0  0
 11 18  1  0  0  0  0
 11 19  1  0  0  0  0
M  END
> <Catalog ID>
Z3759833381

> <PlateID>
1337959-R-02

> <Well>
A05

> <MW (desalted)>
144.173

> <CLogP>
-2.448

> <HBD>
1

> <TPSA>
49.810

> <RotBonds>
0

> <ROCS_ShapeQuery>
x0446_0A_x1080_0A_x0929_0A_x0812_0A_x0719_0A_x1140_0A_x0528_0A_x0310_0A

> <ROCS_TanimotoCombo>
0.289 

> <ROCS_ShapeTanimoto>
0.183 

> <ROCS_ColorTanimoto>
0.106 

> <ROCS_RefTversky>
0.170 

> <ROCS_RefColorTversky>
0.677 

> <ROCS_RefTverskyCombo>
0.847 

> <ROCS_FitTversky>
1.746 

> <ROCS_FitColorTversky>
0.111 

> <ROCS_FitTverskyCombo>
1.857 

> <ROCS_ColorScore>
-35.093

> <ROCS_Overlap>
2004.733

> <ROCS_Rank>
454                 

$$$$
untitled-dbase-23_6
  -OEChem-02082415003D

 22 23  0     0  0  0  0  0  0999 V2000
    9.5027   11.8543   23.5420 C   0  0  0  0  0  0  0  0  0  0  0  0
    8.2601   12.1579   24.0318 C   0  0  0  0  0  0  0  0  0  0  0  0
    9.5330   10.4491   23.5553 C   0  0  0  0  0  0  0  0  0  0  0  0
    6.7640   13.8150   25.4057 C   0  0  0  0  0  0  0  0  0  0  0  0
    6.2090   13.7911   24.0159 C   0  0  0  0  0  0  0  0  0  0  0  0
    7.6877   13.5710   24.2353 C   0  0  0  0  0  0  0  0  0  0  0  0
   10.6284    9.5605   23.1329 C   0  0  0  0  0  0  0  0  0  0  0  0
   10.5603   12.7807   23.1044 C   0  0  0  0  0  0  0  0  0  0  0  0
    8.3961    9.9216   24.0179 N   0  0  0  0  0  0  0  0  0  0  0  0
    7.5901   11.0128   24.3195 O   0  0  0  0  0  0  0  0  0  0  0  0
   10.2768   14.1030   23.5653 O   0  0  0  0  0  0  0  0  0  0  0  0
    6.8314   14.7731   25.9067 H   0  0  0  0  0  0  0  0  0  0  0  0
    6.5195   12.9866   26.0596 H   0  0  0  0  0  0  0  0  0  0  0  0
    5.5924   12.9461   23.7336 H   0  0  0  0  0  0  0  0  0  0  0  0
    5.9019   14.7330   23.5777 H   0  0  0  0  0  0  0  0  0  0  0  0
    8.3556   14.3770   23.9551 H   0  0  0  0  0  0  0  0  0  0  0  0
   11.3086    9.3357   23.9724 H   0  0  0  0  0  0  0  0  0  0  0  0
   10.2566    8.5973   22.7399 H   0  0  0  0  0  0  0  0  0  0  0  0
   11.2356   10.0025   22.3226 H   0  0  0  0  0  0  0  0  0  0  0  0
   11.5556   12.4945   23.4915 H   0  0  0  0  0  0  0  0  0  0  0  0
   10.6515   12.8171   22.0032 H   0  0  0  0  0  0  0  0  0  0  0  0
   11.0013   14.6631   23.2492 H   0  0  0  0  0  0  0  0  0  0  0  0
  1  2  2  0  0  0  0
  1  3  1  0  0  0  0
  1  8  1  0  0  0  0
  2  6  1  0  0  0  0
  2 10  1  0  0  0  0
  3  7  1  0  0  0  0
  3  9  2  0  0  0  0
  4  5  1  0  0  0  0
  4  6  1  0  0  0  0
  5  6  1  0  0  0  0
  8 11  1  0  0  0  0
  9 10  1  0  0  0  0
  4 12  1  0  0  0  0
  4 13  1  0  0  0  0
  5 14  1  0  0  0  0
  5 15  1  0  0  0  0
  6 16  1  0  0  0  0
  7 17  1  0  0  0  0
  7 18  1  0  0  0  0
  7 19  1  0  0  0  0
  8 20  1  0  0  0  0
  8 21  1  0  0  0  0
 11 22  1  0  0  0  0
M  END
> <Catalog ID>
Z1898573978

> <PlateID>
1337959-R-01

> <Well>
D02

> <MW (desalted)>
153.178

> <CLogP>
-0.035

> <HBD>
1

> <TPSA>
46.260

> <RotBonds>
2

> <ROCS_ShapeQuery>
x0446_0A_x1080_0A_x0929_0A_x0812_0A_x0719_0A_x1140_0A_x0528_0A_x0310_0A

> <ROCS_TanimotoCombo>
0.289 

> <ROCS_ShapeTanimoto>
0.186 

> <ROCS_ColorTanimoto>
0.103 

> <ROCS_RefTversky>
0.171 

> <ROCS_RefColorTversky>
0.108 

> <ROCS_RefTverskyCombo>
0.279 

> <ROCS_FitTversky>
1.878 

> <ROCS_FitColorTversky>
0.680 

> <ROCS_FitTverskyCombo>
2.558 

> <ROCS_ColorScore>
-3.849

> <ROCS_Overlap>
2014.725

> <ROCS_Rank>
455                 

$$$$
untitled-dbase-152_1
  -OEChem-02082415003D

 28 30  0     1  0  0  0  0  0999 V2000
    5.6667   12.7298   24.6359 C   0  0  0  0  0  0  0  0  0  0  0  0
    6.7581   13.6107   24.6373 C   0  0  0  0  0  0  0  0  0  0  0  0
    5.8560   11.3655   24.4120 C   0  0  0  0  0  0  0  0  0  0  0  0
    8.0543   13.1407   24.4114 C   0  0  0  0  0  0  0  0  0  0  0  0
    7.1461   10.9063   24.2015 C   0  0  0  0  0  0  0  0  0  0  0  0
    8.2416   11.7831   24.1921 C   0  0  0  0  0  0  0  0  0  0  0  0
    7.5780    9.5017   23.9216 C   0  0  0  0  0  0  0  0  0  0  0  0
    9.0744    9.5905   24.2519 C   0  0  0  0  0  0  0  0  0  0  0  0
   10.7513   11.4915   24.6771 C   0  0  0  0  0  0  0  0  0  0  0  0
   11.5529   12.3394   23.6900 C   0  0  0  0  0  0  0  0  0  0  0  0
    9.9513   11.1834   22.4386 C   0  0  0  0  0  0  0  0  0  0  0  0
    9.5203   11.0268   23.8976 C   0  0  2  0  0  0  0  0  0  0  0  0
   10.7551   12.4058   22.4663 N   0  0  0  0  0  0  0  0  0  0  0  0
    4.6661   13.1137   24.8153 H   0  0  0  0  0  0  0  0  0  0  0  0
    6.5939   14.6688   24.8230 H   0  0  0  0  0  0  0  0  0  0  0  0
    5.0107   10.6860   24.4044 H   0  0  0  0  0  0  0  0  0  0  0  0
    8.8902   13.8317   24.4189 H   0  0  0  0  0  0  0  0  0  0  0  0
    7.0615    8.8066   24.5902 H   0  0  0  0  0  0  0  0  0  0  0  0
    7.4169    9.2130   22.8800 H   0  0  0  0  0  0  0  0  0  0  0  0
    9.2738    9.3089   25.2942 H   0  0  0  0  0  0  0  0  0  0  0  0
    9.6091    8.8619   23.6218 H   0  0  0  0  0  0  0  0  0  0  0  0
   11.3500   10.6538   25.0591 H   0  0  0  0  0  0  0  0  0  0  0  0
   10.4759   12.1112   25.5425 H   0  0  0  0  0  0  0  0  0  0  0  0
   11.7107   13.3447   24.0997 H   0  0  0  0  0  0  0  0  0  0  0  0
   12.5348   11.8993   23.4856 H   0  0  0  0  0  0  0  0  0  0  0  0
   10.5334   10.3317   22.0693 H   0  0  0  0  0  0  0  0  0  0  0  0
    9.0941   11.3186   21.7661 H   0  0  0  0  0  0  0  0  0  0  0  0
   10.1595   13.2337   22.4655 H   0  0  0  0  0  0  0  0  0  0  0  0
  1  2  2  0  0  0  0
  1  3  1  0  0  0  0
  2  4  1  0  0  0  0
  3  5  2  0  0  0  0
  4  6  2  0  0  0  0
  5  6  1  0  0  0  0
  5  7  1  0  0  0  0
  6 12  1  0  0  0  0
  7  8  1  0  0  0  0
  8 12  1  0  0  0  0
  9 10  1  0  0  0  0
  9 12  1  0  0  0  0
 10 13  1  0  0  0  0
 11 12  1  0  0  0  0
 11 13  1  0  0  0  0
  1 14  1  0  0  0  0
  2 15  1  0  0  0  0
  3 16  1  0  0  0  0
  4 17  1  0  0  0  0
  7 18  1  0  0  0  0
  7 19  1  0  0  0  0
  8 20  1  0  0  0  0
  8 21  1  0  0  0  0
  9 22  1  0  0  0  0
  9 23  1  0  0  0  0
 10 24  1  0  0  0  0
 10 25  1  0  0  0  0
 11 26  1  0  0  0  0
 11 27  1  0  0  0  0
 13 28  1  0  0  0  0
M  END
> <Catalog ID>
Z2465863276

> <PlateID>
1337959-R-04

> <Well>
A04

> <MW (desalted)>
173.254

> <CLogP>
2.318

> <HBD>
1

> <TPSA>
12.030

> <RotBonds>
0

> <ROCS_ShapeQuery>
x0446_0A_x1080_0A_x0929_0A_x0812_0A_x0719_0A_x1140_0A_x0528_0A_x0310_0A

> <ROCS_TanimotoCombo>
0.289 

> <ROCS_ShapeTanimoto>
0.187 

> <ROCS_ColorTanimoto>
0.102 

> <ROCS_RefTversky>
0.173 

> <ROCS_RefColorTversky>
0.110 

> <ROCS_RefTverskyCombo>
0.283 

> <ROCS_FitTversky>
1.733 

> <ROCS_FitColorTversky>
0.588 

> <ROCS_FitTverskyCombo>
2.321 

> <ROCS_ColorScore>
-3.897

> <ROCS_Overlap>
2044.198

> <ROCS_Rank>
456                 

$$$$
untitled-dbase-124_0
  -OEChem-02082415003D

 25 26  0     1  0  0  0  0  0999 V2000
    9.6729   12.9873   23.3172 C   0  0  0  0  0  0  0  0  0  0  0  0
    7.4626   11.2575   21.5427 C   0  0  0  0  0  0  0  0  0  0  0  0
    7.3499   12.4404   22.5013 C   0  0  0  0  0  0  0  0  0  0  0  0
    8.8608   10.9699   21.0016 C   0  0  0  0  0  0  0  0  0  0  0  0
    8.3774   11.2271   24.5914 C   0  0  0  0  0  0  0  0  0  0  0  0
    9.8078    9.8433   23.1519 C   0  0  0  0  0  0  0  0  0  0  0  0
    8.2972   12.4822   23.7092 C   0  0  1  0  0  0  0  0  0  0  0  0
   10.0069   10.8587   22.0171 C   0  0  2  0  0  0  0  0  0  0  0  0
   10.4172   12.1617   22.5163 N   0  0  0  0  0  0  0  0  0  0  0  0
    8.5722    9.9519   23.9148 N   0  0  0  0  0  0  0  0  0  0  0  0
   10.0841   14.0833   23.7011 O   0  0  0  0  0  0  0  0  0  0  0  0
    7.0446   10.3573   22.0059 H   0  0  0  0  0  0  0  0  0  0  0  0
    6.8035   11.4521   20.6860 H   0  0  0  0  0  0  0  0  0  0  0  0
    7.4803   13.3630   21.9195 H   0  0  0  0  0  0  0  0  0  0  0  0
    6.3177   12.4649   22.8746 H   0  0  0  0  0  0  0  0  0  0  0  0
    8.8120   10.0317   20.4330 H   0  0  0  0  0  0  0  0  0  0  0  0
    9.1184   11.7432   20.2652 H   0  0  0  0  0  0  0  0  0  0  0  0
    9.1593   11.3559   25.3509 H   0  0  0  0  0  0  0  0  0  0  0  0
    7.4307   11.1505   25.1405 H   0  0  0  0  0  0  0  0  0  0  0  0
    9.8196    8.8413   22.7045 H   0  0  0  0  0  0  0  0  0  0  0  0
   10.6691    9.8721   23.8320 H   0  0  0  0  0  0  0  0  0  0  0  0
    7.9003   13.2737   24.3639 H   0  0  0  0  0  0  0  0  0  0  0  0
   10.8824   10.5142   21.4494 H   0  0  0  0  0  0  0  0  0  0  0  0
   11.3383   12.4925   22.2449 H   0  0  0  0  0  0  0  0  0  0  0  0
    8.5369    9.1997   24.6025 H   0  0  0  0  0  0  0  0  0  0  0  0
  1  7  1  0  0  0  0
  1  9  1  0  0  0  0
  1 11  2  0  0  0  0
  2  3  1  0  0  0  0
  2  4  1  0  0  0  0
  3  7  1  0  0  0  0
  4  8  1  0  0  0  0
  5  7  1  0  0  0  0
  5 10  1  0  0  0  0
  6  8  1  0  0  0  0
  6 10  1  0  0  0  0
  8  9  1  0  0  0  0
  2 12  1  0  0  0  0
  2 13  1  0  0  0  0
  3 14  1  0  0  0  0
  3 15  1  0  0  0  0
  4 16  1  0  0  0  0
  4 17  1  0  0  0  0
  5 18  1  0  0  0  0
  5 19  1  0  0  0  0
  6 20  1  0  0  0  0
  6 21  1  0  0  0  0
  7 22  1  0  0  0  0
  8 23  1  0  0  0  0
  9 24  1  0  0  0  0
 10 25  1  0  0  0  0
M  END
> <Catalog ID>
Z381786102

> <PlateID>
1337959-R-03

> <Well>
E03

> <MW (desalted)>
154.210

> <CLogP>
-0.102

> <HBD>
2

> <TPSA>
41.130

> <RotBonds>
0

> <ROCS_ShapeQuery>
x0446_0A_x1080_0A_x0929_0A_x0812_0A_x0719_0A_x1140_0A_x0528_0A_x0310_0A

> <ROCS_TanimotoCombo>
0.288 

> <ROCS_ShapeTanimoto>
0.159 

> <ROCS_ColorTanimoto>
0.129 

> <ROCS_RefTversky>
0.150 

> <ROCS_RefColorTversky>
0.140 

> <ROCS_RefTverskyCombo>
0.290 

> <ROCS_FitTversky>
1.650 

> <ROCS_FitColorTversky>
0.620 

> <ROCS_FitTverskyCombo>
2.271 

> <ROCS_ColorScore>
-4.994

> <ROCS_Overlap>
1767.582

> <ROCS_Rank>
457                 

$$$$
untitled-dbase-26_0
  -OEChem-02082415003D

 23 24  0     0  0  0  0  0  0999 V2000
    8.0550   10.0562   24.0276 C   0  0  0  0  0  0  0  0  0  0  0  0
    9.9514   11.2245   23.4755 C   0  0  0  0  0  0  0  0  0  0  0  0
    7.3711   11.2116   24.3969 C   0  0  0  0  0  0  0  0  0  0  0  0
    8.0606   12.4291   24.3073 C   0  0  0  0  0  0  0  0  0  0  0  0
    9.3722   12.4338   23.8244 C   0  0  0  0  0  0  0  0  0  0  0  0
    5.9676   11.1250   24.9291 C   0  0  0  0  0  0  0  0  0  0  0  0
    7.3969   13.7353   24.6622 C   0  0  0  0  0  0  0  0  0  0  0  0
    5.2455   12.4719   24.9299 C   0  0  0  0  0  0  0  0  0  0  0  0
    6.1407   13.5581   25.5148 C   0  0  0  0  0  0  0  0  0  0  0  0
    9.3258   10.0323   23.5676 N   0  0  0  0  0  0  0  0  0  0  0  0
   10.1118   13.6235   23.6770 N   0  0  0  0  0  0  0  0  0  0  0  0
    7.5818    9.0809   24.0960 H   0  0  0  0  0  0  0  0  0  0  0  0
   10.9684   11.1738   23.0977 H   0  0  0  0  0  0  0  0  0  0  0  0
    5.3849   10.4119   24.3340 H   0  0  0  0  0  0  0  0  0  0  0  0
    6.0154   10.7393   25.9552 H   0  0  0  0  0  0  0  0  0  0  0  0
    8.0898   14.3807   25.2147 H   0  0  0  0  0  0  0  0  0  0  0  0
    7.1305   14.2489   23.7300 H   0  0  0  0  0  0  0  0  0  0  0  0
    4.9619   12.7440   23.9052 H   0  0  0  0  0  0  0  0  0  0  0  0
    4.3184   12.3925   25.5085 H   0  0  0  0  0  0  0  0  0  0  0  0
    6.4214   13.2882   26.5409 H   0  0  0  0  0  0  0  0  0  0  0  0
    5.5964   14.5073   25.5699 H   0  0  0  0  0  0  0  0  0  0  0  0
   11.0620   13.5741   23.3666 H   0  0  0  0  0  0  0  0  0  0  0  0
    9.7088   14.4903   23.9736 H   0  0  0  0  0  0  0  0  0  0  0  0
  1  3  1  0  0  0  0
  1 10  2  0  0  0  0
  2  5  2  0  0  0  0
  2 10  1  0  0  0  0
  3  4  2  0  0  0  0
  3  6  1  0  0  0  0
  4  5  1  0  0  0  0
  4  7  1  0  0  0  0
  5 11  1  0  0  0  0
  6  8  1  0  0  0  0
  7  9  1  0  0  0  0
  8  9  1  0  0  0  0
  1 12  1  0  0  0  0
  2 13  1  0  0  0  0
  6 14  1  0  0  0  0
  6 15  1  0  0  0  0
  7 16  1  0  0  0  0
  7 17  1  0  0  0  0
  8 18  1  0  0  0  0
  8 19  1  0  0  0  0
  9 20  1  0  0  0  0
  9 21  1  0  0  0  0
 11 22  1  0  0  0  0
 11 23  1  0  0  0  0
M  END
> <Catalog ID>
Z4416006374

> <PlateID>
1337959-R-01

> <Well>
D06

> <MW (desalted)>
148.205

> <CLogP>
1.890

> <HBD>
1

> <TPSA>
38.910

> <RotBonds>
0

> <ROCS_ShapeQuery>
x0446_0A_x1080_0A_x0929_0A_x0812_0A_x0719_0A_x1140_0A_x0528_0A_x0310_0A

> <ROCS_TanimotoCombo>
0.288 

> <ROCS_ShapeTanimoto>
0.176 

> <ROCS_ColorTanimoto>
0.112 

> <ROCS_RefTversky>
0.164 

> <ROCS_RefColorTversky>
0.120 

> <ROCS_RefTverskyCombo>
0.283 

> <ROCS_FitTversky>
1.784 

> <ROCS_FitColorTversky>
0.643 

> <ROCS_FitTverskyCombo>
2.427 

> <ROCS_ColorScore>
-4.254

> <ROCS_Overlap>
1927.654

> <ROCS_Rank>
458                 

$$$$
untitled-dbase-225_36
  -OEChem-02082415003D

 35 36  0     0  0  0  0  0  0999 V2000
   11.0957   12.6946   22.4784 C   0  0  0  0  0  0  0  0  0  0  0  0
   12.0922   15.9786   22.2113 C   0  0  0  0  0  0  0  0  0  0  0  0
   11.5796   15.0571   23.3376 C   0  0  0  0  0  0  0  0  0  0  0  0
   12.0969   14.7342   21.2992 C   0  0  0  0  0  0  0  0  0  0  0  0
    8.6548   12.7318   23.1833 C   0  0  0  0  0  0  0  0  0  0  0  0
    9.9065   10.6134   23.0842 C   0  0  0  0  0  0  0  0  0  0  0  0
    8.0426   12.2772   24.5096 C   0  0  0  0  0  0  0  0  0  0  0  0
    9.2757   10.2024   24.4141 C   0  0  0  0  0  0  0  0  0  0  0  0
   11.0042   14.1430   22.2259 C   0  0  0  0  0  0  0  0  0  0  0  0
    7.3332   10.3887   25.8288 C   0  0  0  0  0  0  0  0  0  0  0  0
    5.8234   10.5018   25.7221 C   0  0  0  0  0  0  0  0  0  0  0  0
    9.9387   12.0679   22.9391 N   0  0  0  0  0  0  0  0  0  0  0  0
    7.9468   10.8113   24.5706 N   0  0  0  0  0  0  0  0  0  0  0  0
   12.1656   12.1134   22.2803 O   0  0  0  0  0  0  0  0  0  0  0  0
    5.4668   11.8582   25.4880 O   0  0  0  0  0  0  0  0  0  0  0  0
   11.3724   16.7474   21.9079 H   0  0  0  0  0  0  0  0  0  0  0  0
   13.0646   16.4463   22.3833 H   0  0  0  0  0  0  0  0  0  0  0  0
   12.3775   14.5994   23.9344 H   0  0  0  0  0  0  0  0  0  0  0  0
   10.8434   15.5040   24.0111 H   0  0  0  0  0  0  0  0  0  0  0  0
   11.7943   14.9100   20.2633 H   0  0  0  0  0  0  0  0  0  0  0  0
   13.0449   14.1833   21.3051 H   0  0  0  0  0  0  0  0  0  0  0  0
    7.9952   12.4718   22.3462 H   0  0  0  0  0  0  0  0  0  0  0  0
    8.7592   13.8186   23.1891 H   0  0  0  0  0  0  0  0  0  0  0  0
   10.9148   10.1940   23.0077 H   0  0  0  0  0  0  0  0  0  0  0  0
    9.3240   10.2177   22.2430 H   0  0  0  0  0  0  0  0  0  0  0  0
    8.6405   12.6676   25.3439 H   0  0  0  0  0  0  0  0  0  0  0  0
    7.0410   12.7162   24.5921 H   0  0  0  0  0  0  0  0  0  0  0  0
    9.1858    9.1094   24.4273 H   0  0  0  0  0  0  0  0  0  0  0  0
    9.9398   10.4859   25.2415 H   0  0  0  0  0  0  0  0  0  0  0  0
   10.0071   14.4306   21.9276 H   0  0  0  0  0  0  0  0  0  0  0  0
    7.7230   11.0236   26.6308 H   0  0  0  0  0  0  0  0  0  0  0  0
    7.6249    9.3515   26.0192 H   0  0  0  0  0  0  0  0  0  0  0  0
    5.3567   10.1869   26.6607 H   0  0  0  0  0  0  0  0  0  0  0  0
    5.4305    9.8883   24.9047 H   0  0  0  0  0  0  0  0  0  0  0  0
    4.4984   11.8860   25.4266 H   0  0  0  0  0  0  0  0  0  0  0  0
  1  9  1  0  0  0  0
  1 12  1  0  0  0  0
  1 14  2  0  0  0  0
  2  3  1  0  0  0  0
  2  4  1  0  0  0  0
  3  9  1  0  0  0  0
  4  9  1  0  0  0  0
  5  7  1  0  0  0  0
  5 12  1  0  0  0  0
  6  8  1  0  0  0  0
  6 12  1  0  0  0  0
  7 13  1  0  0  0  0
  8 13  1  0  0  0  0
 10 11  1  0  0  0  0
 10 13  1  0  0  0  0
 11 15  1  0  0  0  0
  2 16  1  0  0  0  0
  2 17  1  0  0  0  0
  3 18  1  0  0  0  0
  3 19  1  0  0  0  0
  4 20  1  0  0  0  0
  4 21  1  0  0  0  0
  5 22  1  0  0  0  0
  5 23  1  0  0  0  0
  6 24  1  0  0  0  0
  6 25  1  0  0  0  0
  7 26  1  0  0  0  0
  7 27  1  0  0  0  0
  8 28  1  0  0  0  0
  8 29  1  0  0  0  0
  9 30  1  0  0  0  0
 10 31  1  0  0  0  0
 10 32  1  0  0  0  0
 11 33  1  0  0  0  0
 11 34  1  0  0  0  0
 15 35  1  0  0  0  0
M  END
> <Catalog ID>
Z253951148

> <PlateID>
1337959-R-05

> <Well>
E04

> <MW (desalted)>
212.289

> <CLogP>
0.086

> <HBD>
1

> <TPSA>
43.780

> <RotBonds>
3

> <ROCS_ShapeQuery>
x0446_0A_x1080_0A_x0929_0A_x0812_0A_x0719_0A_x1140_0A_x0528_0A_x0310_0A

> <ROCS_TanimotoCombo>
0.288 

> <ROCS_ShapeTanimoto>
0.196 

> <ROCS_ColorTanimoto>
0.092 

> <ROCS_RefTversky>
0.181 

> <ROCS_RefColorTversky>
0.102 

> <ROCS_RefTverskyCombo>
0.283 

> <ROCS_FitTversky>
1.736 

> <ROCS_FitColorTversky>
0.483 

> <ROCS_FitTverskyCombo>
2.220 

> <ROCS_ColorScore>
-3.652

> <ROCS_Overlap>
2129.787

> <ROCS_Rank>
459                 

$$$$
untitled-dbase-660_3
  -OEChem-02082415003D

 28 29  0     1  0  0  0  0  0999 V2000
    9.5048   12.8448   23.4165 C   0  0  0  0  0  0  0  0  0  0  0  0
    8.0623   12.5110   25.4531 C   0  0  0  0  0  0  0  0  0  0  0  0
    7.0309   12.5773   23.1729 C   0  0  0  0  0  0  0  0  0  0  0  0
    8.6172   10.6450   23.7928 C   0  0  0  0  0  0  0  0  0  0  0  0
    6.7358   11.9760   25.9910 C   0  0  0  0  0  0  0  0  0  0  0  0
    5.7273   12.0724   23.7951 C   0  0  0  0  0  0  0  0  0  0  0  0
    9.6832   10.5905   22.7009 C   0  0  1  0  0  0  0  0  0  0  0  0
    8.2724   12.1433   23.9747 C   0  0  0  0  0  0  0  0  0  0  0  0
    9.1453   10.1941   21.3342 C   0  0  0  0  0  0  0  0  0  0  0  0
   10.2373   11.9178   22.6898 N   0  0  0  0  0  0  0  0  0  0  0  0
    5.6093   12.4662   25.1981 N   0  0  0  0  0  0  0  0  0  0  0  0
    9.7781   14.0281   23.5608 O   0  0  0  0  0  0  0  0  0  0  0  0
    8.0844   13.5954   25.5995 H   0  0  0  0  0  0  0  0  0  0  0  0
    8.8769   12.0915   26.0545 H   0  0  0  0  0  0  0  0  0  0  0  0
    7.1076   12.1843   22.1547 H   0  0  0  0  0  0  0  0  0  0  0  0
    6.9881   13.6666   23.0977 H   0  0  0  0  0  0  0  0  0  0  0  0
    7.7197   10.0842   23.4767 H   0  0  0  0  0  0  0  0  0  0  0  0
    8.9685   10.1764   24.7262 H   0  0  0  0  0  0  0  0  0  0  0  0
    6.7446   10.8818   25.9511 H   0  0  0  0  0  0  0  0  0  0  0  0
    6.6025   12.2478   27.0434 H   0  0  0  0  0  0  0  0  0  0  0  0
    4.8591   12.4319   23.2320 H   0  0  0  0  0  0  0  0  0  0  0  0
    5.6995   10.9788   23.7330 H   0  0  0  0  0  0  0  0  0  0  0  0
   10.4991    9.9049   22.9835 H   0  0  0  0  0  0  0  0  0  0  0  0
    8.3351   10.8635   21.0375 H   0  0  0  0  0  0  0  0  0  0  0  0
    8.7617    9.1720   21.3602 H   0  0  0  0  0  0  0  0  0  0  0  0
    9.9373   10.2509   20.5845 H   0  0  0  0  0  0  0  0  0  0  0  0
   11.0974   12.1557   22.1887 H   0  0  0  0  0  0  0  0  0  0  0  0
    4.7429   12.0811   25.5791 H   0  0  0  0  0  0  0  0  0  0  0  0
  1  8  1  0  0  0  0
  1 10  1  0  0  0  0
  1 12  2  0  0  0  0
  2  5  1  0  0  0  0
  2  8  1  0  0  0  0
  3  6  1  0  0  0  0
  3  8  1  0  0  0  0
  4  7  1  0  0  0  0
  4  8  1  0  0  0  0
  5 11  1  0  0  0  0
  6 11  1  0  0  0  0
  7  9  1  6  0  0  0
  7 10  1  0  0  0  0
  2 13  1  0  0  0  0
  2 14  1  0  0  0  0
  3 15  1  0  0  0  0
  3 16  1  0  0  0  0
  4 17  1  0  0  0  0
  4 18  1  0  0  0  0
  5 19  1  0  0  0  0
  5 20  1  0  0  0  0
  6 21  1  0  0  0  0
  6 22  1  0  0  0  0
  7 23  1  0  0  0  0
  9 24  1  0  0  0  0
  9 25  1  0  0  0  0
  9 26  1  0  0  0  0
 10 27  1  0  0  0  0
 11 28  1  0  0  0  0
M  END
> <Catalog ID>
Z4439444787

> <PlateID>
1337959-R-15

> <Well>
D09

> <MW (desalted)>
168.236

> <CLogP>
-0.882

> <HBD>
2

> <TPSA>
41.130

> <RotBonds>
0

> <ROCS_ShapeQuery>
x0446_0A_x1080_0A_x0929_0A_x0812_0A_x0719_0A_x1140_0A_x0528_0A_x0310_0A

> <ROCS_TanimotoCombo>
0.287 

> <ROCS_ShapeTanimoto>
0.175 

> <ROCS_ColorTanimoto>
0.112 

> <ROCS_RefTversky>
0.163 

> <ROCS_RefColorTversky>
0.122 

> <ROCS_RefTverskyCombo>
0.285 

> <ROCS_FitTversky>
1.725 

> <ROCS_FitColorTversky>
0.576 

> <ROCS_FitTverskyCombo>
2.301 

> <ROCS_ColorScore>
-4.357

> <ROCS_Overlap>
1921.632

> <ROCS_Rank>
460                 

$$$$
untitled-dbase-135_8
  -OEChem-02082415003D

 28 29  0     0  0  0  0  0  0999 V2000
    9.1822    9.9662   24.9057 C   0  0  0  0  0  0  0  0  0  0  0  0
    8.7325   11.1522   25.4859 C   0  0  0  0  0  0  0  0  0  0  0  0
    9.3586    9.8887   23.5242 C   0  0  0  0  0  0  0  0  0  0  0  0
    8.4592   12.2608   24.6847 C   0  0  0  0  0  0  0  0  0  0  0  0
    9.0853   10.9973   22.7229 C   0  0  0  0  0  0  0  0  0  0  0  0
    8.6356   12.1833   23.3031 C   0  0  0  0  0  0  0  0  0  0  0  0
    6.8406   13.8414   22.5593 C   0  0  0  0  0  0  0  0  0  0  0  0
    4.5898   14.4415   22.1844 C   0  0  0  0  0  0  0  0  0  0  0  0
    8.5836   13.1616   20.8984 C   0  0  0  0  0  0  0  0  0  0  0  0
    9.3291   14.5370   22.8156 C   0  0  0  0  0  0  0  0  0  0  0  0
    8.3433   13.3682   22.4457 C   0  0  0  0  0  0  0  0  0  0  0  0
    6.2509   14.2388   23.6666 N   0  0  0  0  0  0  0  0  0  0  0  0
    4.9303   14.5899   23.4469 N   0  0  0  0  0  0  0  0  0  0  0  0
    3.3612   14.7076   21.6714 N   0  0  0  0  0  0  0  0  0  0  0  0
    5.8423   13.8643   21.1648 S   0  0  0  0  0  0  0  0  0  0  0  0
    9.3962    9.1035   25.5299 H   0  0  0  0  0  0  0  0  0  0  0  0
    8.5961   11.2131   26.5617 H   0  0  0  0  0  0  0  0  0  0  0  0
    9.7098    8.9658   23.0723 H   0  0  0  0  0  0  0  0  0  0  0  0
    8.1090   13.1807   25.1455 H   0  0  0  0  0  0  0  0  0  0  0  0
    9.2256   10.9276   21.6475 H   0  0  0  0  0  0  0  0  0  0  0  0
    8.3456   14.0772   20.3438 H   0  0  0  0  0  0  0  0  0  0  0  0
    9.6300   12.9096   20.6902 H   0  0  0  0  0  0  0  0  0  0  0  0
    7.9706   12.3575   20.4717 H   0  0  0  0  0  0  0  0  0  0  0  0
    9.1175   15.4110   22.1869 H   0  0  0  0  0  0  0  0  0  0  0  0
    9.2575   14.8655   23.8593 H   0  0  0  0  0  0  0  0  0  0  0  0
   10.3713   14.2538   22.6274 H   0  0  0  0  0  0  0  0  0  0  0  0
    2.5806   15.0086   22.2664 H   0  0  0  0  0  0  0  0  0  0  0  0
    3.1370   14.5287   20.6856 H   0  0  0  0  0  0  0  0  0  0  0  0
  1  2  2  0  0  0  0
  1  3  1  0  0  0  0
  2  4  1  0  0  0  0
  3  5  2  0  0  0  0
  4  6  2  0  0  0  0
  5  6  1  0  0  0  0
  6 11  1  0  0  0  0
  7 11  1  0  0  0  0
  7 12  2  0  0  0  0
  7 15  1  0  0  0  0
  8 13  2  0  0  0  0
  8 14  1  0  0  0  0
  8 15  1  0  0  0  0
  9 11  1  0  0  0  0
 10 11  1  0  0  0  0
 12 13  1  0  0  0  0
  1 16  1  0  0  0  0
  2 17  1  0  0  0  0
  3 18  1  0  0  0  0
  4 19  1  0  0  0  0
  5 20  1  0  0  0  0
  9 21  1  0  0  0  0
  9 22  1  0  0  0  0
  9 23  1  0  0  0  0
 10 24  1  0  0  0  0
 10 25  1  0  0  0  0
 10 26  1  0  0  0  0
 14 27  1  0  0  0  0
 14 28  1  0  0  0  0
M  END
> <Catalog ID>
Z445126272

> <PlateID>
1337959-R-03

> <Well>
F08

> <MW (desalted)>
219.306

> <CLogP>
2.409

> <HBD>
1

> <TPSA>
51.800

> <RotBonds>
2

> <ROCS_ShapeQuery>
x0446_0A_x1080_0A_x0929_0A_x0812_0A_x0719_0A_x1140_0A_x0528_0A_x0310_0A

> <ROCS_TanimotoCombo>
0.287 

> <ROCS_ShapeTanimoto>
0.165 

> <ROCS_ColorTanimoto>
0.122 

> <ROCS_RefTversky>
0.156 

> <ROCS_RefColorTversky>
0.136 

> <ROCS_RefTverskyCombo>
0.292 

> <ROCS_FitTversky>
1.492 

> <ROCS_FitColorTversky>
0.551 

> <ROCS_FitTverskyCombo>
2.043 

> <ROCS_ColorScore>
-4.843

> <ROCS_Overlap>
1842.935

> <ROCS_Rank>
461                 

$$$$
untitled-dbase-493_2
  -OEChem-02082415003D

 26 26  0     0  0  0  0  0  0999 V2000
    7.7207   10.0644   23.9781 C   0  0  0  0  0  0  0  0  0  0  0  0
    8.9777    9.6473   24.4155 C   0  0  0  0  0  0  0  0  0  0  0  0
    7.5461   11.3599   23.4912 C   0  0  0  0  0  0  0  0  0  0  0  0
   10.0602   10.5256   24.3663 C   0  0  0  0  0  0  0  0  0  0  0  0
    8.6285   12.2382   23.4419 C   0  0  0  0  0  0  0  0  0  0  0  0
    9.8856   11.8211   23.8795 C   0  0  0  0  0  0  0  0  0  0  0  0
    7.0699   13.8710   26.3699 C   0  0  0  0  0  0  0  0  0  0  0  0
    8.0204   16.1358   25.8104 C   0  0  0  0  0  0  0  0  0  0  0  0
    7.9529   14.6667   25.4197 C   0  0  0  0  0  0  0  0  0  0  0  0
    7.4066   14.5600   24.0448 N   0  0  0  0  0  0  0  0  0  0  0  0
    9.6276   14.5456   22.7433 O   0  0  0  0  0  0  0  0  0  0  0  0
    7.5302   13.7255   21.6240 O   0  0  0  0  0  0  0  0  0  0  0  0
    8.3478   13.8665   22.8136 S   0  0  0  0  0  0  0  0  0  0  0  0
   11.2579   12.8688   23.8399 Cl  0  0  0  0  0  0  0  0  0  0  0  0
    6.8781    9.3802   24.0157 H   0  0  0  0  0  0  0  0  0  0  0  0
    9.1137    8.6385   24.7940 H   0  0  0  0  0  0  0  0  0  0  0  0
    6.5613   11.6714   23.1531 H   0  0  0  0  0  0  0  0  0  0  0  0
   11.0329   10.1840   24.7111 H   0  0  0  0  0  0  0  0  0  0  0  0
    6.0533   14.2770   26.3898 H   0  0  0  0  0  0  0  0  0  0  0  0
    7.0111   12.8176   26.0738 H   0  0  0  0  0  0  0  0  0  0  0  0
    7.4682   13.9041   27.3900 H   0  0  0  0  0  0  0  0  0  0  0  0
    7.0195   16.5812   25.8208 H   0  0  0  0  0  0  0  0  0  0  0  0
    8.6351   16.7001   25.1014 H   0  0  0  0  0  0  0  0  0  0  0  0
    8.4482   16.2648   26.8110 H   0  0  0  0  0  0  0  0  0  0  0  0
    8.9633   14.2434   25.4160 H   0  0  0  0  0  0  0  0  0  0  0  0
    6.3875   14.5305   23.9803 H   0  0  0  0  0  0  0  0  0  0  0  0
  1  2  2  0  0  0  0
  1  3  1  0  0  0  0
  2  4  1  0  0  0  0
  3  5  2  0  0  0  0
  4  6  2  0  0  0  0
  5  6  1  0  0  0  0
  5 13  1  0  0  0  0
  6 14  1  0  0  0  0
  7  9  1  0  0  0  0
  8  9  1  0  0  0  0
  9 10  1  0  0  0  0
 10 13  1  0  0  0  0
 11 13  2  0  0  0  0
 12 13  2  0  0  0  0
  1 15  1  0  0  0  0
  2 16  1  0  0  0  0
  3 17  1  0  0  0  0
  4 18  1  0  0  0  0
  7 19  1  0  0  0  0
  7 20  1  0  0  0  0
  7 21  1  0  0  0  0
  8 22  1  0  0  0  0
  8 23  1  0  0  0  0
  8 24  1  0  0  0  0
  9 25  1  0  0  0  0
 10 26  1  0  0  0  0
M  END
> <Catalog ID>
Z45497656

> <PlateID>
1337959-R-11

> <Well>
G03

> <MW (desalted)>
233.715

> <CLogP>
2.474

> <HBD>
1

> <TPSA>
46.170

> <RotBonds>
2

> <ROCS_ShapeQuery>
x0446_0A_x1080_0A_x0929_0A_x0812_0A_x0719_0A_x1140_0A_x0528_0A_x0310_0A

> <ROCS_TanimotoCombo>
0.287 

> <ROCS_ShapeTanimoto>
0.172 

> <ROCS_ColorTanimoto>
0.114 

> <ROCS_RefTversky>
0.162 

> <ROCS_RefColorTversky>
0.122 

> <ROCS_RefTverskyCombo>
0.283 

> <ROCS_FitTversky>
1.645 

> <ROCS_FitColorTversky>
0.655 

> <ROCS_FitTverskyCombo>
2.300 

> <ROCS_ColorScore>
-4.332

> <ROCS_Overlap>
1904.798

> <ROCS_Rank>
462                 

$$$$
untitled-dbase-478_21
  -OEChem-02082415003D

 27 27  0     0  0  0  0  0  0999 V2000
    8.4817   10.0287   23.8907 C   0  0  0  0  0  0  0  0  0  0  0  0
    9.7964   10.2636   23.4885 C   0  0  0  0  0  0  0  0  0  0  0  0
    8.1159   12.4089   24.0855 C   0  0  0  0  0  0  0  0  0  0  0  0
    9.4307   12.6439   23.6833 C   0  0  0  0  0  0  0  0  0  0  0  0
    7.6414   11.1014   24.1891 C   0  0  0  0  0  0  0  0  0  0  0  0
   10.2710   11.5712   23.3848 C   0  0  0  0  0  0  0  0  0  0  0  0
    8.2234   14.6067   21.9852 C   0  0  0  0  0  0  0  0  0  0  0  0
    4.7352   12.0722   22.5915 C   0  0  0  0  0  0  0  0  0  0  0  0
    9.6967   14.5829   22.3322 C   0  0  0  0  0  0  0  0  0  0  0  0
    5.1537   10.8015   23.2005 N   0  0  0  0  0  0  0  0  0  0  0  0
    5.9130    9.4748   25.2741 O   0  0  0  0  0  0  0  0  0  0  0  0
    5.5537   11.9563   25.4675 O   0  0  0  0  0  0  0  0  0  0  0  0
    9.8673   13.9318   23.5892 O   0  0  0  0  0  0  0  0  0  0  0  0
    5.9945   10.8068   24.6885 S   0  0  0  0  0  0  0  0  0  0  0  0
   11.9015   11.8324   22.8859 Cl  0  0  0  0  0  0  0  0  0  0  0  0
    8.1211    9.0064   23.9669 H   0  0  0  0  0  0  0  0  0  0  0  0
   10.4381    9.4169   23.2580 H   0  0  0  0  0  0  0  0  0  0  0  0
    7.4635   13.2475   24.3164 H   0  0  0  0  0  0  0  0  0  0  0  0
    7.8239   13.5916   21.9094 H   0  0  0  0  0  0  0  0  0  0  0  0
    7.6565   15.1539   22.7456 H   0  0  0  0  0  0  0  0  0  0  0  0
    8.0595   15.1228   21.0334 H   0  0  0  0  0  0  0  0  0  0  0  0
    5.4035   12.8784   22.9282 H   0  0  0  0  0  0  0  0  0  0  0  0
    4.7858   11.9878   21.4959 H   0  0  0  0  0  0  0  0  0  0  0  0
    3.7028   12.3013   22.8943 H   0  0  0  0  0  0  0  0  0  0  0  0
   10.0900   15.6011   22.4065 H   0  0  0  0  0  0  0  0  0  0  0  0
   10.2615   14.0351   21.5720 H   0  0  0  0  0  0  0  0  0  0  0  0
    4.5939    9.9767   22.9519 H   0  0  0  0  0  0  0  0  0  0  0  0
  1  2  1  0  0  0  0
  1  5  2  0  0  0  0
  2  6  2  0  0  0  0
  3  4  2  0  0  0  0
  3  5  1  0  0  0  0
  4  6  1  0  0  0  0
  4 13  1  0  0  0  0
  5 14  1  0  0  0  0
  6 15  1  0  0  0  0
  7  9  1  0  0  0  0
  8 10  1  0  0  0  0
  9 13  1  0  0  0  0
 10 14  1  0  0  0  0
 11 14  2  0  0  0  0
 12 14  2  0  0  0  0
  1 16  1  0  0  0  0
  2 17  1  0  0  0  0
  3 18  1  0  0  0  0
  7 19  1  0  0  0  0
  7 20  1  0  0  0  0
  7 21  1  0  0  0  0
  8 22  1  0  0  0  0
  8 23  1  0  0  0  0
  8 24  1  0  0  0  0
  9 25  1  0  0  0  0
  9 26  1  0  0  0  0
 10 27  1  0  0  0  0
M  END
> <Catalog ID>
Z1347206079

> <PlateID>
1337959-R-11

> <Well>
D11

> <MW (desalted)>
249.714

> <CLogP>
2.408

> <HBD>
1

> <TPSA>
55.400

> <RotBonds>
3

> <ROCS_ShapeQuery>
x0446_0A_x1080_0A_x0929_0A_x0812_0A_x0719_0A_x1140_0A_x0528_0A_x0310_0A

> <ROCS_TanimotoCombo>
0.287 

> <ROCS_ShapeTanimoto>
0.187 

> <ROCS_ColorTanimoto>
0.100 

> <ROCS_RefTversky>
0.173 

> <ROCS_RefColorTversky>
0.108 

> <ROCS_RefTverskyCombo>
0.281 

> <ROCS_FitTversky>
1.702 

> <ROCS_FitColorTversky>
0.579 

> <ROCS_FitTverskyCombo>
2.281 

> <ROCS_ColorScore>
-3.827

> <ROCS_Overlap>
2046.002

> <ROCS_Rank>
463                 

$$$$
untitled-dbase-408_0
  -OEChem-02082415003D

 35 36  0     1  0  0  0  0  0999 V2000
    7.6974    9.7497   25.8292 C   0  0  0  0  0  0  0  0  0  0  0  0
    7.5566   11.6804   24.3349 C   0  0  0  0  0  0  0  0  0  0  0  0
    8.1108   12.4889   23.3426 C   0  0  0  0  0  0  0  0  0  0  0  0
    9.5277   10.2838   24.2978 C   0  0  0  0  0  0  0  0  0  0  0  0
    8.2651   10.5779   24.8126 C   0  0  0  0  0  0  0  0  0  0  0  0
    9.3734   12.1949   22.8278 C   0  0  0  0  0  0  0  0  0  0  0  0
   10.0818   11.0923   23.3054 C   0  0  0  0  0  0  0  0  0  0  0  0
   10.4040   15.1064   22.9492 C   0  0  0  0  0  0  0  0  0  0  0  0
   11.4685   15.9980   23.5742 C   0  0  0  0  0  0  0  0  0  0  0  0
   13.0705   15.2584   22.0360 C   0  0  0  0  0  0  0  0  0  0  0  0
   12.0671   14.3269   21.3122 C   0  0  0  0  0  0  0  0  0  0  0  0
   12.8562   13.0818   20.8542 C   0  0  0  0  0  0  0  0  0  0  0  0
   11.5197   15.0464   20.0593 C   0  0  0  0  0  0  0  0  0  0  0  0
    9.9669   13.0672   21.7597 C   0  0  0  0  0  0  0  0  0  0  0  0
    7.2363    9.0771   26.6550 N   0  0  0  0  0  0  0  0  0  0  0  0
   11.0134   13.9427   22.2869 N   0  0  2  0  0  0  0  0  0  0  0  0
   12.4158   16.3999   22.5890 O   0  0  0  0  0  0  0  0  0  0  0  0
   11.2958   10.8019   22.8168 F   0  0  0  0  0  0  0  0  0  0  0  0
    6.5714   11.9225   24.7263 H   0  0  0  0  0  0  0  0  0  0  0  0
    7.5516   13.3459   22.9765 H   0  0  0  0  0  0  0  0  0  0  0  0
   10.0923    9.4280   24.6598 H   0  0  0  0  0  0  0  0  0  0  0  0
    9.7239   14.7751   23.7432 H   0  0  0  0  0  0  0  0  0  0  0  0
    9.8115   15.6892   22.2337 H   0  0  0  0  0  0  0  0  0  0  0  0
   11.0050   16.9024   23.9815 H   0  0  0  0  0  0  0  0  0  0  0  0
   11.9855   15.4925   24.3990 H   0  0  0  0  0  0  0  0  0  0  0  0
   13.6076   14.7320   22.8364 H   0  0  0  0  0  0  0  0  0  0  0  0
   13.8288   15.6276   21.3357 H   0  0  0  0  0  0  0  0  0  0  0  0
   12.1824   12.4057   20.3419 H   0  0  0  0  0  0  0  0  0  0  0  0
   13.2795   12.5930   21.7234 H   0  0  0  0  0  0  0  0  0  0  0  0
   13.6479   13.3930   20.1832 H   0  0  0  0  0  0  0  0  0  0  0  0
   10.8188   14.3919   19.5564 H   0  0  0  0  0  0  0  0  0  0  0  0
   12.3460   15.2810   19.3999 H   0  0  0  0  0  0  0  0  0  0  0  0
   11.0210   15.9571   20.3670 H   0  0  0  0  0  0  0  0  0  0  0  0
   10.4070   12.4572   20.9633 H   0  0  0  0  0  0  0  0  0  0  0  0
    9.2014   13.7004   21.2990 H   0  0  0  0  0  0  0  0  0  0  0  0
  1  5  1  0  0  0  0
  1 15  3  0  0  0  0
  2  3  1  0  0  0  0
  2  5  2  0  0  0  0
  3  6  2  0  0  0  0
  4  5  1  0  0  0  0
  4  7  2  0  0  0  0
  6  7  1  0  0  0  0
  6 14  1  0  0  0  0
  7 18  1  0  0  0  0
  8  9  1  0  0  0  0
  8 16  1  0  0  0  0
  9 17  1  0  0  0  0
 10 11  1  0  0  0  0
 10 17  1  0  0  0  0
 11 12  1  0  0  0  0
 11 13  1  0  0  0  0
 11 16  1  0  0  0  0
 14 16  1  0  0  0  0
  2 19  1  0  0  0  0
  3 20  1  0  0  0  0
  4 21  1  0  0  0  0
  8 22  1  0  0  0  0
  8 23  1  0  0  0  0
  9 24  1  0  0  0  0
  9 25  1  0  0  0  0
 10 26  1  0  0  0  0
 10 27  1  0  0  0  0
 12 28  1  0  0  0  0
 12 29  1  0  0  0  0
 12 30  1  0  0  0  0
 13 31  1  0  0  0  0
 13 32  1  0  0  0  0
 13 33  1  0  0  0  0
 14 34  1  0  0  0  0
 14 35  1  0  0  0  0
M  END
> <Catalog ID>
Z818827752

> <PlateID>
1337959-R-09

> <Well>
F07

> <MW (desalted)>
248.296

> <CLogP>
2.503

> <HBD>
0

> <TPSA>
36.260

> <RotBonds>
2

> <ROCS_ShapeQuery>
x0446_0A_x1080_0A_x0929_0A_x0812_0A_x0719_0A_x1140_0A_x0528_0A_x0310_0A

> <ROCS_TanimotoCombo>
0.286 

> <ROCS_ShapeTanimoto>
0.195 

> <ROCS_ColorTanimoto>
0.091 

> <ROCS_RefTversky>
0.182 

> <ROCS_RefColorTversky>
0.102 

> <ROCS_RefTverskyCombo>
0.284 

> <ROCS_FitTversky>
1.567 

> <ROCS_FitColorTversky>
0.479 

> <ROCS_FitTverskyCombo>
2.046 

> <ROCS_ColorScore>
-3.620

> <ROCS_Overlap>
2149.887

> <ROCS_Rank>
464                 

$$$$
untitled-dbase-370_1
  -OEChem-02082415003D

 21 21  0     0  0  0  0  0  0999 V2000
    9.4303   10.3165   23.6758 C   0  0  0  0  0  0  0  0  0  0  0  0
   10.1279   11.5186   23.5583 C   0  0  0  0  0  0  0  0  0  0  0  0
    8.0657   10.3274   23.9648 C   0  0  0  0  0  0  0  0  0  0  0  0
    8.0965   12.7426   24.0190 C   0  0  0  0  0  0  0  0  0  0  0  0
    9.4611   12.7316   23.7299 C   0  0  0  0  0  0  0  0  0  0  0  0
    7.3989   11.5405   24.1365 C   0  0  0  0  0  0  0  0  0  0  0  0
    7.3696   14.0336   24.2052 C   0  0  0  0  0  0  0  0  0  0  0  0
   11.2732   13.9031   22.7292 C   0  0  0  0  0  0  0  0  0  0  0  0
    6.5526   14.3691   23.0676 N   0  0  0  0  0  0  0  0  0  0  0  0
   10.1579   13.8965   23.6113 O   0  0  0  0  0  0  0  0  0  0  0  0
    6.0875   11.5402   24.4143 F   0  0  0  0  0  0  0  0  0  0  0  0
   11.3997   15.1637   22.2402 F   0  0  0  0  0  0  0  0  0  0  0  0
   12.4016   13.6489   23.4363 F   0  0  0  0  0  0  0  0  0  0  0  0
    9.9494    9.3719   23.5421 H   0  0  0  0  0  0  0  0  0  0  0  0
   11.1909   11.5029   23.3330 H   0  0  0  0  0  0  0  0  0  0  0  0
    7.5224    9.3916   24.0562 H   0  0  0  0  0  0  0  0  0  0  0  0
    6.7126   13.9928   25.0844 H   0  0  0  0  0  0  0  0  0  0  0  0
    8.0665   14.8667   24.3667 H   0  0  0  0  0  0  0  0  0  0  0  0
   11.1673   13.2106   21.8873 H   0  0  0  0  0  0  0  0  0  0  0  0
    6.8802   15.2229   22.6654 H   0  0  0  0  0  0  0  0  0  0  0  0
    6.6105   13.6358   22.3916 H   0  0  0  0  0  0  0  0  0  0  0  0
  1  2  1  0  0  0  0
  1  3  2  0  0  0  0
  2  5  2  0  0  0  0
  3  6  1  0  0  0  0
  4  5  1  0  0  0  0
  4  6  2  0  0  0  0
  4  7  1  0  0  0  0
  5 10  1  0  0  0  0
  6 11  1  0  0  0  0
  7  9  1  0  0  0  0
  8 10  1  0  0  0  0
  8 12  1  0  0  0  0
  8 13  1  0  0  0  0
  1 14  1  0  0  0  0
  2 15  1  0  0  0  0
  3 16  1  0  0  0  0
  7 17  1  0  0  0  0
  7 18  1  0  0  0  0
  8 19  1  0  0  0  0
  9 20  1  0  0  0  0
  9 21  1  0  0  0  0
M  END
> <Catalog ID>
Z1281387879

> <PlateID>
1337959-R-09

> <Well>
A04

> <MW (desalted)>
191.150

> <CLogP>
1.742

> <HBD>
1

> <TPSA>
35.250

> <RotBonds>
3

> <ROCS_ShapeQuery>
x0446_0A_x1080_0A_x0929_0A_x0812_0A_x0719_0A_x1140_0A_x0528_0A_x0310_0A

> <ROCS_TanimotoCombo>
0.286 

> <ROCS_ShapeTanimoto>
0.207 

> <ROCS_ColorTanimoto>
0.080 

> <ROCS_RefTversky>
0.188 

> <ROCS_RefColorTversky>
0.085 

> <ROCS_RefTverskyCombo>
0.274 

> <ROCS_FitTversky>
1.913 

> <ROCS_FitColorTversky>
0.537 

> <ROCS_FitTverskyCombo>
2.450 

> <ROCS_ColorScore>
-3.037

> <ROCS_Overlap>
2219.725

> <ROCS_Rank>
465                 

$$$$
untitled-dbase-259_2
  -OEChem-02082415003D

 25 26  0     0  0  0  0  0  0999 V2000
    5.8179   12.8690   25.1273 C   0  0  0  0  0  0  0  0  0  0  0  0
    7.0210   12.2285   25.8432 C   0  0  0  0  0  0  0  0  0  0  0  0
    6.1121   11.9503   23.9275 C   0  0  0  0  0  0  0  0  0  0  0  0
   10.2024   10.3289   23.2089 C   0  0  0  0  0  0  0  0  0  0  0  0
    8.1237   10.3847   24.4488 C   0  0  0  0  0  0  0  0  0  0  0  0
   10.5149   11.8178   23.1026 C   0  0  0  0  0  0  0  0  0  0  0  0
    8.5151   12.8687   23.8198 C   0  0  0  0  0  0  0  0  0  0  0  0
    7.5840   11.8204   24.4431 C   0  0  0  0  0  0  0  0  0  0  0  0
    8.7698   10.0125   23.1847 N   0  0  0  0  0  0  0  0  0  0  0  0
    9.8821   12.5863   24.1240 O   0  0  0  0  0  0  0  0  0  0  0  0
    4.8563   12.6706   25.6122 H   0  0  0  0  0  0  0  0  0  0  0  0
    5.9002   13.9409   24.9329 H   0  0  0  0  0  0  0  0  0  0  0  0
    7.6344   12.9591   26.3845 H   0  0  0  0  0  0  0  0  0  0  0  0
    6.7761   11.4106   26.5268 H   0  0  0  0  0  0  0  0  0  0  0  0
    5.5261   11.0279   23.8908 H   0  0  0  0  0  0  0  0  0  0  0  0
    6.0074   12.4618   22.9635 H   0  0  0  0  0  0  0  0  0  0  0  0
   10.7413    9.7649   22.4312 H   0  0  0  0  0  0  0  0  0  0  0  0
   10.6252    9.9658   24.1582 H   0  0  0  0  0  0  0  0  0  0  0  0
    8.8738   10.2727   25.2392 H   0  0  0  0  0  0  0  0  0  0  0  0
    7.3252    9.6751   24.6941 H   0  0  0  0  0  0  0  0  0  0  0  0
   11.5799   11.9763   23.2127 H   0  0  0  0  0  0  0  0  0  0  0  0
   10.2050   12.1969   22.1383 H   0  0  0  0  0  0  0  0  0  0  0  0
    8.3558   12.9799   22.7314 H   0  0  0  0  0  0  0  0  0  0  0  0
    8.3097   13.8629   24.2524 H   0  0  0  0  0  0  0  0  0  0  0  0
    8.3404   10.5679   22.4446 H   0  0  0  0  0  0  0  0  0  0  0  0
  1  2  1  0  0  0  0
  1  3  1  0  0  0  0
  2  8  1  0  0  0  0
  3  8  1  0  0  0  0
  4  6  1  0  0  0  0
  4  9  1  0  0  0  0
  5  8  1  0  0  0  0
  5  9  1  0  0  0  0
  6 10  1  0  0  0  0
  7  8  1  0  0  0  0
  7 10  1  0  0  0  0
  1 11  1  0  0  0  0
  1 12  1  0  0  0  0
  2 13  1  0  0  0  0
  2 14  1  0  0  0  0
  3 15  1  0  0  0  0
  3 16  1  0  0  0  0
  4 17  1  0  0  0  0
  4 18  1  0  0  0  0
  5 19  1  0  0  0  0
  5 20  1  0  0  0  0
  6 21  1  0  0  0  0
  6 22  1  0  0  0  0
  7 23  1  0  0  0  0
  7 24  1  0  0  0  0
  9 25  1  0  0  0  0
M  END
> <Catalog ID>
Z1665187180

> <PlateID>
1337959-R-06

> <Well>
D02

> <MW (desalted)>
141.211

> <CLogP>
0.848

> <HBD>
1

> <TPSA>
21.260

> <RotBonds>
0

> <ROCS_ShapeQuery>
x0446_0A_x1080_0A_x0929_0A_x0812_0A_x0719_0A_x1140_0A_x0528_0A_x0310_0A

> <ROCS_TanimotoCombo>
0.286 

> <ROCS_ShapeTanimoto>
0.162 

> <ROCS_ColorTanimoto>
0.124 

> <ROCS_RefTversky>
0.152 

> <ROCS_RefColorTversky>
0.131 

> <ROCS_RefTverskyCombo>
0.283 

> <ROCS_FitTversky>
1.749 

> <ROCS_FitColorTversky>
0.705 

> <ROCS_FitTverskyCombo>
2.454 

> <ROCS_ColorScore>
-4.661

> <ROCS_Overlap>
1786.989

> <ROCS_Rank>
466                 

$$$$
untitled-dbase-92_3
  -OEChem-02082415003D

 26 26  0     0  0  0  0  0  0999 V2000
    9.3306   14.2001   22.4824 C   0  0  0  0  0  0  0  0  0  0  0  0
    8.6697   11.2383   25.1709 C   0  0  0  0  0  0  0  0  0  0  0  0
    9.7064   10.5952   24.2548 C   0  0  0  0  0  0  0  0  0  0  0  0
    8.1157   12.4146   24.3806 C   0  0  0  0  0  0  0  0  0  0  0  0
    9.6893   11.4328   22.9846 C   0  0  0  0  0  0  0  0  0  0  0  0
    6.8901   13.8180   22.2128 C   0  0  0  0  0  0  0  0  0  0  0  0
    8.5305   12.7166   20.6565 C   0  0  0  0  0  0  0  0  0  0  0  0
    8.2716   13.1706   22.0948 C   0  0  0  0  0  0  0  0  0  0  0  0
    8.3450   12.0119   22.9923 N   0  0  0  0  0  0  0  0  0  0  0  0
   10.1187   14.0552   23.4098 O   0  0  0  0  0  0  0  0  0  0  0  0
    9.3224   15.3040   21.6964 O   0  0  0  0  0  0  0  0  0  0  0  0
    7.8793   10.5330   25.4473 H   0  0  0  0  0  0  0  0  0  0  0  0
    9.1520   11.5812   26.0939 H   0  0  0  0  0  0  0  0  0  0  0  0
   10.6935   10.6290   24.7305 H   0  0  0  0  0  0  0  0  0  0  0  0
    9.4693    9.5466   24.0471 H   0  0  0  0  0  0  0  0  0  0  0  0
    7.0465   12.5356   24.5973 H   0  0  0  0  0  0  0  0  0  0  0  0
    8.6309   13.3473   24.6304 H   0  0  0  0  0  0  0  0  0  0  0  0
   10.4698   12.2004   22.9967 H   0  0  0  0  0  0  0  0  0  0  0  0
    9.8486   10.7860   22.1118 H   0  0  0  0  0  0  0  0  0  0  0  0
    6.0927   13.1158   21.9438 H   0  0  0  0  0  0  0  0  0  0  0  0
    6.7023   14.1686   23.2341 H   0  0  0  0  0  0  0  0  0  0  0  0
    6.8016   14.6839   21.5458 H   0  0  0  0  0  0  0  0  0  0  0  0
    7.7932   11.9740   20.3305 H   0  0  0  0  0  0  0  0  0  0  0  0
    9.5270   12.2720   20.5540 H   0  0  0  0  0  0  0  0  0  0  0  0
    8.4734   13.5613   19.9596 H   0  0  0  0  0  0  0  0  0  0  0  0
   10.0113   15.9492   21.9635 H   0  0  0  0  0  0  0  0  0  0  0  0
  1  8  1  0  0  0  0
  1 10  2  0  0  0  0
  1 11  1  0  0  0  0
  2  3  1  0  0  0  0
  2  4  1  0  0  0  0
  3  5  1  0  0  0  0
  4  9  1  0  0  0  0
  5  9  1  0  0  0  0
  6  8  1  0  0  0  0
  7  8  1  0  0  0  0
  8  9  1  0  0  0  0
  2 12  1  0  0  0  0
  2 13  1  0  0  0  0
  3 14  1  0  0  0  0
  3 15  1  0  0  0  0
  4 16  1  0  0  0  0
  4 17  1  0  0  0  0
  5 18  1  0  0  0  0
  5 19  1  0  0  0  0
  6 20  1  0  0  0  0
  6 21  1  0  0  0  0
  6 22  1  0  0  0  0
  7 23  1  0  0  0  0
  7 24  1  0  0  0  0
  7 25  1  0  0  0  0
 11 26  1  0  0  0  0
M  END
> <Catalog ID>
Z1966570493

> <PlateID>
1337959-R-02

> <Well>
F11

> <MW (desalted)>
157.210

> <CLogP>
1.534

> <HBD>
1

> <TPSA>
40.540

> <RotBonds>
2

> <ROCS_ShapeQuery>
x0446_0A_x1080_0A_x0929_0A_x0812_0A_x0719_0A_x1140_0A_x0528_0A_x0310_0A

> <ROCS_TanimotoCombo>
0.286 

> <ROCS_ShapeTanimoto>
0.154 

> <ROCS_ColorTanimoto>
0.132 

> <ROCS_RefTversky>
0.145 

> <ROCS_RefColorTversky>
0.142 

> <ROCS_RefTverskyCombo>
0.287 

> <ROCS_FitTversky>
1.607 

> <ROCS_FitColorTversky>
0.667 

> <ROCS_FitTverskyCombo>
2.275 

> <ROCS_ColorScore>
-5.053

> <ROCS_Overlap>
1714.171

> <ROCS_Rank>
467                 

$$$$
untitled-dbase-583_7
  -OEChem-02082415003D

 32 33  0     0  0  0  0  0  0999 V2000
    9.5542   14.1202   22.4682 C   0  0  0  0  0  0  0  0  0  0  0  0
   13.3556   15.4541   21.7431 C   0  0  0  0  0  0  0  0  0  0  0  0
   12.1560   16.3934   21.8593 C   0  0  0  0  0  0  0  0  0  0  0  0
   12.9012   14.0004   21.6176 C   0  0  0  0  0  0  0  0  0  0  0  0
   11.2107   15.9681   22.9851 C   0  0  0  0  0  0  0  0  0  0  0  0
   11.9645   13.6273   22.7619 C   0  0  0  0  0  0  0  0  0  0  0  0
    8.2050   11.9914   22.2599 C   0  0  0  0  0  0  0  0  0  0  0  0
    9.2222   12.6174   24.4021 C   0  0  0  0  0  0  0  0  0  0  0  0
    8.5089   10.5371   22.5871 C   0  0  0  0  0  0  0  0  0  0  0  0
    9.4799   11.1379   24.6543 C   0  0  0  0  0  0  0  0  0  0  0  0
   10.8351   14.5549   22.8372 N   0  0  0  0  0  0  0  0  0  0  0  0
    9.1385   12.8775   22.9664 N   0  0  0  0  0  0  0  0  0  0  0  0
    8.8223   14.8013   21.7393 O   0  0  0  0  0  0  0  0  0  0  0  0
    8.4871   10.3388   24.0046 O   0  0  0  0  0  0  0  0  0  0  0  0
   13.9518   15.7277   20.8638 H   0  0  0  0  0  0  0  0  0  0  0  0
   14.0031   15.5671   22.6198 H   0  0  0  0  0  0  0  0  0  0  0  0
   12.5041   17.4218   22.0404 H   0  0  0  0  0  0  0  0  0  0  0  0
   11.6083   16.4112   20.9061 H   0  0  0  0  0  0  0  0  0  0  0  0
   12.3948   13.8555   20.6611 H   0  0  0  0  0  0  0  0  0  0  0  0
   13.7750   13.3433   21.6302 H   0  0  0  0  0  0  0  0  0  0  0  0
   11.6806   16.1387   23.9559 H   0  0  0  0  0  0  0  0  0  0  0  0
   10.2885   16.5549   22.9512 H   0  0  0  0  0  0  0  0  0  0  0  0
   11.5599   12.6164   22.6167 H   0  0  0  0  0  0  0  0  0  0  0  0
   12.5491   13.6354   23.6879 H   0  0  0  0  0  0  0  0  0  0  0  0
    8.1890   12.1725   21.1841 H   0  0  0  0  0  0  0  0  0  0  0  0
    7.2060   12.2523   22.6323 H   0  0  0  0  0  0  0  0  0  0  0  0
    8.2631   12.9217   24.8376 H   0  0  0  0  0  0  0  0  0  0  0  0
   10.0113   13.2274   24.8540 H   0  0  0  0  0  0  0  0  0  0  0  0
    7.7421    9.8890   22.1515 H   0  0  0  0  0  0  0  0  0  0  0  0
    9.4791   10.2231   22.1852 H   0  0  0  0  0  0  0  0  0  0  0  0
   10.4763   10.8388   24.3075 H   0  0  0  0  0  0  0  0  0  0  0  0
    9.4248   10.9284   25.7270 H   0  0  0  0  0  0  0  0  0  0  0  0
  1 11  1  0  0  0  0
  1 12  1  0  0  0  0
  1 13  2  0  0  0  0
  2  3  1  0  0  0  0
  2  4  1  0  0  0  0
  3  5  1  0  0  0  0
  4  6  1  0  0  0  0
  5 11  1  0  0  0  0
  6 11  1  0  0  0  0
  7  9  1  0  0  0  0
  7 12  1  0  0  0  0
  8 10  1  0  0  0  0
  8 12  1  0  0  0  0
  9 14  1  0  0  0  0
 10 14  1  0  0  0  0
  2 15  1  0  0  0  0
  2 16  1  0  0  0  0
  3 17  1  0  0  0  0
  3 18  1  0  0  0  0
  4 19  1  0  0  0  0
  4 20  1  0  0  0  0
  5 21  1  0  0  0  0
  5 22  1  0  0  0  0
  6 23  1  0  0  0  0
  6 24  1  0  0  0  0
  7 25  1  0  0  0  0
  7 26  1  0  0  0  0
  8 27  1  0  0  0  0
  8 28  1  0  0  0  0
  9 29  1  0  0  0  0
  9 30  1  0  0  0  0
 10 31  1  0  0  0  0
 10 32  1  0  0  0  0
M  END
> <Catalog ID>
Z208333304

> <PlateID>
1337959-R-13

> <Well>
F04

> <MW (desalted)>
198.262

> <CLogP>
1.429

> <HBD>
0

> <TPSA>
32.780

> <RotBonds>
0

> <ROCS_ShapeQuery>
x0446_0A_x1080_0A_x0929_0A_x0812_0A_x0719_0A_x1140_0A_x0528_0A_x0310_0A

> <ROCS_TanimotoCombo>
0.286 

> <ROCS_ShapeTanimoto>
0.169 

> <ROCS_ColorTanimoto>
0.117 

> <ROCS_RefTversky>
0.159 

> <ROCS_RefColorTversky>
0.122 

> <ROCS_RefTverskyCombo>
0.281 

> <ROCS_FitTversky>
1.571 

> <ROCS_FitColorTversky>
0.764 

> <ROCS_FitTverskyCombo>
2.335 

> <ROCS_ColorScore>
-4.322

> <ROCS_Overlap>
1876.978

> <ROCS_Rank>
468                 

$$$$
untitled-dbase-397_25
  -OEChem-02082415003D

 32 32  0     0  0  0  0  0  0999 V2000
    8.9305   10.8785   25.3477 C   0  0  0  0  0  0  0  0  0  0  0  0
    8.4075   12.0970   24.9150 C   0  0  0  0  0  0  0  0  0  0  0  0
    8.8448   11.4708   22.6229 C   0  0  0  0  0  0  0  0  0  0  0  0
    9.4108    9.9561   24.4180 C   0  0  0  0  0  0  0  0  0  0  0  0
    9.3678   10.2523   23.0556 C   0  0  0  0  0  0  0  0  0  0  0  0
    8.3646   12.3932   23.5527 C   0  0  0  0  0  0  0  0  0  0  0  0
    9.9689    8.6597   24.9061 C   0  0  0  0  0  0  0  0  0  0  0  0
    9.8779    9.2810   22.0422 C   0  0  0  0  0  0  0  0  0  0  0  0
   11.3532   13.1967   23.9831 C   0  0  0  0  0  0  0  0  0  0  0  0
   11.5025   14.3603   23.0133 C   0  0  0  0  0  0  0  0  0  0  0  0
   10.2449   14.6040   22.1878 C   0  0  0  0  0  0  0  0  0  0  0  0
    9.1084   14.9280   23.0047 N   0  0  0  0  0  0  0  0  0  0  0  0
    7.2500   13.7710   21.6371 O   0  0  0  0  0  0  0  0  0  0  0  0
    6.7755   14.3860   24.0290 O   0  0  0  0  0  0  0  0  0  0  0  0
    7.7004   13.9374   23.0058 S   0  0  0  0  0  0  0  0  0  0  0  0
    8.9625   10.6577   26.4115 H   0  0  0  0  0  0  0  0  0  0  0  0
    8.0359   12.8083   25.6477 H   0  0  0  0  0  0  0  0  0  0  0  0
    8.8125   11.7018   21.5607 H   0  0  0  0  0  0  0  0  0  0  0  0
    9.1767    7.9049   24.9695 H   0  0  0  0  0  0  0  0  0  0  0  0
   10.7531    8.2881   24.2351 H   0  0  0  0  0  0  0  0  0  0  0  0
   10.4245    8.7727   25.8978 H   0  0  0  0  0  0  0  0  0  0  0  0
   10.9422    9.4579   21.8485 H   0  0  0  0  0  0  0  0  0  0  0  0
    9.7522    8.2469   22.3860 H   0  0  0  0  0  0  0  0  0  0  0  0
    9.3304    9.3716   21.0958 H   0  0  0  0  0  0  0  0  0  0  0  0
   10.5288   13.3718   24.6817 H   0  0  0  0  0  0  0  0  0  0  0  0
   11.1412   12.2737   23.4341 H   0  0  0  0  0  0  0  0  0  0  0  0
   12.2686   13.0398   24.5621 H   0  0  0  0  0  0  0  0  0  0  0  0
   12.3357   14.1454   22.3341 H   0  0  0  0  0  0  0  0  0  0  0  0
   11.7660   15.2650   23.5740 H   0  0  0  0  0  0  0  0  0  0  0  0
   10.4010   15.4475   21.5079 H   0  0  0  0  0  0  0  0  0  0  0  0
    9.9870   13.7258   21.5877 H   0  0  0  0  0  0  0  0  0  0  0  0
    9.2752   15.4969   23.8621 H   0  0  0  0  0  0  0  0  0  0  0  0
  1  2  1  0  0  0  0
  1  4  2  0  0  0  0
  2  6  2  0  0  0  0
  3  5  2  0  0  0  0
  3  6  1  0  0  0  0
  4  5  1  0  0  0  0
  4  7  1  0  0  0  0
  5  8  1  0  0  0  0
  6 15  1  0  0  0  0
  9 10  1  0  0  0  0
 10 11  1  0  0  0  0
 11 12  1  0  0  0  0
 12 15  1  0  0  0  0
 13 15  2  0  0  0  0
 14 15  2  0  0  0  0
  1 16  1  0  0  0  0
  2 17  1  0  0  0  0
  3 18  1  0  0  0  0
  7 19  1  0  0  0  0
  7 20  1  0  0  0  0
  7 21  1  0  0  0  0
  8 22  1  0  0  0  0
  8 23  1  0  0  0  0
  8 24  1  0  0  0  0
  9 25  1  0  0  0  0
  9 26  1  0  0  0  0
  9 27  1  0  0  0  0
 10 28  1  0  0  0  0
 10 29  1  0  0  0  0
 11 30  1  0  0  0  0
 11 31  1  0  0  0  0
 12 32  1  0  0  0  0
M  END
> <Catalog ID>
Z45545198

> <PlateID>
1337959-R-09

> <Well>
E02

> <MW (desalted)>
227.323

> <CLogP>
2.927

> <HBD>
1

> <TPSA>
46.170

> <RotBonds>
3

> <ROCS_ShapeQuery>
x0446_0A_x1080_0A_x0929_0A_x0812_0A_x0719_0A_x1140_0A_x0528_0A_x0310_0A

> <ROCS_TanimotoCombo>
0.286 

> <ROCS_ShapeTanimoto>
0.195 

> <ROCS_ColorTanimoto>
0.091 

> <ROCS_RefTversky>
0.180 

> <ROCS_RefColorTversky>
0.099 

> <ROCS_RefTverskyCombo>
0.279 

> <ROCS_FitTversky>
1.768 

> <ROCS_FitColorTversky>
0.531 

> <ROCS_FitTverskyCombo>
2.299 

> <ROCS_ColorScore>
-3.511

> <ROCS_Overlap>
2121.942

> <ROCS_Rank>
469                 

$$$$
untitled-dbase-676_3
  -OEChem-02082415003D

 27 28  0     0  0  0  0  0  0999 V2000
    7.5965   11.7362   24.6338 C   0  0  0  0  0  0  0  0  0  0  0  0
    9.8535   12.5193   23.8320 C   0  0  0  0  0  0  0  0  0  0  0  0
    8.2356   14.1730   24.9271 C   0  0  0  0  0  0  0  0  0  0  0  0
    7.7201   10.4666   23.7818 C   0  0  0  0  0  0  0  0  0  0  0  0
   10.0836   11.0023   23.8379 C   0  0  0  0  0  0  0  0  0  0  0  0
    8.7303   15.3687   24.1216 C   0  0  0  0  0  0  0  0  0  0  0  0
    7.7270   13.3572   22.6816 C   0  0  0  0  0  0  0  0  0  0  0  0
    8.3636   12.9224   24.0251 C   0  0  0  0  0  0  0  0  0  0  0  0
    9.0206   10.3054   23.1297 N   0  0  0  0  0  0  0  0  0  0  0  0
    9.2396   15.2041   21.5445 O   0  0  0  0  0  0  0  0  0  0  0  0
    6.8979   15.8298   22.2888 O   0  0  0  0  0  0  0  0  0  0  0  0
    8.1294   15.0886   22.4668 S   0  0  0  0  0  0  0  0  0  0  0  0
    6.5347   11.9641   24.7624 H   0  0  0  0  0  0  0  0  0  0  0  0
    7.9916   11.5200   25.6337 H   0  0  0  0  0  0  0  0  0  0  0  0
   10.4566   12.9747   24.6337 H   0  0  0  0  0  0  0  0  0  0  0  0
   10.2412   12.9382   22.8915 H   0  0  0  0  0  0  0  0  0  0  0  0
    8.8694   14.0546   25.8145 H   0  0  0  0  0  0  0  0  0  0  0  0
    7.2115   14.3324   25.2772 H   0  0  0  0  0  0  0  0  0  0  0  0
    7.5420    9.5851   24.4247 H   0  0  0  0  0  0  0  0  0  0  0  0
    6.9178   10.4277   23.0213 H   0  0  0  0  0  0  0  0  0  0  0  0
   11.0585   10.7579   23.3993 H   0  0  0  0  0  0  0  0  0  0  0  0
   10.1124   10.6488   24.8749 H   0  0  0  0  0  0  0  0  0  0  0  0
    8.3021   16.3048   24.4879 H   0  0  0  0  0  0  0  0  0  0  0  0
    9.8195   15.4391   24.1103 H   0  0  0  0  0  0  0  0  0  0  0  0
    8.1777   12.8239   21.8383 H   0  0  0  0  0  0  0  0  0  0  0  0
    6.6428   13.2395   22.6416 H   0  0  0  0  0  0  0  0  0  0  0  0
    9.2453    9.3072   23.0898 H   0  0  0  0  0  0  0  0  0  0  0  0
  1  4  1  0  0  0  0
  1  8  1  0  0  0  0
  2  5  1  0  0  0  0
  2  8  1  0  0  0  0
  3  6  1  0  0  0  0
  3  8  1  0  0  0  0
  4  9  1  0  0  0  0
  5  9  1  0  0  0  0
  6 12  1  0  0  0  0
  7  8  1  0  0  0  0
  7 12  1  0  0  0  0
 10 12  2  0  0  0  0
 11 12  2  0  0  0  0
  1 13  1  0  0  0  0
  1 14  1  0  0  0  0
  2 15  1  0  0  0  0
  2 16  1  0  0  0  0
  3 17  1  0  0  0  0
  3 18  1  0  0  0  0
  4 19  1  0  0  0  0
  4 20  1  0  0  0  0
  5 21  1  0  0  0  0
  5 22  1  0  0  0  0
  6 23  1  0  0  0  0
  6 24  1  0  0  0  0
  7 25  1  0  0  0  0
  7 26  1  0  0  0  0
  9 27  1  0  0  0  0
M  END
> <Catalog ID>
Z3024360017

> <PlateID>
1337959-R-15

> <Well>
G08

> <MW (desalted)>
189.275

> <CLogP>
-1.412

> <HBD>
1

> <TPSA>
46.170

> <RotBonds>
0

> <ROCS_ShapeQuery>
x0446_0A_x1080_0A_x0929_0A_x0812_0A_x0719_0A_x1140_0A_x0528_0A_x0310_0A

> <ROCS_TanimotoCombo>
0.286 

> <ROCS_ShapeTanimoto>
0.172 

> <ROCS_ColorTanimoto>
0.114 

> <ROCS_RefTversky>
0.160 

> <ROCS_RefColorTversky>
0.124 

> <ROCS_RefTverskyCombo>
0.284 

> <ROCS_FitTversky>
1.735 

> <ROCS_FitColorTversky>
0.586 

> <ROCS_FitTverskyCombo>
2.320 

> <ROCS_ColorScore>
-4.429

> <ROCS_Overlap>
1886.379

> <ROCS_Rank>
470                 

$$$$
untitled-dbase-128_5
  -OEChem-02082415003D

 31 32  0     0  0  0  0  0  0999 V2000
    9.5081   11.4508   25.0221 C   0  0  0  0  0  0  0  0  0  0  0  0
    8.4525   12.3477   24.8582 C   0  0  0  0  0  0  0  0  0  0  0  0
    9.7231   10.4466   24.0781 C   0  0  0  0  0  0  0  0  0  0  0  0
    7.8266   11.2361   22.8064 C   0  0  0  0  0  0  0  0  0  0  0  0
    7.6117   12.2404   23.7504 C   0  0  0  0  0  0  0  0  0  0  0  0
    8.8823   10.3393   22.9703 C   0  0  0  0  0  0  0  0  0  0  0  0
    8.0526   15.1676   23.5087 C   0  0  0  0  0  0  0  0  0  0  0  0
    7.3926   14.0098   21.3752 C   0  0  0  0  0  0  0  0  0  0  0  0
    8.6956   16.2425   22.6370 C   0  0  0  0  0  0  0  0  0  0  0  0
    8.0907   15.1446   20.6295 C   0  0  0  0  0  0  0  0  0  0  0  0
    6.9100   14.4418   22.7741 C   0  0  0  0  0  0  0  0  0  0  0  0
    6.4757   13.2065   23.5751 C   0  0  0  0  0  0  0  0  0  0  0  0
    5.7636   15.3301   22.6542 N   0  0  0  0  0  0  0  0  0  0  0  0
    9.1565   15.6848   21.4079 O   0  0  0  0  0  0  0  0  0  0  0  0
    9.0883    9.3748   22.0639 F   0  0  0  0  0  0  0  0  0  0  0  0
   10.1632   11.5346   25.8844 H   0  0  0  0  0  0  0  0  0  0  0  0
    8.2926   13.1268   25.5991 H   0  0  0  0  0  0  0  0  0  0  0  0
   10.5445    9.7483   24.2061 H   0  0  0  0  0  0  0  0  0  0  0  0
    7.1774   11.1450   21.9398 H   0  0  0  0  0  0  0  0  0  0  0  0
    8.8251   14.4319   23.7697 H   0  0  0  0  0  0  0  0  0  0  0  0
    7.7033   15.6089   24.4502 H   0  0  0  0  0  0  0  0  0  0  0  0
    6.5649   13.6183   20.7711 H   0  0  0  0  0  0  0  0  0  0  0  0
    8.1135   13.1894   21.4941 H   0  0  0  0  0  0  0  0  0  0  0  0
    8.0067   17.0696   22.4303 H   0  0  0  0  0  0  0  0  0  0  0  0
    9.5637   16.6640   23.1547 H   0  0  0  0  0  0  0  0  0  0  0  0
    8.5207   14.7627   19.6981 H   0  0  0  0  0  0  0  0  0  0  0  0
    7.3916   15.9450   20.3608 H   0  0  0  0  0  0  0  0  0  0  0  0
    5.6427   12.7215   23.0608 H   0  0  0  0  0  0  0  0  0  0  0  0
    6.0977   13.5265   24.5490 H   0  0  0  0  0  0  0  0  0  0  0  0
    5.5741   15.4472   21.6903 H   0  0  0  0  0  0  0  0  0  0  0  0
    5.0029   14.9019   23.1196 H   0  0  0  0  0  0  0  0  0  0  0  0
  1  2  1  0  0  0  0
  1  3  2  0  0  0  0
  2  5  2  0  0  0  0
  3  6  1  0  0  0  0
  4  5  1  0  0  0  0
  4  6  2  0  0  0  0
  5 12  1  0  0  0  0
  6 15  1  0  0  0  0
  7  9  1  0  0  0  0
  7 11  1  0  0  0  0
  8 10  1  0  0  0  0
  8 11  1  0  0  0  0
  9 14  1  0  0  0  0
 10 14  1  0  0  0  0
 11 12  1  0  0  0  0
 11 13  1  0  0  0  0
  1 16  1  0  0  0  0
  2 17  1  0  0  0  0
  3 18  1  0  0  0  0
  4 19  1  0  0  0  0
  7 20  1  0  0  0  0
  7 21  1  0  0  0  0
  8 22  1  0  0  0  0
  8 23  1  0  0  0  0
  9 24  1  0  0  0  0
  9 25  1  0  0  0  0
 10 26  1  0  0  0  0
 10 27  1  0  0  0  0
 12 28  1  0  0  0  0
 12 29  1  0  0  0  0
 13 30  1  0  0  0  0
 13 31  1  0  0  0  0
M  END
> <Catalog ID>
Z1098924006

> <PlateID>
1337959-R-03

> <Well>
E09

> <MW (desalted)>
209.260

> <CLogP>
1.198

> <HBD>
1

> <TPSA>
35.250

> <RotBonds>
2

> <ROCS_ShapeQuery>
x0446_0A_x1080_0A_x0929_0A_x0812_0A_x0719_0A_x1140_0A_x0528_0A_x0310_0A

> <ROCS_TanimotoCombo>
0.286 

> <ROCS_ShapeTanimoto>
0.169 

> <ROCS_ColorTanimoto>
0.117 

> <ROCS_RefTversky>
0.160 

> <ROCS_RefColorTversky>
0.124 

> <ROCS_RefTverskyCombo>
0.284 

> <ROCS_FitTversky>
1.518 

> <ROCS_FitColorTversky>
0.668 

> <ROCS_FitTverskyCombo>
2.185 

> <ROCS_ColorScore>
-4.412

> <ROCS_Overlap>
1885.070

> <ROCS_Rank>
471                 

$$$$
untitled-dbase-100_1
  -OEChem-02082415003D

 25 25  0     0  0  0  0  0  0999 V2000
   10.0933   13.6128   23.7423 C   0  0  0  0  0  0  0  0  0  0  0  0
    9.3478   12.2227   21.8313 C   0  0  0  0  0  0  0  0  0  0  0  0
    7.9413   12.3963   23.9111 C   0  0  0  0  0  0  0  0  0  0  0  0
    9.8283   10.8572   22.3312 C   0  0  0  0  0  0  0  0  0  0  0  0
    8.4784   11.0240   24.3279 C   0  0  0  0  0  0  0  0  0  0  0  0
    8.9085   13.1554   22.9791 C   0  0  0  0  0  0  0  0  0  0  0  0
    8.5494   16.2356   20.9822 C   0  0  0  0  0  0  0  0  0  0  0  0
    8.2057   14.3934   22.4004 C   0  0  0  0  0  0  0  0  0  0  0  0
   11.0210   13.9710   24.3400 N   0  0  0  0  0  0  0  0  0  0  0  0
    8.8187   10.2066   23.1646 N   0  0  0  0  0  0  0  0  0  0  0  0
    9.1221   15.0682   21.5640 O   0  0  0  0  0  0  0  0  0  0  0  0
   10.1463   12.6879   21.2387 H   0  0  0  0  0  0  0  0  0  0  0  0
    8.5042   12.0637   21.1454 H   0  0  0  0  0  0  0  0  0  0  0  0
    6.9789   12.2512   23.4009 H   0  0  0  0  0  0  0  0  0  0  0  0
    7.7293   12.9861   24.8124 H   0  0  0  0  0  0  0  0  0  0  0  0
   10.0434   10.2133   21.4711 H   0  0  0  0  0  0  0  0  0  0  0  0
   10.7683   10.9537   22.8873 H   0  0  0  0  0  0  0  0  0  0  0  0
    9.3526   11.1288   24.9814 H   0  0  0  0  0  0  0  0  0  0  0  0
    7.7151   10.5009   24.9149 H   0  0  0  0  0  0  0  0  0  0  0  0
    9.2890   16.7262   20.3447 H   0  0  0  0  0  0  0  0  0  0  0  0
    8.2255   16.9165   21.7733 H   0  0  0  0  0  0  0  0  0  0  0  0
    7.6866   15.9450   20.3783 H   0  0  0  0  0  0  0  0  0  0  0  0
    7.8991   15.0467   23.2123 H   0  0  0  0  0  0  0  0  0  0  0  0
    7.3413   14.0804   21.8218 H   0  0  0  0  0  0  0  0  0  0  0  0
    7.9769   10.0572   22.6076 H   0  0  0  0  0  0  0  0  0  0  0  0
  1  6  1  0  0  0  0
  1  9  3  0  0  0  0
  2  4  1  0  0  0  0
  2  6  1  0  0  0  0
  3  5  1  0  0  0  0
  3  6  1  0  0  0  0
  4 10  1  0  0  0  0
  5 10  1  0  0  0  0
  6  8  1  0  0  0  0
  7 11  1  0  0  0  0
  8 11  1  0  0  0  0
  2 12  1  0  0  0  0
  2 13  1  0  0  0  0
  3 14  1  0  0  0  0
  3 15  1  0  0  0  0
  4 16  1  0  0  0  0
  4 17  1  0  0  0  0
  5 18  1  0  0  0  0
  5 19  1  0  0  0  0
  7 20  1  0  0  0  0
  7 21  1  0  0  0  0
  7 22  1  0  0  0  0
  8 23  1  0  0  0  0
  8 24  1  0  0  0  0
 10 25  1  0  0  0  0
M  END
> <Catalog ID>
Z2025201597

> <PlateID>
1337959-R-02

> <Well>
H02

> <MW (desalted)>
154.210

> <CLogP>
-0.731

> <HBD>
1

> <TPSA>
45.050

> <RotBonds>
2

> <ROCS_ShapeQuery>
x0446_0A_x1080_0A_x0929_0A_x0812_0A_x0719_0A_x1140_0A_x0528_0A_x0310_0A

> <ROCS_TanimotoCombo>
0.285 

> <ROCS_ShapeTanimoto>
0.156 

> <ROCS_ColorTanimoto>
0.129 

> <ROCS_RefTversky>
0.147 

> <ROCS_RefColorTversky>
0.136 

> <ROCS_RefTverskyCombo>
0.283 

> <ROCS_FitTversky>
1.649 

> <ROCS_FitColorTversky>
0.732 

> <ROCS_FitTverskyCombo>
2.381 

> <ROCS_ColorScore>
-4.837

> <ROCS_Overlap>
1731.945

> <ROCS_Rank>
472                 

$$$$
untitled-dbase-420_68
  -OEChem-02082415003D

 24 25  0     0  0  0  0  0  0999 V2000
    9.1608   16.2230   22.0913 C   0  0  0  0  0  0  0  0  0  0  0  0
    8.0473   10.1965   24.7207 C   0  0  0  0  0  0  0  0  0  0  0  0
    8.1050   11.6135   24.8580 C   0  0  0  0  0  0  0  0  0  0  0  0
    8.8017    9.7483   23.6588 C   0  0  0  0  0  0  0  0  0  0  0  0
    8.9015   12.1945   23.8957 C   0  0  0  0  0  0  0  0  0  0  0  0
    9.2171   13.6177   23.6952 C   0  0  0  0  0  0  0  0  0  0  0  0
    5.9844   13.7858   24.6234 C   0  0  0  0  0  0  0  0  0  0  0  0
    5.6198   14.8754   23.6569 C   0  0  0  0  0  0  0  0  0  0  0  0
    6.8015   13.9906   23.3798 C   0  0  0  0  0  0  0  0  0  0  0  0
    8.3081   15.9427   23.2450 C   0  0  0  0  0  0  0  0  0  0  0  0
    9.8369   16.4491   21.1758 N   0  0  0  0  0  0  0  0  0  0  0  0
    8.1629   14.5028   23.4475 N   0  0  0  0  0  0  0  0  0  0  0  0
   10.4051   13.9284   23.7750 O   0  0  0  0  0  0  0  0  0  0  0  0
    9.5753   11.0334   22.8327 S   0  0  0  0  0  0  0  0  0  0  0  0
    7.4803    9.5395   25.3672 H   0  0  0  0  0  0  0  0  0  0  0  0
    7.5864   12.1734   25.6261 H   0  0  0  0  0  0  0  0  0  0  0  0
    8.9347    8.7278   23.3284 H   0  0  0  0  0  0  0  0  0  0  0  0
    6.4081   14.0804   25.5758 H   0  0  0  0  0  0  0  0  0  0  0  0
    5.3430   12.9139   24.6679 H   0  0  0  0  0  0  0  0  0  0  0  0
    4.7332   14.7364   23.0508 H   0  0  0  0  0  0  0  0  0  0  0  0
    5.8009   15.8990   23.9611 H   0  0  0  0  0  0  0  0  0  0  0  0
    6.6829   13.2524   22.5938 H   0  0  0  0  0  0  0  0  0  0  0  0
    8.7325   16.3644   24.1606 H   0  0  0  0  0  0  0  0  0  0  0  0
    7.3066   16.3596   23.1053 H   0  0  0  0  0  0  0  0  0  0  0  0
  1 10  1  0  0  0  0
  1 11  3  0  0  0  0
  2  3  1  0  0  0  0
  2  4  2  0  0  0  0
  3  5  2  0  0  0  0
  4 14  1  0  0  0  0
  5  6  1  0  0  0  0
  5 14  1  0  0  0  0
  6 12  1  0  0  0  0
  6 13  2  0  0  0  0
  7  8  1  0  0  0  0
  7  9  1  0  0  0  0
  8  9  1  0  0  0  0
  9 12  1  0  0  0  0
 10 12  1  0  0  0  0
  2 15  1  0  0  0  0
  3 16  1  0  0  0  0
  4 17  1  0  0  0  0
  7 18  1  0  0  0  0
  7 19  1  0  0  0  0
  8 20  1  0  0  0  0
  8 21  1  0  0  0  0
  9 22  1  0  0  0  0
 10 23  1  0  0  0  0
 10 24  1  0  0  0  0
M  END
> <Catalog ID>
Z826825048

> <PlateID>
1337959-R-09

> <Well>
H07

> <MW (desalted)>
206.264

> <CLogP>
0.659

> <HBD>
0

> <TPSA>
44.100

> <RotBonds>
3

> <ROCS_ShapeQuery>
x0446_0A_x1080_0A_x0929_0A_x0812_0A_x0719_0A_x1140_0A_x0528_0A_x0310_0A

> <ROCS_TanimotoCombo>
0.285 

> <ROCS_ShapeTanimoto>
0.176 

> <ROCS_ColorTanimoto>
0.109 

> <ROCS_RefTversky>
0.165 

> <ROCS_RefColorTversky>
0.111 

> <ROCS_RefTverskyCombo>
0.276 

> <ROCS_FitTversky>
1.642 

> <ROCS_FitColorTversky>
0.840 

> <ROCS_FitTverskyCombo>
2.482 

> <ROCS_ColorScore>
-3.956

> <ROCS_Overlap>
1940.929

> <ROCS_Rank>
473                 

$$$$
untitled-dbase-276_1
  -OEChem-02082415003D

 26 27  0     1  0  0  0  0  0999 V2000
    6.4783   14.0878   23.7109 C   0  0  0  0  0  0  0  0  0  0  0  0
    7.7723   13.6727   24.4018 C   0  0  0  0  0  0  0  0  0  0  0  0
    9.9427   10.1108   23.8407 C   0  0  0  0  0  0  0  0  0  0  0  0
    7.8334   11.2382   23.7152 C   0  0  0  0  0  0  0  0  0  0  0  0
    6.7403   14.4483   22.2561 C   0  0  0  0  0  0  0  0  0  0  0  0
   10.6537   11.4507   23.7197 C   0  0  0  0  0  0  0  0  0  0  0  0
    8.6762   13.0879   22.1480 C   0  0  0  0  0  0  0  0  0  0  0  0
    8.5499   12.6035   23.6068 C   0  0  1  0  0  0  0  0  0  0  0  0
    8.6516   10.1584   23.1560 N   0  0  0  0  0  0  0  0  0  0  0  0
    7.3995   13.3800   21.5796 O   0  0  0  0  0  0  0  0  0  0  0  0
    9.8430   12.5086   24.2303 O   0  0  0  0  0  0  0  0  0  0  0  0
    5.7394   13.2805   23.7727 H   0  0  0  0  0  0  0  0  0  0  0  0
    6.0571   14.9582   24.2308 H   0  0  0  0  0  0  0  0  0  0  0  0
    8.3780   14.5745   24.5810 H   0  0  0  0  0  0  0  0  0  0  0  0
    7.5251   13.2763   25.4021 H   0  0  0  0  0  0  0  0  0  0  0  0
   10.5597    9.3166   23.4039 H   0  0  0  0  0  0  0  0  0  0  0  0
    9.7890    9.8673   24.8965 H   0  0  0  0  0  0  0  0  0  0  0  0
    7.6080   11.0115   24.7634 H   0  0  0  0  0  0  0  0  0  0  0  0
    6.8756   11.2692   23.1798 H   0  0  0  0  0  0  0  0  0  0  0  0
    5.8086   14.6928   21.7307 H   0  0  0  0  0  0  0  0  0  0  0  0
    7.3891   15.3293   22.2016 H   0  0  0  0  0  0  0  0  0  0  0  0
   11.6239   11.4432   24.2249 H   0  0  0  0  0  0  0  0  0  0  0  0
   10.8464   11.6688   22.6651 H   0  0  0  0  0  0  0  0  0  0  0  0
    9.2547   14.0187   22.1070 H   0  0  0  0  0  0  0  0  0  0  0  0
    9.1889   12.3483   21.5194 H   0  0  0  0  0  0  0  0  0  0  0  0
    8.8025   10.3299   22.1615 H   0  0  0  0  0  0  0  0  0  0  0  0
  1  2  1  0  0  0  0
  1  5  1  0  0  0  0
  2  8  1  0  0  0  0
  3  6  1  0  0  0  0
  3  9  1  0  0  0  0
  4  8  1  0  0  0  0
  4  9  1  0  0  0  0
  5 10  1  0  0  0  0
  6 11  1  0  0  0  0
  7  8  1  0  0  0  0
  7 10  1  0  0  0  0
  8 11  1  0  0  0  0
  1 12  1  0  0  0  0
  1 13  1  0  0  0  0
  2 14  1  0  0  0  0
  2 15  1  0  0  0  0
  3 16  1  0  0  0  0
  3 17  1  0  0  0  0
  4 18  1  0  0  0  0
  4 19  1  0  0  0  0
  5 20  1  0  0  0  0
  5 21  1  0  0  0  0
  6 22  1  0  0  0  0
  6 23  1  0  0  0  0
  7 24  1  0  0  0  0
  7 25  1  0  0  0  0
  9 26  1  0  0  0  0
M  END
> <Catalog ID>
Z1258762879

> <PlateID>
1337959-R-06

> <Well>
G06

> <MW (desalted)>
157.210

> <CLogP>
-0.291

> <HBD>
1

> <TPSA>
30.490

> <RotBonds>
0

> <ROCS_ShapeQuery>
x0446_0A_x1080_0A_x0929_0A_x0812_0A_x0719_0A_x1140_0A_x0528_0A_x0310_0A

> <ROCS_TanimotoCombo>
0.285 

> <ROCS_ShapeTanimoto>
0.171 

> <ROCS_ColorTanimoto>
0.114 

> <ROCS_RefTversky>
0.160 

> <ROCS_RefColorTversky>
0.124 

> <ROCS_RefTverskyCombo>
0.283 

> <ROCS_FitTversky>
1.756 

> <ROCS_FitColorTversky>
0.583 

> <ROCS_FitTverskyCombo>
2.338 

> <ROCS_ColorScore>
-4.405

> <ROCS_Overlap>
1882.247

> <ROCS_Rank>
474                 

$$$$
untitled-dbase-96_0
  -OEChem-02082415003D

 27 28  0     1  0  0  0  0  0999 V2000
    7.7316   11.1318   25.0376 C   0  0  0  0  0  0  0  0  0  0  0  0
    8.4336   12.4656   24.7880 C   0  0  0  0  0  0  0  0  0  0  0  0
    7.7213   12.8272   22.3660 C   0  0  0  0  0  0  0  0  0  0  0  0
    8.5990    9.9586   24.5897 C   0  0  0  0  0  0  0  0  0  0  0  0
    9.7403   11.3337   22.9666 C   0  0  0  0  0  0  0  0  0  0  0  0
    8.2845   13.3057   21.0316 C   0  0  0  0  0  0  0  0  0  0  0  0
    9.7788   13.8686   23.1722 C   0  0  0  0  0  0  0  0  0  0  0  0
    8.9162   12.5968   23.3283 C   0  0  2  0  0  0  0  0  0  0  0  0
    9.0102   10.0817   23.1910 N   0  0  0  0  0  0  0  0  0  0  0  0
   10.8399   13.8742   20.7544 O   0  0  0  0  0  0  0  0  0  0  0  0
    9.2383   15.7343   21.3912 O   0  0  0  0  0  0  0  0  0  0  0  0
    9.6653   14.3518   21.4541 S   0  0  0  0  0  0  0  0  0  0  0  0
    7.4904   11.0313   26.1030 H   0  0  0  0  0  0  0  0  0  0  0  0
    6.7794   11.1123   24.4951 H   0  0  0  0  0  0  0  0  0  0  0  0
    7.7333   13.2812   25.0160 H   0  0  0  0  0  0  0  0  0  0  0  0
    9.2717   12.5738   25.4883 H   0  0  0  0  0  0  0  0  0  0  0  0
    7.0648   13.6057   22.7747 H   0  0  0  0  0  0  0  0  0  0  0  0
    7.1142   11.9260   22.2355 H   0  0  0  0  0  0  0  0  0  0  0  0
    9.4958    9.9050   25.2202 H   0  0  0  0  0  0  0  0  0  0  0  0
    8.0625    9.0108   24.7360 H   0  0  0  0  0  0  0  0  0  0  0  0
   10.0591   11.3790   21.9139 H   0  0  0  0  0  0  0  0  0  0  0  0
   10.6672   11.2863   23.5532 H   0  0  0  0  0  0  0  0  0  0  0  0
    8.6572   12.4716   20.4308 H   0  0  0  0  0  0  0  0  0  0  0  0
    7.5536   13.8766   20.4547 H   0  0  0  0  0  0  0  0  0  0  0  0
    9.3662   14.7001   23.7556 H   0  0  0  0  0  0  0  0  0  0  0  0
   10.8322   13.7461   23.4339 H   0  0  0  0  0  0  0  0  0  0  0  0
    9.5958    9.2896   22.9405 H   0  0  0  0  0  0  0  0  0  0  0  0
  1  2  1  0  0  0  0
  1  4  1  0  0  0  0
  2  8  1  0  0  0  0
  3  6  1  0  0  0  0
  3  8  1  0  0  0  0
  4  9  1  0  0  0  0
  5  8  1  0  0  0  0
  5  9  1  0  0  0  0
  6 12  1  0  0  0  0
  7  8  1  0  0  0  0
  7 12  1  0  0  0  0
 10 12  2  0  0  0  0
 11 12  2  0  0  0  0
  1 13  1  0  0  0  0
  1 14  1  0  0  0  0
  2 15  1  0  0  0  0
  2 16  1  0  0  0  0
  3 17  1  0  0  0  0
  3 18  1  0  0  0  0
  4 19  1  0  0  0  0
  4 20  1  0  0  0  0
  5 21  1  0  0  0  0
  5 22  1  0  0  0  0
  6 23  1  0  0  0  0
  6 24  1  0  0  0  0
  7 25  1  0  0  0  0
  7 26  1  0  0  0  0
  9 27  1  0  0  0  0
M  END
> <Catalog ID>
Z2235821009

> <PlateID>
1337959-R-02

> <Well>
G05

> <MW (desalted)>
189.275

> <CLogP>
-0.922

> <HBD>
1

> <TPSA>
46.170

> <RotBonds>
0

> <ROCS_ShapeQuery>
x0446_0A_x1080_0A_x0929_0A_x0812_0A_x0719_0A_x1140_0A_x0528_0A_x0310_0A

> <ROCS_TanimotoCombo>
0.285 

> <ROCS_ShapeTanimoto>
0.170 

> <ROCS_ColorTanimoto>
0.115 

> <ROCS_RefTversky>
0.159 

> <ROCS_RefColorTversky>
0.125 

> <ROCS_RefTverskyCombo>
0.284 

> <ROCS_FitTversky>
1.721 

> <ROCS_FitColorTversky>
0.588 

> <ROCS_FitTverskyCombo>
2.309 

> <ROCS_ColorScore>
-4.446

> <ROCS_Overlap>
1871.063

> <ROCS_Rank>
475                 

$$$$
untitled-dbase-520_1
  -OEChem-02082415003D

 26 27  0     0  0  0  0  0  0999 V2000
    8.3902   12.9968   21.8761 C   0  0  0  0  0  0  0  0  0  0  0  0
   10.5243   13.7849   22.9352 C   0  0  0  0  0  0  0  0  0  0  0  0
    8.3621   10.2563   24.4831 C   0  0  0  0  0  0  0  0  0  0  0  0
    9.9663   11.3299   23.0218 C   0  0  0  0  0  0  0  0  0  0  0  0
    8.0228   14.4687   21.6980 C   0  0  0  0  0  0  0  0  0  0  0  0
   10.0371   15.2117   22.6922 C   0  0  0  0  0  0  0  0  0  0  0  0
    7.5205   11.5008   24.7314 C   0  0  0  0  0  0  0  0  0  0  0  0
    9.3715   12.7588   23.0469 C   0  0  0  0  0  0  0  0  0  0  0  0
    8.9943   10.2447   23.1661 N   0  0  0  0  0  0  0  0  0  0  0  0
    9.1928   15.2684   21.5452 O   0  0  0  0  0  0  0  0  0  0  0  0
    8.5253   13.0128   24.6741 S   0  0  0  0  0  0  0  0  0  0  0  0
    7.4820   12.3917   21.9808 H   0  0  0  0  0  0  0  0  0  0  0  0
    8.8783   12.6683   20.9486 H   0  0  0  0  0  0  0  0  0  0  0  0
   11.1512   13.4997   22.0775 H   0  0  0  0  0  0  0  0  0  0  0  0
   11.1825   13.7733   23.8119 H   0  0  0  0  0  0  0  0  0  0  0  0
    9.1564   10.2161   25.2394 H   0  0  0  0  0  0  0  0  0  0  0  0
    7.7669    9.3439   24.6281 H   0  0  0  0  0  0  0  0  0  0  0  0
   10.5650   11.1716   22.1094 H   0  0  0  0  0  0  0  0  0  0  0  0
   10.6859   11.2289   23.8493 H   0  0  0  0  0  0  0  0  0  0  0  0
    7.4217   14.5876   20.7903 H   0  0  0  0  0  0  0  0  0  0  0  0
    7.4239   14.8504   22.5324 H   0  0  0  0  0  0  0  0  0  0  0  0
    9.5078   15.6214   23.5593 H   0  0  0  0  0  0  0  0  0  0  0  0
   10.8957   15.8636   22.5002 H   0  0  0  0  0  0  0  0  0  0  0  0
    6.7503   11.5811   23.9584 H   0  0  0  0  0  0  0  0  0  0  0  0
    7.0027   11.4439   25.6933 H   0  0  0  0  0  0  0  0  0  0  0  0
    9.4489    9.3463   23.0106 H   0  0  0  0  0  0  0  0  0  0  0  0
  1  5  1  0  0  0  0
  1  8  1  0  0  0  0
  2  6  1  0  0  0  0
  2  8  1  0  0  0  0
  3  7  1  0  0  0  0
  3  9  1  0  0  0  0
  4  8  1  0  0  0  0
  4  9  1  0  0  0  0
  5 10  1  0  0  0  0
  6 10  1  0  0  0  0
  7 11  1  0  0  0  0
  8 11  1  0  0  0  0
  1 12  1  0  0  0  0
  1 13  1  0  0  0  0
  2 14  1  0  0  0  0
  2 15  1  0  0  0  0
  3 16  1  0  0  0  0
  3 17  1  0  0  0  0
  4 18  1  0  0  0  0
  4 19  1  0  0  0  0
  5 20  1  0  0  0  0
  5 21  1  0  0  0  0
  6 22  1  0  0  0  0
  6 23  1  0  0  0  0
  7 24  1  0  0  0  0
  7 25  1  0  0  0  0
  9 26  1  0  0  0  0
M  END
> <Catalog ID>
Z1696870908

> <PlateID>
1337959-R-12

> <Well>
C05

> <MW (desalted)>
173.276

> <CLogP>
-0.022

> <HBD>
1

> <TPSA>
21.260

> <RotBonds>
0

> <ROCS_ShapeQuery>
x0446_0A_x1080_0A_x0929_0A_x0812_0A_x0719_0A_x1140_0A_x0528_0A_x0310_0A

> <ROCS_TanimotoCombo>
0.285 

> <ROCS_ShapeTanimoto>
0.167 

> <ROCS_ColorTanimoto>
0.117 

> <ROCS_RefTversky>
0.156 

> <ROCS_RefColorTversky>
0.124 

> <ROCS_RefTverskyCombo>
0.281 

> <ROCS_FitTversky>
1.763 

> <ROCS_FitColorTversky>
0.669 

> <ROCS_FitTverskyCombo>
2.432 

> <ROCS_ColorScore>
-4.425

> <ROCS_Overlap>
1840.452

> <ROCS_Rank>
476                 

$$$$
untitled-dbase-139_0
  -OEChem-02082415003D

 29 30  0     0  0  0  0  0  0999 V2000
    8.5499   13.1104   23.2857 C   0  0  0  0  0  0  0  0  0  0  0  0
    6.2423   12.0892   23.4980 C   0  0  0  0  0  0  0  0  0  0  0  0
    7.5872   12.5358   25.5571 C   0  0  0  0  0  0  0  0  0  0  0  0
   10.0609   12.9375   23.4529 C   0  0  0  0  0  0  0  0  0  0  0  0
   10.2667   10.5601   22.8918 C   0  0  0  0  0  0  0  0  0  0  0  0
    5.2920   11.2791   24.3755 C   0  0  0  0  0  0  0  0  0  0  0  0
    6.5606   11.7060   26.3260 C   0  0  0  0  0  0  0  0  0  0  0  0
    8.7677   10.2890   22.8845 C   0  0  0  0  0  0  0  0  0  0  0  0
    7.6751   12.1070   24.0740 C   0  0  0  0  0  0  0  0  0  0  0  0
   10.6132   11.9352   22.5427 N   0  0  0  0  0  0  0  0  0  0  0  0
    5.2787   11.7883   25.7073 O   0  0  0  0  0  0  0  0  0  0  0  0
    8.1941   10.7721   24.0898 O   0  0  0  0  0  0  0  0  0  0  0  0
    8.2783   14.1324   23.5824 H   0  0  0  0  0  0  0  0  0  0  0  0
    8.3040   13.0589   22.2159 H   0  0  0  0  0  0  0  0  0  0  0  0
    6.2297   11.6686   22.4865 H   0  0  0  0  0  0  0  0  0  0  0  0
    5.8691   13.1194   23.4345 H   0  0  0  0  0  0  0  0  0  0  0  0
    7.2916   13.5912   25.6152 H   0  0  0  0  0  0  0  0  0  0  0  0
    8.5603   12.4302   26.0500 H   0  0  0  0  0  0  0  0  0  0  0  0
   10.5393   13.8906   23.1984 H   0  0  0  0  0  0  0  0  0  0  0  0
   10.3391   12.7258   24.4908 H   0  0  0  0  0  0  0  0  0  0  0  0
   10.6979   10.3146   23.8697 H   0  0  0  0  0  0  0  0  0  0  0  0
   10.7479    9.9056   22.1565 H   0  0  0  0  0  0  0  0  0  0  0  0
    4.2731   11.3532   23.9822 H   0  0  0  0  0  0  0  0  0  0  0  0
    5.5611   10.2166   24.3911 H   0  0  0  0  0  0  0  0  0  0  0  0
    6.8636   10.6555   26.4036 H   0  0  0  0  0  0  0  0  0  0  0  0
    6.4631   12.0930   27.3454 H   0  0  0  0  0  0  0  0  0  0  0  0
    8.2644   10.6742   21.9911 H   0  0  0  0  0  0  0  0  0  0  0  0
    8.6176    9.2037   22.8867 H   0  0  0  0  0  0  0  0  0  0  0  0
   10.3020   12.1319   21.5916 H   0  0  0  0  0  0  0  0  0  0  0  0
  1  4  1  0  0  0  0
  1  9  1  0  0  0  0
  2  6  1  0  0  0  0
  2  9  1  0  0  0  0
  3  7  1  0  0  0  0
  3  9  1  0  0  0  0
  4 10  1  0  0  0  0
  5  8  1  0  0  0  0
  5 10  1  0  0  0  0
  6 11  1  0  0  0  0
  7 11  1  0  0  0  0
  8 12  1  0  0  0  0
  9 12  1  0  0  0  0
  1 13  1  0  0  0  0
  1 14  1  0  0  0  0
  2 15  1  0  0  0  0
  2 16  1  0  0  0  0
  3 17  1  0  0  0  0
  3 18  1  0  0  0  0
  4 19  1  0  0  0  0
  4 20  1  0  0  0  0
  5 21  1  0  0  0  0
  5 22  1  0  0  0  0
  6 23  1  0  0  0  0
  6 24  1  0  0  0  0
  7 25  1  0  0  0  0
  7 26  1  0  0  0  0
  8 27  1  0  0  0  0
  8 28  1  0  0  0  0
 10 29  1  0  0  0  0
M  END
> <Catalog ID>
Z1702497588

> <PlateID>
1337959-R-03

> <Well>
G05

> <MW (desalted)>
171.237

> <CLogP>
-0.785

> <HBD>
1

> <TPSA>
30.490

> <RotBonds>
0

> <ROCS_ShapeQuery>
x0446_0A_x1080_0A_x0929_0A_x0812_0A_x0719_0A_x1140_0A_x0528_0A_x0310_0A

> <ROCS_TanimotoCombo>
0.284 

> <ROCS_ShapeTanimoto>
0.170 

> <ROCS_ColorTanimoto>
0.114 

> <ROCS_RefTversky>
0.159 

> <ROCS_RefColorTversky>
0.124 

> <ROCS_RefTverskyCombo>
0.283 

> <ROCS_FitTversky>
1.689 

> <ROCS_FitColorTversky>
0.587 

> <ROCS_FitTverskyCombo>
2.276 

> <ROCS_ColorScore>
-4.435

> <ROCS_Overlap>
1871.219

> <ROCS_Rank>
477                 

$$$$
untitled-dbase-83_1
  -OEChem-02082415003D

 26 27  0     1  0  0  0  0  0999 V2000
    9.3594   11.6513   25.1085 C   0  0  0  0  0  0  0  0  0  0  0  0
    7.5436   13.3749   25.6046 C   0  0  0  0  0  0  0  0  0  0  0  0
   10.0390   10.8148   24.0214 C   0  0  0  0  0  0  0  0  0  0  0  0
    8.1479   11.0521   22.5395 C   0  0  0  0  0  0  0  0  0  0  0  0
    6.4793   12.4903   26.2390 C   0  0  0  0  0  0  0  0  0  0  0  0
    6.3305   11.1065   24.3216 C   0  0  0  0  0  0  0  0  0  0  0  0
    7.3770   11.9207   23.5474 C   0  0  1  0  0  0  0  0  0  0  0  0
    8.3395   12.6422   24.5144 C   0  0  2  0  0  0  0  0  0  0  0  0
    9.0576   10.1121   23.1956 N   0  0  0  0  0  0  0  0  0  0  0  0
    5.6228   11.9391   25.2407 O   0  0  0  0  0  0  0  0  0  0  0  0
    9.0656   13.6253   23.7659 O   0  0  0  0  0  0  0  0  0  0  0  0
    8.8726   10.9959   25.8325 H   0  0  0  0  0  0  0  0  0  0  0  0
   10.1214   12.2043   25.6643 H   0  0  0  0  0  0  0  0  0  0  0  0
    7.0557   14.2709   25.1870 H   0  0  0  0  0  0  0  0  0  0  0  0
    8.2208   13.7228   26.4005 H   0  0  0  0  0  0  0  0  0  0  0  0
   10.6338   11.4744   23.3791 H   0  0  0  0  0  0  0  0  0  0  0  0
   10.7436   10.0992   24.4606 H   0  0  0  0  0  0  0  0  0  0  0  0
    7.4657   10.5002   21.8752 H   0  0  0  0  0  0  0  0  0  0  0  0
    8.7436   11.6999   21.8794 H   0  0  0  0  0  0  0  0  0  0  0  0
    6.9588   11.6544   26.7594 H   0  0  0  0  0  0  0  0  0  0  0  0
    5.8803   13.0294   26.9818 H   0  0  0  0  0  0  0  0  0  0  0  0
    5.6178   10.6223   23.6496 H   0  0  0  0  0  0  0  0  0  0  0  0
    6.8169   10.3169   24.8987 H   0  0  0  0  0  0  0  0  0  0  0  0
    6.8186   12.6908   22.9751 H   0  0  0  0  0  0  0  0  0  0  0  0
    9.5491    9.5754   22.4823 H   0  0  0  0  0  0  0  0  0  0  0  0
    8.4022   14.2304   23.4068 H   0  0  0  0  0  0  0  0  0  0  0  0
  1  3  1  0  0  0  0
  1  8  1  0  0  0  0
  2  5  1  0  0  0  0
  2  8  1  0  0  0  0
  3  9  1  0  0  0  0
  4  7  1  0  0  0  0
  4  9  1  0  0  0  0
  5 10  1  0  0  0  0
  6  7  1  1  0  0  0
  6 10  1  0  0  0  0
  7  8  1  0  0  0  0
  8 11  1  6  0  0  0
  1 12  1  0  0  0  0
  1 13  1  0  0  0  0
  2 14  1  0  0  0  0
  2 15  1  0  0  0  0
  3 16  1  0  0  0  0
  3 17  1  0  0  0  0
  4 18  1  0  0  0  0
  4 19  1  0  0  0  0
  5 20  1  0  0  0  0
  5 21  1  0  0  0  0
  6 22  1  0  0  0  0
  6 23  1  0  0  0  0
  7 24  1  0  0  0  0
  9 25  1  0  0  0  0
 11 26  1  0  0  0  0
M  END
> <Catalog ID>
Z4402350620

> <PlateID>
1337959-R-02

> <Well>
E08

> <MW (desalted)>
157.210

> <CLogP>
-0.747

> <HBD>
2

> <TPSA>
41.490

> <RotBonds>
0

> <ROCS_ShapeQuery>
x0446_0A_x1080_0A_x0929_0A_x0812_0A_x0719_0A_x1140_0A_x0528_0A_x0310_0A

> <ROCS_TanimotoCombo>
0.284 

> <ROCS_ShapeTanimoto>
0.153 

> <ROCS_ColorTanimoto>
0.130 

> <ROCS_RefTversky>
0.145 

> <ROCS_RefColorTversky>
0.143 

> <ROCS_RefTverskyCombo>
0.288 

> <ROCS_FitTversky>
1.598 

> <ROCS_FitColorTversky>
0.598 

> <ROCS_FitTverskyCombo>
2.196 

> <ROCS_ColorScore>
-5.098

> <ROCS_Overlap>
1710.437

> <ROCS_Rank>
478                 

$$$$
untitled-dbase-154_0
  -OEChem-02082415003D

 21 22  0     0  0  0  0  0  0999 V2000
    9.1141   10.4531   23.4006 C   0  0  0  0  0  0  0  0  0  0  0  0
    9.8861   10.8235   22.1465 C   0  0  0  0  0  0  0  0  0  0  0  0
    9.2031   12.8563   23.0837 C   0  0  0  0  0  0  0  0  0  0  0  0
    7.9303   11.9285   25.1965 C   0  0  0  0  0  0  0  0  0  0  0  0
    6.8525   11.7358   23.2565 C   0  0  0  0  0  0  0  0  0  0  0  0
    8.3504   11.7382   23.7069 C   0  0  0  0  0  0  0  0  0  0  0  0
   10.3357   12.1847   22.4341 N   0  0  0  0  0  0  0  0  0  0  0  0
    6.5663   14.1036   24.4604 O   0  0  0  0  0  0  0  0  0  0  0  0
    5.2766   12.1097   25.3745 O   0  0  0  0  0  0  0  0  0  0  0  0
    6.4135   12.6820   24.6860 S   0  0  0  0  0  0  0  0  0  0  0  0
    8.4624    9.5883   23.2444 H   0  0  0  0  0  0  0  0  0  0  0  0
    9.8098   10.2155   24.2155 H   0  0  0  0  0  0  0  0  0  0  0  0
   10.7246   10.1461   21.9608 H   0  0  0  0  0  0  0  0  0  0  0  0
    9.2368   10.8232   21.2635 H   0  0  0  0  0  0  0  0  0  0  0  0
    8.6432   13.4241   22.3329 H   0  0  0  0  0  0  0  0  0  0  0  0
    9.5718   13.5646   23.8329 H   0  0  0  0  0  0  0  0  0  0  0  0
    7.7568   10.9989   25.7496 H   0  0  0  0  0  0  0  0  0  0  0  0
    8.5680   12.5842   25.7951 H   0  0  0  0  0  0  0  0  0  0  0  0
    6.6284   12.2368   22.3109 H   0  0  0  0  0  0  0  0  0  0  0  0
    6.3651   10.7548   23.2596 H   0  0  0  0  0  0  0  0  0  0  0  0
   11.1033   12.1329   23.1055 H   0  0  0  0  0  0  0  0  0  0  0  0
  1  2  1  0  0  0  0
  1  6  1  0  0  0  0
  2  7  1  0  0  0  0
  3  6  1  0  0  0  0
  3  7  1  0  0  0  0
  4  6  1  0  0  0  0
  4 10  1  0  0  0  0
  5  6  1  0  0  0  0
  5 10  1  0  0  0  0
  8 10  2  0  0  0  0
  9 10  2  0  0  0  0
  1 11  1  0  0  0  0
  1 12  1  0  0  0  0
  2 13  1  0  0  0  0
  2 14  1  0  0  0  0
  3 15  1  0  0  0  0
  3 16  1  0  0  0  0
  4 17  1  0  0  0  0
  4 18  1  0  0  0  0
  5 19  1  0  0  0  0
  5 20  1  0  0  0  0
  7 21  1  0  0  0  0
M  END
> <Catalog ID>
Z2753281863

> <PlateID>
1337959-R-04

> <Well>
A07

> <MW (desalted)>
161.222

> <CLogP>
-1.550

> <HBD>
1

> <TPSA>
46.170

> <RotBonds>
0

> <ROCS_ShapeQuery>
x0446_0A_x1080_0A_x0929_0A_x0812_0A_x0719_0A_x1140_0A_x0528_0A_x0310_0A

> <ROCS_TanimotoCombo>
0.283 

> <ROCS_ShapeTanimoto>
0.155 

> <ROCS_ColorTanimoto>
0.128 

> <ROCS_RefTversky>
0.146 

> <ROCS_RefColorTversky>
0.138 

> <ROCS_RefTverskyCombo>
0.284 

> <ROCS_FitTversky>
1.696 

> <ROCS_FitColorTversky>
0.650 

> <ROCS_FitTverskyCombo>
2.346 

> <ROCS_ColorScore>
-4.919

> <ROCS_Overlap>
1717.283

> <ROCS_Rank>
479                 

$$$$
untitled-dbase-190_5
  -OEChem-02082415003D

 31 32  0     0  0  0  0  0  0999 V2000
   12.1505   11.8383   23.4024 C   0  0  0  0  0  0  0  0  0  0  0  0
   11.0419   12.6451   23.6541 C   0  0  0  0  0  0  0  0  0  0  0  0
   10.7300    9.8864   23.4196 C   0  0  0  0  0  0  0  0  0  0  0  0
   11.9954   10.4588   23.2887 C   0  0  0  0  0  0  0  0  0  0  0  0
    9.6073   10.6900   23.6609 C   0  0  0  0  0  0  0  0  0  0  0  0
    9.7741   12.0734   23.7949 C   0  0  0  0  0  0  0  0  0  0  0  0
   13.1520    9.6156   23.0318 C   0  0  0  0  0  0  0  0  0  0  0  0
    8.2551   10.0572   23.8042 C   0  0  0  0  0  0  0  0  0  0  0  0
    7.1646   11.1047   23.6285 C   0  0  0  0  0  0  0  0  0  0  0  0
    7.4803   12.3820   24.4237 C   0  0  0  0  0  0  0  0  0  0  0  0
   13.1422    8.7877   21.7796 C   0  0  0  0  0  0  0  0  0  0  0  0
    7.4726   12.1526   25.9427 C   0  0  0  0  0  0  0  0  0  0  0  0
    6.4276   13.4479   24.0862 C   0  0  0  0  0  0  0  0  0  0  0  0
   14.1378    9.5254   23.7666 O   0  0  0  0  0  0  0  0  0  0  0  0
    8.7490   12.9475   24.0435 O   0  0  0  0  0  0  0  0  0  0  0  0
   13.1310   12.2960   23.2997 H   0  0  0  0  0  0  0  0  0  0  0  0
   11.1734   13.7203   23.7457 H   0  0  0  0  0  0  0  0  0  0  0  0
   10.6109    8.8085   23.3294 H   0  0  0  0  0  0  0  0  0  0  0  0
    8.1203    9.2710   23.0520 H   0  0  0  0  0  0  0  0  0  0  0  0
    8.1812    9.5882   24.7919 H   0  0  0  0  0  0  0  0  0  0  0  0
    7.1014   11.3541   22.5600 H   0  0  0  0  0  0  0  0  0  0  0  0
    6.1937   10.6854   23.9177 H   0  0  0  0  0  0  0  0  0  0  0  0
   13.5778    9.2957   20.9047 H   0  0  0  0  0  0  0  0  0  0  0  0
   12.1354    8.4449   21.4949 H   0  0  0  0  0  0  0  0  0  0  0  0
   13.7352    7.8597   21.8662 H   0  0  0  0  0  0  0  0  0  0  0  0
    7.7009   13.0855   26.4492 H   0  0  0  0  0  0  0  0  0  0  0  0
    8.2201   11.4077   26.1984 H   0  0  0  0  0  0  0  0  0  0  0  0
    6.4913   11.8031   26.2494 H   0  0  0  0  0  0  0  0  0  0  0  0
    6.6415   14.3552   24.6432 H   0  0  0  0  0  0  0  0  0  0  0  0
    5.4423   13.0798   24.3560 H   0  0  0  0  0  0  0  0  0  0  0  0
    6.4574   13.6597   23.0215 H   0  0  0  0  0  0  0  0  0  0  0  0
  1  2  1  0  0  0  0
  1  4  2  0  0  0  0
  2  6  2  0  0  0  0
  3  4  1  0  0  0  0
  3  5  2  0  0  0  0
  4  7  1  0  0  0  0
  5  6  1  0  0  0  0
  5  8  1  0  0  0  0
  6 15  1  0  0  0  0
  7 11  1  0  0  0  0
  7 14  2  0  0  0  0
  8  9  1  0  0  0  0
  9 10  1  0  0  0  0
 10 12  1  0  0  0  0
 10 13  1  0  0  0  0
 10 15  1  0  0  0  0
  1 16  1  0  0  0  0
  2 17  1  0  0  0  0
  3 18  1  0  0  0  0
  8 19  1  0  0  0  0
  8 20  1  0  0  0  0
  9 21  1  0  0  0  0
  9 22  1  0  0  0  0
 11 23  1  0  0  0  0
 11 24  1  0  0  0  0
 11 25  1  0  0  0  0
 12 26  1  0  0  0  0
 12 27  1  0  0  0  0
 12 28  1  0  0  0  0
 13 29  1  0  0  0  0
 13 30  1  0  0  0  0
 13 31  1  0  0  0  0
M  END
> <Catalog ID>
Z1509575584

> <PlateID>
1337959-R-04

> <Well>
H02

> <MW (desalted)>
204.265

> <CLogP>
3.383

> <HBD>
0

> <TPSA>
26.300

> <RotBonds>
1

> <ROCS_ShapeQuery>
x0446_0A_x1080_0A_x0929_0A_x0812_0A_x0719_0A_x1140_0A_x0528_0A_x0310_0A

> <ROCS_TanimotoCombo>
0.283 

> <ROCS_ShapeTanimoto>
0.186 

> <ROCS_ColorTanimoto>
0.097 

> <ROCS_RefTversky>
0.173 

> <ROCS_RefColorTversky>
0.105 

> <ROCS_RefTverskyCombo>
0.279 

> <ROCS_FitTversky>
1.635 

> <ROCS_FitColorTversky>
0.566 

> <ROCS_FitTverskyCombo>
2.201 

> <ROCS_ColorScore>
-3.745

> <ROCS_Overlap>
2046.590

> <ROCS_Rank>
480                 

$$$$
untitled-dbase-657_13
  -OEChem-02082415003D

 32 32  0     0  0  0  0  0  0999 V2000
    6.6745   10.8636   25.0317 C   0  0  0  0  0  0  0  0  0  0  0  0
    9.1293   10.8727   24.6480 C   0  0  0  0  0  0  0  0  0  0  0  0
    7.7847   13.0044   24.3820 C   0  0  0  0  0  0  0  0  0  0  0  0
    9.2101   10.8033   23.1193 C   0  0  0  0  0  0  0  0  0  0  0  0
    7.9375   12.8451   22.8650 C   0  0  0  0  0  0  0  0  0  0  0  0
    7.9283   11.6827   25.1369 C   0  0  0  0  0  0  0  0  0  0  0  0
   11.9520   14.5988   21.0377 C   0  0  0  0  0  0  0  0  0  0  0  0
    9.8704   13.1319   19.8098 C   0  0  0  0  0  0  0  0  0  0  0  0
   10.3574   12.8911   22.6245 C   0  0  0  0  0  0  0  0  0  0  0  0
    9.1366   12.1079   22.4523 N   0  0  0  0  0  0  0  0  0  0  0  0
    6.6117    9.7321   24.5746 O   0  0  0  0  0  0  0  0  0  0  0  0
    9.3331   15.2031   21.5306 O   0  0  0  0  0  0  0  0  0  0  0  0
    5.6109   11.5525   25.5129 O   0  0  0  0  0  0  0  0  0  0  0  0
   10.2691   14.0543   21.2831 P   0  0  0  0  0  0  0  0  0  0  0  0
    9.0992    9.8561   25.0538 H   0  0  0  0  0  0  0  0  0  0  0  0
   10.0456   11.3408   25.0267 H   0  0  0  0  0  0  0  0  0  0  0  0
    8.5526   13.7026   24.7426 H   0  0  0  0  0  0  0  0  0  0  0  0
    6.8127   13.4657   24.5989 H   0  0  0  0  0  0  0  0  0  0  0  0
   10.1664   10.3067   22.8555 H   0  0  0  0  0  0  0  0  0  0  0  0
    8.4147   10.1270   22.7391 H   0  0  0  0  0  0  0  0  0  0  0  0
    7.0234   12.3718   22.4444 H   0  0  0  0  0  0  0  0  0  0  0  0
    7.9619   13.8640   22.4238 H   0  0  0  0  0  0  0  0  0  0  0  0
    8.0535   11.8938   26.2072 H   0  0  0  0  0  0  0  0  0  0  0  0
   12.2880   15.1797   21.9002 H   0  0  0  0  0  0  0  0  0  0  0  0
   12.6111   13.7358   20.9146 H   0  0  0  0  0  0  0  0  0  0  0  0
   12.0173   15.2237   20.1436 H   0  0  0  0  0  0  0  0  0  0  0  0
    8.8466   12.7541   19.8692 H   0  0  0  0  0  0  0  0  0  0  0  0
    9.9596   13.7738   18.9298 H   0  0  0  0  0  0  0  0  0  0  0  0
   10.5535   12.2859   19.7007 H   0  0  0  0  0  0  0  0  0  0  0  0
   11.2415   12.2531   22.5461 H   0  0  0  0  0  0  0  0  0  0  0  0
   10.3640   13.3933   23.5956 H   0  0  0  0  0  0  0  0  0  0  0  0
    4.7803   11.0342   25.4511 H   0  0  0  0  0  0  0  0  0  0  0  0
  1  6  1  0  0  0  0
  1 11  2  0  0  0  0
  1 13  1  0  0  0  0
  2  4  1  0  0  0  0
  2  6  1  0  0  0  0
  3  5  1  0  0  0  0
  3  6  1  0  0  0  0
  4 10  1  0  0  0  0
  5 10  1  0  0  0  0
  7 14  1  0  0  0  0
  8 14  1  0  0  0  0
  9 10  1  0  0  0  0
  9 14  1  0  0  0  0
 12 14  2  0  0  0  0
  2 15  1  0  0  0  0
  2 16  1  0  0  0  0
  3 17  1  0  0  0  0
  3 18  1  0  0  0  0
  4 19  1  0  0  0  0
  4 20  1  0  0  0  0
  5 21  1  0  0  0  0
  5 22  1  0  0  0  0
  6 23  1  0  0  0  0
  7 24  1  0  0  0  0
  7 25  1  0  0  0  0
  7 26  1  0  0  0  0
  8 27  1  0  0  0  0
  8 28  1  0  0  0  0
  8 29  1  0  0  0  0
  9 30  1  0  0  0  0
  9 31  1  0  0  0  0
 13 32  1  0  0  0  0
M  END
> <Catalog ID>
Z4657506319

> <PlateID>
1337959-R-15

> <Well>
D06

> <MW (desalted)>
219.218

> <CLogP>
-3.137

> <HBD>
1

> <TPSA>
57.610

> <RotBonds>
3

> <ROCS_ShapeQuery>
x0446_0A_x1080_0A_x0929_0A_x0812_0A_x0719_0A_x1140_0A_x0528_0A_x0310_0A

> <ROCS_TanimotoCombo>
0.283 

> <ROCS_ShapeTanimoto>
0.180 

> <ROCS_ColorTanimoto>
0.103 

> <ROCS_RefTversky>
0.167 

> <ROCS_RefColorTversky>
0.113 

> <ROCS_RefTverskyCombo>
0.281 

> <ROCS_FitTversky>
1.713 

> <ROCS_FitColorTversky>
0.534 

> <ROCS_FitTverskyCombo>
2.247 

> <ROCS_ColorScore>
-4.044

> <ROCS_Overlap>
1973.779

> <ROCS_Rank>
481                 

$$$$
untitled-dbase-557_0
  -OEChem-02082415003D

 20 21  0     0  0  0  0  0  0999 V2000
    9.1352   10.9891   24.7529 C   0  0  0  0  0  0  0  0  0  0  0  0
    7.8671   11.4009   24.6105 C   0  0  0  0  0  0  0  0  0  0  0  0
   10.1603   11.3731   23.7634 C   0  0  0  0  0  0  0  0  0  0  0  0
    8.3879   12.6281   22.5597 C   0  0  0  0  0  0  0  0  0  0  0  0
    6.8272   10.9713   25.6139 C   0  0  0  0  0  0  0  0  0  0  0  0
    6.1138   12.7312   23.4865 C   0  0  0  0  0  0  0  0  0  0  0  0
    5.1307   12.0001   24.3781 C   0  0  0  0  0  0  0  0  0  0  0  0
    9.6932   12.1603   22.7273 N   0  0  0  0  0  0  0  0  0  0  0  0
    7.4779   12.2053   23.5458 N   0  0  0  0  0  0  0  0  0  0  0  0
   11.3240   11.0031   23.8854 O   0  0  0  0  0  0  0  0  0  0  0  0
    8.0919   13.3638   21.6149 O   0  0  0  0  0  0  0  0  0  0  0  0
    5.7125   11.8595   25.6686 O   0  0  0  0  0  0  0  0  0  0  0  0
    9.4470   10.3580   25.5778 H   0  0  0  0  0  0  0  0  0  0  0  0
    6.4635    9.9650   25.3718 H   0  0  0  0  0  0  0  0  0  0  0  0
    7.2538   10.9331   26.6224 H   0  0  0  0  0  0  0  0  0  0  0  0
    5.7643   12.7310   22.4478 H   0  0  0  0  0  0  0  0  0  0  0  0
    6.1855   13.7802   23.8018 H   0  0  0  0  0  0  0  0  0  0  0  0
    4.2100   12.5831   24.4806 H   0  0  0  0  0  0  0  0  0  0  0  0
    4.8602   11.0180   23.9719 H   0  0  0  0  0  0  0  0  0  0  0  0
   10.3716   12.4448   22.0265 H   0  0  0  0  0  0  0  0  0  0  0  0
  1  2  2  0  0  0  0
  1  3  1  0  0  0  0
  2  5  1  0  0  0  0
  2  9  1  0  0  0  0
  3  8  1  0  0  0  0
  3 10  2  0  0  0  0
  4  8  1  0  0  0  0
  4  9  1  0  0  0  0
  4 11  2  0  0  0  0
  5 12  1  0  0  0  0
  6  7  1  0  0  0  0
  6  9  1  0  0  0  0
  7 12  1  0  0  0  0
  1 13  1  0  0  0  0
  5 14  1  0  0  0  0
  5 15  1  0  0  0  0
  6 16  1  0  0  0  0
  6 17  1  0  0  0  0
  7 18  1  0  0  0  0
  7 19  1  0  0  0  0
  8 20  1  0  0  0  0
M  END
> <Catalog ID>
Z3242918241

> <PlateID>
1337959-R-13

> <Well>
A09

> <MW (desalted)>
168.150

> <CLogP>
-1.695

> <HBD>
1

> <TPSA>
58.640

> <RotBonds>
0

> <ROCS_ShapeQuery>
x0446_0A_x1080_0A_x0929_0A_x0812_0A_x0719_0A_x1140_0A_x0528_0A_x0310_0A

> <ROCS_TanimotoCombo>
0.283 

> <ROCS_ShapeTanimoto>
0.161 

> <ROCS_ColorTanimoto>
0.122 

> <ROCS_RefTversky>
0.152 

> <ROCS_RefColorTversky>
0.132 

> <ROCS_RefTverskyCombo>
0.284 

> <ROCS_FitTversky>
1.572 

> <ROCS_FitColorTversky>
0.622 

> <ROCS_FitTverskyCombo>
2.194 

> <ROCS_ColorScore>
-4.708

> <ROCS_Overlap>
1791.164

> <ROCS_Rank>
482                 

$$$$
untitled-dbase-141_2
  -OEChem-02082415003D

 25 26  0     0  0  0  0  0  0999 V2000
    9.2693   14.6881   21.9596 C   0  0  0  0  0  0  0  0  0  0  0  0
    8.4661    9.9124   23.9859 C   0  0  0  0  0  0  0  0  0  0  0  0
    8.1875   14.4790   22.9985 C   0  0  0  0  0  0  0  0  0  0  0  0
   10.2712   13.5684   21.7721 C   0  0  0  0  0  0  0  0  0  0  0  0
    8.2739   10.6728   25.2718 C   0  0  0  0  0  0  0  0  0  0  0  0
    7.8699   12.9922   23.1181 C   0  0  0  0  0  0  0  0  0  0  0  0
   10.4277   12.7991   23.0779 C   0  0  0  0  0  0  0  0  0  0  0  0
    9.1271   11.9228   25.0666 C   0  0  0  0  0  0  0  0  0  0  0  0
    9.1045   12.1625   23.5479 C   0  0  0  0  0  0  0  0  0  0  0  0
    8.9651   10.8056   23.0459 N   0  0  0  0  0  0  0  0  0  0  0  0
    9.3320   15.7231   21.2972 O   0  0  0  0  0  0  0  0  0  0  0  0
    8.1916    8.7349   23.8139 O   0  0  0  0  0  0  0  0  0  0  0  0
    8.5393   14.8589   23.9577 H   0  0  0  0  0  0  0  0  0  0  0  0
    7.3103   15.0508   22.6970 H   0  0  0  0  0  0  0  0  0  0  0  0
    9.9166   12.9231   20.9679 H   0  0  0  0  0  0  0  0  0  0  0  0
   11.2302   13.9962   21.4777 H   0  0  0  0  0  0  0  0  0  0  0  0
    7.2217   10.9220   25.4266 H   0  0  0  0  0  0  0  0  0  0  0  0
    8.6421   10.0644   26.1028 H   0  0  0  0  0  0  0  0  0  0  0  0
    7.0816   12.8559   23.8639 H   0  0  0  0  0  0  0  0  0  0  0  0
    7.4762   12.6266   22.1674 H   0  0  0  0  0  0  0  0  0  0  0  0
   11.2098   12.0407   22.9574 H   0  0  0  0  0  0  0  0  0  0  0  0
   10.7843   13.4911   23.8516 H   0  0  0  0  0  0  0  0  0  0  0  0
    8.6629   12.7628   25.6006 H   0  0  0  0  0  0  0  0  0  0  0  0
   10.1367   11.7929   25.4715 H   0  0  0  0  0  0  0  0  0  0  0  0
    9.2754   10.5128   22.1234 H   0  0  0  0  0  0  0  0  0  0  0  0
  1  3  1  0  0  0  0
  1  4  1  0  0  0  0
  1 11  2  0  0  0  0
  2  5  1  0  0  0  0
  2 10  1  0  0  0  0
  2 12  2  0  0  0  0
  3  6  1  0  0  0  0
  4  7  1  0  0  0  0
  5  8  1  0  0  0  0
  6  9  1  0  0  0  0
  7  9  1  0  0  0  0
  8  9  1  0  0  0  0
  9 10  1  0  0  0  0
  3 13  1  0  0  0  0
  3 14  1  0  0  0  0
  4 15  1  0  0  0  0
  4 16  1  0  0  0  0
  5 17  1  0  0  0  0
  5 18  1  0  0  0  0
  6 19  1  0  0  0  0
  6 20  1  0  0  0  0
  7 21  1  0  0  0  0
  7 22  1  0  0  0  0
  8 23  1  0  0  0  0
  8 24  1  0  0  0  0
 10 25  1  0  0  0  0
M  END
> <Catalog ID>
Z1255497803

> <PlateID>
1337959-R-03

> <Well>
G07

> <MW (desalted)>
167.205

> <CLogP>
-1.471

> <HBD>
1

> <TPSA>
46.170

> <RotBonds>
0

> <ROCS_ShapeQuery>
x0446_0A_x1080_0A_x0929_0A_x0812_0A_x0719_0A_x1140_0A_x0528_0A_x0310_0A

> <ROCS_TanimotoCombo>
0.283 

> <ROCS_ShapeTanimoto>
0.171 

> <ROCS_ColorTanimoto>
0.112 

> <ROCS_RefTversky>
0.160 

> <ROCS_RefColorTversky>
0.120 

> <ROCS_RefTverskyCombo>
0.279 

> <ROCS_FitTversky>
1.684 

> <ROCS_FitColorTversky>
0.645 

> <ROCS_FitTverskyCombo>
2.329 

> <ROCS_ColorScore>
-4.261

> <ROCS_Overlap>
1882.235

> <ROCS_Rank>
483                 

$$$$
untitled-dbase-235_1
  -OEChem-02082415003D

 30 30  0     0  0  0  0  0  0999 V2000
    9.5326   12.6978   24.0428 C   0  0  0  0  0  0  0  0  0  0  0  0
   10.0853   11.3909   23.5153 C   0  0  0  0  0  0  0  0  0  0  0  0
    8.1528   10.2155   24.2577 C   0  0  0  0  0  0  0  0  0  0  0  0
    7.3715   11.5005   24.5900 C   0  0  0  0  0  0  0  0  0  0  0  0
    6.5841   11.2436   25.8901 C   0  0  0  0  0  0  0  0  0  0  0  0
    6.3640   11.7973   23.4555 C   0  0  0  0  0  0  0  0  0  0  0  0
    7.6581   14.9683   24.3606 C   0  0  0  0  0  0  0  0  0  0  0  0
    8.8457   14.2542   26.4644 C   0  0  0  0  0  0  0  0  0  0  0  0
    7.8392   13.8640   25.3919 C   0  0  0  0  0  0  0  0  0  0  0  0
    9.0370   10.4623   23.1272 N   0  0  0  0  0  0  0  0  0  0  0  0
    8.3093   12.6525   24.7193 N   0  0  0  0  0  0  0  0  0  0  0  0
   10.2289   13.7132   23.9443 O   0  0  0  0  0  0  0  0  0  0  0  0
   10.7074   11.6057   22.6398 H   0  0  0  0  0  0  0  0  0  0  0  0
   10.7330   10.9515   24.2823 H   0  0  0  0  0  0  0  0  0  0  0  0
    8.7278    9.8576   25.1218 H   0  0  0  0  0  0  0  0  0  0  0  0
    7.4630    9.4052   23.9924 H   0  0  0  0  0  0  0  0  0  0  0  0
    6.0246   12.1353   26.1459 H   0  0  0  0  0  0  0  0  0  0  0  0
    7.2818   11.0051   26.6839 H   0  0  0  0  0  0  0  0  0  0  0  0
    5.9053   10.4139   25.7333 H   0  0  0  0  0  0  0  0  0  0  0  0
    5.8201   12.7014   23.6976 H   0  0  0  0  0  0  0  0  0  0  0  0
    5.6787   10.9638   23.3687 H   0  0  0  0  0  0  0  0  0  0  0  0
    6.9085   11.9285   22.5290 H   0  0  0  0  0  0  0  0  0  0  0  0
    8.6104   15.2110   23.8780 H   0  0  0  0  0  0  0  0  0  0  0  0
    6.9456   14.6750   23.5815 H   0  0  0  0  0  0  0  0  0  0  0  0
    7.2742   15.8801   24.8311 H   0  0  0  0  0  0  0  0  0  0  0  0
    9.8190   14.4851   26.0177 H   0  0  0  0  0  0  0  0  0  0  0  0
    8.9867   13.4393   27.1819 H   0  0  0  0  0  0  0  0  0  0  0  0
    8.5183   15.1423   27.0166 H   0  0  0  0  0  0  0  0  0  0  0  0
    6.8753   13.6381   25.8611 H   0  0  0  0  0  0  0  0  0  0  0  0
    8.5177   10.8300   22.3327 H   0  0  0  0  0  0  0  0  0  0  0  0
  1  2  1  0  0  0  0
  1 11  1  0  0  0  0
  1 12  2  0  0  0  0
  2 10  1  0  0  0  0
  3  4  1  0  0  0  0
  3 10  1  0  0  0  0
  4  5  1  0  0  0  0
  4  6  1  0  0  0  0
  4 11  1  0  0  0  0
  7  9  1  0  0  0  0
  8  9  1  0  0  0  0
  9 11  1  0  0  0  0
  2 13  1  0  0  0  0
  2 14  1  0  0  0  0
  3 15  1  0  0  0  0
  3 16  1  0  0  0  0
  5 17  1  0  0  0  0
  5 18  1  0  0  0  0
  5 19  1  0  0  0  0
  6 20  1  0  0  0  0
  6 21  1  0  0  0  0
  6 22  1  0  0  0  0
  7 23  1  0  0  0  0
  7 24  1  0  0  0  0
  7 25  1  0  0  0  0
  8 26  1  0  0  0  0
  8 27  1  0  0  0  0
  8 28  1  0  0  0  0
  9 29  1  0  0  0  0
 10 30  1  0  0  0  0
M  END
> <Catalog ID>
Z1206890588

> <PlateID>
1337959-R-05

> <Well>
F10

> <MW (desalted)>
170.252

> <CLogP>
1.795

> <HBD>
1

> <TPSA>
32.340

> <RotBonds>
1

> <ROCS_ShapeQuery>
x0446_0A_x1080_0A_x0929_0A_x0812_0A_x0719_0A_x1140_0A_x0528_0A_x0310_0A

> <ROCS_TanimotoCombo>
0.283 

> <ROCS_ShapeTanimoto>
0.172 

> <ROCS_ColorTanimoto>
0.111 

> <ROCS_RefTversky>
0.160 

> <ROCS_RefColorTversky>
0.121 

> <ROCS_RefTverskyCombo>
0.282 

> <ROCS_FitTversky>
1.714 

> <ROCS_FitColorTversky>
0.573 

> <ROCS_FitTverskyCombo>
2.287 

> <ROCS_ColorScore>
-4.328

> <ROCS_Overlap>
1887.892

> <ROCS_Rank>
484                 

$$$$
untitled-dbase-569_46
  -OEChem-02082415003D

 40 42  0     1  0  0  0  0  0999 V2000
    9.0471   13.5363   24.0539 C   0  0  0  0  0  0  0  0  0  0  0  0
    9.8045   11.5166   22.9657 C   0  0  0  0  0  0  0  0  0  0  0  0
    8.0120   12.8227   24.6580 C   0  0  0  0  0  0  0  0  0  0  0  0
    8.7694   10.8029   23.5698 C   0  0  0  0  0  0  0  0  0  0  0  0
    9.9434   12.8832   23.2077 C   0  0  0  0  0  0  0  0  0  0  0  0
    7.8732   11.4560   24.4159 C   0  0  0  0  0  0  0  0  0  0  0  0
   13.1354   14.8233   22.6408 C   0  0  0  0  0  0  0  0  0  0  0  0
   12.2920   16.0464   22.2849 C   0  0  0  0  0  0  0  0  0  0  0  0
   10.0030   16.6453   21.2346 C   0  0  0  0  0  0  0  0  0  0  0  0
   10.9607   16.4901   20.0941 C   0  0  0  0  0  0  0  0  0  0  0  0
   12.2783   13.7217   23.2745 C   0  0  0  0  0  0  0  0  0  0  0  0
   10.8540   14.1891   21.2726 C   0  0  0  0  0  0  0  0  0  0  0  0
   11.1558   15.6708   21.3521 C   0  0  0  0  0  0  0  0  0  0  0  0
    6.2674    9.1885   27.5035 C   0  0  0  0  0  0  0  0  0  0  0  0
    7.2698    9.9941   26.7078 C   0  0  0  0  0  0  0  0  0  0  0  0
   10.9764   13.5948   22.6047 N   0  0  3  0  0  0  0  0  0  0  0  0
    5.5075   11.4994   25.4819 O   0  0  0  0  0  0  0  0  0  0  0  0
    6.2918    9.3787   24.3714 O   0  0  0  0  0  0  0  0  0  0  0  0
    6.5774   10.5621   25.1711 S   0  0  0  0  0  0  0  0  0  0  0  0
    9.1458   14.6010   24.2492 H   0  0  0  0  0  0  0  0  0  0  0  0
   10.4980   10.9976   22.3088 H   0  0  0  0  0  0  0  0  0  0  0  0
    7.3196   13.3418   25.3152 H   0  0  0  0  0  0  0  0  0  0  0  0
    8.6707    9.7385   23.3739 H   0  0  0  0  0  0  0  0  0  0  0  0
   13.6228   14.4369   21.7409 H   0  0  0  0  0  0  0  0  0  0  0  0
   13.9270   15.1113   23.3412 H   0  0  0  0  0  0  0  0  0  0  0  0
   11.9100   16.5087   23.2092 H   0  0  0  0  0  0  0  0  0  0  0  0
   12.9212   16.8074   21.7961 H   0  0  0  0  0  0  0  0  0  0  0  0
   10.0424   17.5666   21.8052 H   0  0  0  0  0  0  0  0  0  0  0  0
    9.0006   16.2510   21.1107 H   0  0  0  0  0  0  0  0  0  0  0  0
   10.6052   15.9883   19.2015 H   0  0  0  0  0  0  0  0  0  0  0  0
   11.6483   17.3044   19.8967 H   0  0  0  0  0  0  0  0  0  0  0  0
   12.8154   12.7617   23.2245 H   0  0  0  0  0  0  0  0  0  0  0  0
   12.1358   13.9578   24.3399 H   0  0  0  0  0  0  0  0  0  0  0  0
    9.8451   14.0276   20.8798 H   0  0  0  0  0  0  0  0  0  0  0  0
   11.5616   13.7160   20.5839 H   0  0  0  0  0  0  0  0  0  0  0  0
    5.3917    9.7982   27.7447 H   0  0  0  0  0  0  0  0  0  0  0  0
    5.9311    8.3127   26.9389 H   0  0  0  0  0  0  0  0  0  0  0  0
    6.7061    8.8315   28.4409 H   0  0  0  0  0  0  0  0  0  0  0  0
    8.1491    9.3921   26.4621 H   0  0  0  0  0  0  0  0  0  0  0  0
    7.5904   10.8792   27.2638 H   0  0  0  0  0  0  0  0  0  0  0  0
  1  3  1  0  0  0  0
  1  5  2  0  0  0  0
  2  4  2  0  0  0  0
  2  5  1  0  0  0  0
  3  6  2  0  0  0  0
  4  6  1  0  0  0  0
  5 16  1  0  0  0  0
  6 19  1  0  0  0  0
  7  8  1  0  0  0  0
  7 11  1  0  0  0  0
  8 13  1  0  0  0  0
  9 10  1  0  0  0  0
  9 13  1  0  0  0  0
 10 13  1  0  0  0  0
 11 16  1  0  0  0  0
 12 13  1  0  0  0  0
 12 16  1  0  0  0  0
 14 15  1  0  0  0  0
 15 19  1  0  0  0  0
 17 19  2  0  0  0  0
 18 19  2  0  0  0  0
  1 20  1  0  0  0  0
  2 21  1  0  0  0  0
  3 22  1  0  0  0  0
  4 23  1  0  0  0  0
  7 24  1  0  0  0  0
  7 25  1  0  0  0  0
  8 26  1  0  0  0  0
  8 27  1  0  0  0  0
  9 28  1  0  0  0  0
  9 29  1  0  0  0  0
 10 30  1  0  0  0  0
 10 31  1  0  0  0  0
 11 32  1  0  0  0  0
 11 33  1  0  0  0  0
 12 34  1  0  0  0  0
 12 35  1  0  0  0  0
 14 36  1  0  0  0  0
 14 37  1  0  0  0  0
 14 38  1  0  0  0  0
 15 39  1  0  0  0  0
 15 40  1  0  0  0  0
M  END
> <Catalog ID>
Z1801642779

> <PlateID>
1337959-R-13

> <Well>
C06

> <MW (desalted)>
279.398

> <CLogP>
2.609

> <HBD>
0

> <TPSA>
37.380

> <RotBonds>
3

> <ROCS_ShapeQuery>
x0446_0A_x1080_0A_x0929_0A_x0812_0A_x0719_0A_x1140_0A_x0528_0A_x0310_0A

> <ROCS_TanimotoCombo>
0.283 

> <ROCS_ShapeTanimoto>
0.208 

> <ROCS_ColorTanimoto>
0.075 

> <ROCS_RefTversky>
0.192 

> <ROCS_RefColorTversky>
0.081 

> <ROCS_RefTverskyCombo>
0.273 

> <ROCS_FitTversky>
1.632 

> <ROCS_FitColorTversky>
0.507 

> <ROCS_FitTverskyCombo>
2.139 

> <ROCS_ColorScore>
-2.872

> <ROCS_Overlap>
2272.131

> <ROCS_Rank>
485                 

$$$$
untitled-dbase-71_6
  -OEChem-02082415003D

 30 30  0     0  0  0  0  0  0999 V2000
    8.2144   10.2697   24.0438 C   0  0  0  0  0  0  0  0  0  0  0  0
    9.5959   10.4107   24.1747 C   0  0  0  0  0  0  0  0  0  0  0  0
    7.4272   11.3768   23.7270 C   0  0  0  0  0  0  0  0  0  0  0  0
   10.1902   11.6589   23.9889 C   0  0  0  0  0  0  0  0  0  0  0  0
    8.0215   12.6250   23.5412 C   0  0  0  0  0  0  0  0  0  0  0  0
    9.4031   12.7660   23.6721 C   0  0  0  0  0  0  0  0  0  0  0  0
    8.5761   14.6051   21.2930 C   0  0  0  0  0  0  0  0  0  0  0  0
    6.6429   13.1063   20.7950 C   0  0  0  0  0  0  0  0  0  0  0  0
   11.4162   14.0318   23.6475 C   0  0  0  0  0  0  0  0  0  0  0  0
    7.1524   13.8139   23.1987 C   0  0  0  0  0  0  0  0  0  0  0  0
    7.1407   14.2384   21.7060 C   0  0  0  0  0  0  0  0  0  0  0  0
    6.3035   15.4107   21.5138 N   0  0  0  0  0  0  0  0  0  0  0  0
    9.9993   13.9782   23.4947 O   0  0  0  0  0  0  0  0  0  0  0  0
    7.7509    9.2980   24.1890 H   0  0  0  0  0  0  0  0  0  0  0  0
   10.2082    9.5487   24.4222 H   0  0  0  0  0  0  0  0  0  0  0  0
    6.3515   11.2568   23.6288 H   0  0  0  0  0  0  0  0  0  0  0  0
   11.2669   11.7625   24.0923 H   0  0  0  0  0  0  0  0  0  0  0  0
    8.9750   15.4125   21.9183 H   0  0  0  0  0  0  0  0  0  0  0  0
    8.6190   14.9351   20.2491 H   0  0  0  0  0  0  0  0  0  0  0  0
    9.2508   13.7482   21.4045 H   0  0  0  0  0  0  0  0  0  0  0  0
    5.6203   12.8092   21.0517 H   0  0  0  0  0  0  0  0  0  0  0  0
    7.2811   12.2192   20.8861 H   0  0  0  0  0  0  0  0  0  0  0  0
    6.6623   13.3969   19.7390 H   0  0  0  0  0  0  0  0  0  0  0  0
   11.7631   15.0544   23.4798 H   0  0  0  0  0  0  0  0  0  0  0  0
   11.8868   13.3539   22.9309 H   0  0  0  0  0  0  0  0  0  0  0  0
   11.6762   13.7232   24.6628 H   0  0  0  0  0  0  0  0  0  0  0  0
    7.4677   14.6646   23.8189 H   0  0  0  0  0  0  0  0  0  0  0  0
    6.1276   13.5868   23.5257 H   0  0  0  0  0  0  0  0  0  0  0  0
    5.5871   15.1860   20.8613 H   0  0  0  0  0  0  0  0  0  0  0  0
    5.9060   15.6636   22.3899 H   0  0  0  0  0  0  0  0  0  0  0  0
  1  2  2  0  0  0  0
  1  3  1  0  0  0  0
  2  4  1  0  0  0  0
  3  5  2  0  0  0  0
  4  6  2  0  0  0  0
  5  6  1  0  0  0  0
  5 10  1  0  0  0  0
  6 13  1  0  0  0  0
  7 11  1  0  0  0  0
  8 11  1  0  0  0  0
  9 13  1  0  0  0  0
 10 11  1  0  0  0  0
 11 12  1  0  0  0  0
  1 14  1  0  0  0  0
  2 15  1  0  0  0  0
  3 16  1  0  0  0  0
  4 17  1  0  0  0  0
  7 18  1  0  0  0  0
  7 19  1  0  0  0  0
  7 20  1  0  0  0  0
  8 21  1  0  0  0  0
  8 22  1  0  0  0  0
  8 23  1  0  0  0  0
  9 24  1  0  0  0  0
  9 25  1  0  0  0  0
  9 26  1  0  0  0  0
 10 27  1  0  0  0  0
 10 28  1  0  0  0  0
 12 29  1  0  0  0  0
 12 30  1  0  0  0  0
M  END
> <Catalog ID>
Z839115174

> <PlateID>
1337959-R-02

> <Well>
C05

> <MW (desalted)>
179.259

> <CLogP>
2.060

> <HBD>
1

> <TPSA>
35.250

> <RotBonds>
3

> <ROCS_ShapeQuery>
x0446_0A_x1080_0A_x0929_0A_x0812_0A_x0719_0A_x1140_0A_x0528_0A_x0310_0A

> <ROCS_TanimotoCombo>
0.283 

> <ROCS_ShapeTanimoto>
0.177 

> <ROCS_ColorTanimoto>
0.105 

> <ROCS_RefTversky>
0.165 

> <ROCS_RefColorTversky>
0.113 

> <ROCS_RefTverskyCombo>
0.278 

> <ROCS_FitTversky>
1.706 

> <ROCS_FitColorTversky>
0.608 

> <ROCS_FitTverskyCombo>
2.314 

> <ROCS_ColorScore>
-4.018

> <ROCS_Overlap>
1948.596

> <ROCS_Rank>
486                 

$$$$
untitled-dbase-187_0
  -OEChem-02082415003D

 26 28  0     0  0  0  0  0  0999 V2000
    6.4934   13.3729   24.9468 C   0  0  0  0  0  0  0  0  0  0  0  0
    7.8730   13.3360   24.6053 C   0  0  0  0  0  0  0  0  0  0  0  0
    5.9666   12.1166   24.7176 C   0  0  0  0  0  0  0  0  0  0  0  0
    8.1370   12.0579   24.1747 C   0  0  0  0  0  0  0  0  0  0  0  0
   11.5855   11.7379   23.5597 C   0  0  0  0  0  0  0  0  0  0  0  0
   10.6237   11.3750   24.7120 C   0  0  0  0  0  0  0  0  0  0  0  0
   10.3664   12.2796   22.7820 C   0  0  0  0  0  0  0  0  0  0  0  0
    6.9196    9.9376   23.8654 C   0  0  0  0  0  0  0  0  0  0  0  0
    8.3152    9.3004   23.8607 C   0  0  0  0  0  0  0  0  0  0  0  0
    9.4579   11.4298   23.7000 C   0  0  0  0  0  0  0  0  0  0  0  0
    6.9813   11.3335   24.2537 N   0  0  0  0  0  0  0  0  0  0  0  0
    9.2779   10.0975   23.0796 N   0  0  0  0  0  0  0  0  0  0  0  0
    5.9429   14.2242   25.3224 H   0  0  0  0  0  0  0  0  0  0  0  0
    8.5802   14.1507   24.6732 H   0  0  0  0  0  0  0  0  0  0  0  0
    4.9650   11.7298   24.8479 H   0  0  0  0  0  0  0  0  0  0  0  0
   12.3543   12.4759   23.8034 H   0  0  0  0  0  0  0  0  0  0  0  0
   12.0651   10.8720   23.0896 H   0  0  0  0  0  0  0  0  0  0  0  0
   10.8261   10.4187   25.2042 H   0  0  0  0  0  0  0  0  0  0  0  0
   10.5856   12.1496   25.4885 H   0  0  0  0  0  0  0  0  0  0  0  0
   10.2486   13.3647   22.8913 H   0  0  0  0  0  0  0  0  0  0  0  0
   10.3527   12.0484   21.7117 H   0  0  0  0  0  0  0  0  0  0  0  0
    6.4692    9.9081   22.8668 H   0  0  0  0  0  0  0  0  0  0  0  0
    6.2628    9.4178   24.5705 H   0  0  0  0  0  0  0  0  0  0  0  0
    8.6789    9.1666   24.8871 H   0  0  0  0  0  0  0  0  0  0  0  0
    8.2432    8.3015   23.4164 H   0  0  0  0  0  0  0  0  0  0  0  0
   10.1367    9.5597   22.9661 H   0  0  0  0  0  0  0  0  0  0  0  0
  1  2  1  0  0  0  0
  1  3  2  0  0  0  0
  2  4  2  0  0  0  0
  3 11  1  0  0  0  0
  4 10  1  0  0  0  0
  4 11  1  0  0  0  0
  5  6  1  0  0  0  0
  5  7  1  0  0  0  0
  6 10  1  0  0  0  0
  7 10  1  0  0  0  0
  8  9  1  0  0  0  0
  8 11  1  0  0  0  0
  9 12  1  0  0  0  0
 10 12  1  0  0  0  0
  1 13  1  0  0  0  0
  2 14  1  0  0  0  0
  3 15  1  0  0  0  0
  5 16  1  0  0  0  0
  5 17  1  0  0  0  0
  6 18  1  0  0  0  0
  6 19  1  0  0  0  0
  7 20  1  0  0  0  0
  7 21  1  0  0  0  0
  8 22  1  0  0  0  0
  8 23  1  0  0  0  0
  9 24  1  0  0  0  0
  9 25  1  0  0  0  0
 12 26  1  0  0  0  0
M  END
> <Catalog ID>
Z2026200613

> <PlateID>
1337959-R-04

> <Well>
G06

> <MW (desalted)>
162.232

> <CLogP>
1.320

> <HBD>
1

> <TPSA>
16.960

> <RotBonds>
0

> <ROCS_ShapeQuery>
x0446_0A_x1080_0A_x0929_0A_x0812_0A_x0719_0A_x1140_0A_x0528_0A_x0310_0A

> <ROCS_TanimotoCombo>
0.283 

> <ROCS_ShapeTanimoto>
0.181 

> <ROCS_ColorTanimoto>
0.102 

> <ROCS_RefTversky>
0.168 

> <ROCS_RefColorTversky>
0.109 

> <ROCS_RefTverskyCombo>
0.278 

> <ROCS_FitTversky>
1.739 

> <ROCS_FitColorTversky>
0.587 

> <ROCS_FitTverskyCombo>
2.326 

> <ROCS_ColorScore>
-3.893

> <ROCS_Overlap>
1982.308

> <ROCS_Rank>
487                 

$$$$
untitled-dbase-197_2
  -OEChem-02082415003D

 29 30  0     0  0  0  0  0  0999 V2000
    9.3211   11.7138   21.5813 C   0  0  0  0  0  0  0  0  0  0  0  0
    9.1483   13.0714   21.2970 C   0  0  0  0  0  0  0  0  0  0  0  0
    8.3134   13.4833   23.5437 C   0  0  0  0  0  0  0  0  0  0  0  0
    8.4812   12.1354   23.8066 C   0  0  0  0  0  0  0  0  0  0  0  0
    8.9629   11.2534   22.8360 C   0  0  0  0  0  0  0  0  0  0  0  0
    8.6450   13.9492   22.2704 C   0  0  0  0  0  0  0  0  0  0  0  0
    8.2629   11.3924   25.0837 C   0  0  0  0  0  0  0  0  0  0  0  0
    8.4222    9.9287   24.6190 C   0  0  0  0  0  0  0  0  0  0  0  0
    5.8347   15.1133   21.2259 C   0  0  0  0  0  0  0  0  0  0  0  0
    6.9704   16.8624   19.9176 C   0  0  0  0  0  0  0  0  0  0  0  0
    9.1081    9.9594   23.3330 N   0  0  0  0  0  0  0  0  0  0  0  0
    7.1385   15.6544   20.7649 N   0  0  0  0  0  0  0  0  0  0  0  0
    8.0376   16.3377   23.1039 O   0  0  0  0  0  0  0  0  0  0  0  0
    9.6597   16.0960   21.2080 O   0  0  0  0  0  0  0  0  0  0  0  0
    8.4525   15.6436   21.8900 S   0  0  0  0  0  0  0  0  0  0  0  0
    9.7236   11.0434   20.8291 H   0  0  0  0  0  0  0  0  0  0  0  0
    9.4162   13.4435   20.3110 H   0  0  0  0  0  0  0  0  0  0  0  0
    7.9438   14.1553   24.3111 H   0  0  0  0  0  0  0  0  0  0  0  0
    9.0338   11.6591   25.8138 H   0  0  0  0  0  0  0  0  0  0  0  0
    7.2674   11.5738   25.4988 H   0  0  0  0  0  0  0  0  0  0  0  0
    8.9782    9.3357   25.3521 H   0  0  0  0  0  0  0  0  0  0  0  0
    7.4352    9.4674   24.4906 H   0  0  0  0  0  0  0  0  0  0  0  0
    6.0061   14.2225   21.8480 H   0  0  0  0  0  0  0  0  0  0  0  0
    5.3091   15.8777   21.8172 H   0  0  0  0  0  0  0  0  0  0  0  0
    5.2226   14.8393   20.3540 H   0  0  0  0  0  0  0  0  0  0  0  0
    7.9578   17.2282   19.5997 H   0  0  0  0  0  0  0  0  0  0  0  0
    6.3709   16.6078   19.0312 H   0  0  0  0  0  0  0  0  0  0  0  0
    6.4574   17.6461   20.4944 H   0  0  0  0  0  0  0  0  0  0  0  0
    9.1780    9.1565   22.7237 H   0  0  0  0  0  0  0  0  0  0  0  0
  1  2  1  0  0  0  0
  1  5  2  0  0  0  0
  2  6  2  0  0  0  0
  3  4  2  0  0  0  0
  3  6  1  0  0  0  0
  4  5  1  0  0  0  0
  4  7  1  0  0  0  0
  5 11  1  0  0  0  0
  6 15  1  0  0  0  0
  7  8  1  0  0  0  0
  8 11  1  0  0  0  0
  9 12  1  0  0  0  0
 10 12  1  0  0  0  0
 12 15  1  0  0  0  0
 13 15  2  0  0  0  0
 14 15  2  0  0  0  0
  1 16  1  0  0  0  0
  2 17  1  0  0  0  0
  3 18  1  0  0  0  0
  7 19  1  0  0  0  0
  7 20  1  0  0  0  0
  8 21  1  0  0  0  0
  8 22  1  0  0  0  0
  9 23  1  0  0  0  0
  9 24  1  0  0  0  0
  9 25  1  0  0  0  0
 10 26  1  0  0  0  0
 10 27  1  0  0  0  0
 10 28  1  0  0  0  0
 11 29  1  0  0  0  0
M  END
> <Catalog ID>
Z125284302

> <PlateID>
1337959-R-04

> <Well>
H10

> <MW (desalted)>
226.295

> <CLogP>
1.511

> <HBD>
1

> <TPSA>
49.410

> <RotBonds>
1

> <ROCS_ShapeQuery>
x0446_0A_x1080_0A_x0929_0A_x0812_0A_x0719_0A_x1140_0A_x0528_0A_x0310_0A

> <ROCS_TanimotoCombo>
0.282 

> <ROCS_ShapeTanimoto>
0.167 

> <ROCS_ColorTanimoto>
0.115 

> <ROCS_RefTversky>
0.158 

> <ROCS_RefColorTversky>
0.123 

> <ROCS_RefTverskyCombo>
0.281 

> <ROCS_FitTversky>
1.517 

> <ROCS_FitColorTversky>
0.658 

> <ROCS_FitTverskyCombo>
2.174 

> <ROCS_ColorScore>
-4.360

> <ROCS_Overlap>
1865.948

> <ROCS_Rank>
488                 

$$$$
untitled-dbase-658_1
  -OEChem-02082415003D

 26 27  0     1  0  0  0  0  0999 V2000
    9.5124   12.7603   23.3242 C   0  0  0  0  0  0  0  0  0  0  0  0
    6.3300   13.0613   23.6212 C   0  0  0  0  0  0  0  0  0  0  0  0
    6.4731   12.6375   25.0710 C   0  0  0  0  0  0  0  0  0  0  0  0
    7.1634   12.0303   22.8729 C   0  0  0  0  0  0  0  0  0  0  0  0
    7.9064   12.1223   25.2006 C   0  0  0  0  0  0  0  0  0  0  0  0
    9.0472   10.4404   23.6224 C   0  0  0  0  0  0  0  0  0  0  0  0
   10.0946   10.6059   22.5253 C   0  0  1  0  0  0  0  0  0  0  0  0
    8.3915   11.8251   23.7724 C   0  0  0  0  0  0  0  0  0  0  0  0
    9.6026   10.2003   21.1438 C   0  0  0  0  0  0  0  0  0  0  0  0
   10.4193   12.0075   22.5869 N   0  0  0  0  0  0  0  0  0  0  0  0
    9.5746   13.9621   23.5391 O   0  0  0  0  0  0  0  0  0  0  0  0
    5.2864   13.0679   23.2910 H   0  0  0  0  0  0  0  0  0  0  0  0
    6.7401   14.0682   23.4748 H   0  0  0  0  0  0  0  0  0  0  0  0
    6.2638   13.4573   25.7675 H   0  0  0  0  0  0  0  0  0  0  0  0
    5.7682   11.8251   25.2940 H   0  0  0  0  0  0  0  0  0  0  0  0
    6.5953   11.0983   22.7819 H   0  0  0  0  0  0  0  0  0  0  0  0
    7.4182   12.3756   21.8680 H   0  0  0  0  0  0  0  0  0  0  0  0
    8.5265   12.8885   25.6884 H   0  0  0  0  0  0  0  0  0  0  0  0
    7.9257   11.2389   25.8535 H   0  0  0  0  0  0  0  0  0  0  0  0
    8.2896    9.6950   23.3222 H   0  0  0  0  0  0  0  0  0  0  0  0
    9.4926   10.0793   24.5633 H   0  0  0  0  0  0  0  0  0  0  0  0
   11.0102   10.0523   22.7708 H   0  0  0  0  0  0  0  0  0  0  0  0
    8.6913   10.7464   20.8908 H   0  0  0  0  0  0  0  0  0  0  0  0
    9.3866    9.1301   21.1177 H   0  0  0  0  0  0  0  0  0  0  0  0
   10.3624   10.4216   20.3911 H   0  0  0  0  0  0  0  0  0  0  0  0
   11.2400   12.4105   22.1310 H   0  0  0  0  0  0  0  0  0  0  0  0
  1  8  1  0  0  0  0
  1 10  1  0  0  0  0
  1 11  2  0  0  0  0
  2  3  1  0  0  0  0
  2  4  1  0  0  0  0
  3  5  1  0  0  0  0
  4  8  1  0  0  0  0
  5  8  1  0  0  0  0
  6  7  1  0  0  0  0
  6  8  1  0  0  0  0
  7  9  1  6  0  0  0
  7 10  1  0  0  0  0
  2 12  1  0  0  0  0
  2 13  1  0  0  0  0
  3 14  1  0  0  0  0
  3 15  1  0  0  0  0
  4 16  1  0  0  0  0
  4 17  1  0  0  0  0
  5 18  1  0  0  0  0
  5 19  1  0  0  0  0
  6 20  1  0  0  0  0
  6 21  1  0  0  0  0
  7 22  1  0  0  0  0
  9 23  1  0  0  0  0
  9 24  1  0  0  0  0
  9 25  1  0  0  0  0
 10 26  1  0  0  0  0
M  END
> <Catalog ID>
Z4570550380

> <PlateID>
1337959-R-15

> <Well>
D07

> <MW (desalted)>
153.222

> <CLogP>
0.978

> <HBD>
1

> <TPSA>
29.100

> <RotBonds>
0

> <ROCS_ShapeQuery>
x0446_0A_x1080_0A_x0929_0A_x0812_0A_x0719_0A_x1140_0A_x0528_0A_x0310_0A

> <ROCS_TanimotoCombo>
0.282 

> <ROCS_ShapeTanimoto>
0.172 

> <ROCS_ColorTanimoto>
0.110 

> <ROCS_RefTversky>
0.160 

> <ROCS_RefColorTversky>
0.115 

> <ROCS_RefTverskyCombo>
0.275 

> <ROCS_FitTversky>
1.760 

> <ROCS_FitColorTversky>
0.721 

> <ROCS_FitTverskyCombo>
2.481 

> <ROCS_ColorScore>
-4.080

> <ROCS_Overlap>
1891.453

> <ROCS_Rank>
489                 

$$$$
untitled-dbase-413_3
  -OEChem-02082415003D

 25 25  0     0  0  0  0  0  0999 V2000
    7.8222   12.1458   24.5732 C   0  0  0  0  0  0  0  0  0  0  0  0
    8.2015   10.8312   24.8442 C   0  0  0  0  0  0  0  0  0  0  0  0
    8.4206   12.8420   23.5230 C   0  0  0  0  0  0  0  0  0  0  0  0
    9.1794   10.2127   24.0651 C   0  0  0  0  0  0  0  0  0  0  0  0
    9.3985   12.2236   22.7439 C   0  0  0  0  0  0  0  0  0  0  0  0
    9.7779   10.9089   23.0149 C   0  0  0  0  0  0  0  0  0  0  0  0
   10.1036   14.5050   21.9008 C   0  0  0  0  0  0  0  0  0  0  0  0
   11.4784   16.3497   22.8981 C   0  0  0  0  0  0  0  0  0  0  0  0
   12.3260   14.0374   22.9568 C   0  0  0  0  0  0  0  0  0  0  0  0
   10.0227   13.0120   21.6187 C   0  0  0  0  0  0  0  0  0  0  0  0
   11.2574   14.9457   22.5592 N   0  0  0  0  0  0  0  0  0  0  0  0
    9.1904   15.2611   21.5578 O   0  0  0  0  0  0  0  0  0  0  0  0
   10.9838   10.1108   22.0726 Cl  0  0  0  0  0  0  0  0  0  0  0  0
    7.0601   12.6269   25.1794 H   0  0  0  0  0  0  0  0  0  0  0  0
    7.7345   10.2890   25.6612 H   0  0  0  0  0  0  0  0  0  0  0  0
    8.1174   13.8658   23.3201 H   0  0  0  0  0  0  0  0  0  0  0  0
    9.4628    9.1874   24.2886 H   0  0  0  0  0  0  0  0  0  0  0  0
   11.0683   16.5551   23.8979 H   0  0  0  0  0  0  0  0  0  0  0  0
   12.5577   16.5623   22.8938 H   0  0  0  0  0  0  0  0  0  0  0  0
   10.9759   16.9891   22.1573 H   0  0  0  0  0  0  0  0  0  0  0  0
   13.0608   13.9560   22.1423 H   0  0  0  0  0  0  0  0  0  0  0  0
   12.8206   14.4260   23.8592 H   0  0  0  0  0  0  0  0  0  0  0  0
   11.9029   13.0445   23.1693 H   0  0  0  0  0  0  0  0  0  0  0  0
    9.4355   12.8533   20.7064 H   0  0  0  0  0  0  0  0  0  0  0  0
   11.0330   12.6270   21.4355 H   0  0  0  0  0  0  0  0  0  0  0  0
  1  2  2  0  0  0  0
  1  3  1  0  0  0  0
  2  4  1  0  0  0  0
  3  5  2  0  0  0  0
  4  6  2  0  0  0  0
  5  6  1  0  0  0  0
  5 10  1  0  0  0  0
  6 13  1  0  0  0  0
  7 10  1  0  0  0  0
  7 11  1  0  0  0  0
  7 12  2  0  0  0  0
  8 11  1  0  0  0  0
  9 11  1  0  0  0  0
  1 14  1  0  0  0  0
  2 15  1  0  0  0  0
  3 16  1  0  0  0  0
  4 17  1  0  0  0  0
  8 18  1  0  0  0  0
  8 19  1  0  0  0  0
  8 20  1  0  0  0  0
  9 21  1  0  0  0  0
  9 22  1  0  0  0  0
  9 23  1  0  0  0  0
 10 24  1  0  0  0  0
 10 25  1  0  0  0  0
M  END
> <Catalog ID>
Z32015067

> <PlateID>
1337959-R-09

> <Well>
G07

> <MW (desalted)>
197.661

> <CLogP>
1.679

> <HBD>
0

> <TPSA>
20.310

> <RotBonds>
2

> <ROCS_ShapeQuery>
x0446_0A_x1080_0A_x0929_0A_x0812_0A_x0719_0A_x1140_0A_x0528_0A_x0310_0A

> <ROCS_TanimotoCombo>
0.282 

> <ROCS_ShapeTanimoto>
0.187 

> <ROCS_ColorTanimoto>
0.095 

> <ROCS_RefTversky>
0.173 

> <ROCS_RefColorTversky>
0.096 

> <ROCS_RefTverskyCombo>
0.269 

> <ROCS_FitTversky>
1.788 

> <ROCS_FitColorTversky>
0.906 

> <ROCS_FitTverskyCombo>
2.694 

> <ROCS_ColorScore>
-3.406

> <ROCS_Overlap>
2036.429

> <ROCS_Rank>
490                 

$$$$
untitled-dbase-279_2
  -OEChem-02082415003D

 26 28  0     0  0  0  0  0  0999 V2000
    8.6268   14.1815   21.8709 C   0  0  0  0  0  0  0  0  0  0  0  0
    7.1336   10.0045   25.6487 C   0  0  0  0  0  0  0  0  0  0  0  0
    7.4273    8.8168   24.7717 C   0  0  0  0  0  0  0  0  0  0  0  0
    9.0962   13.0275   24.2010 C   0  0  0  0  0  0  0  0  0  0  0  0
   10.0475   12.0512   22.5200 C   0  0  0  0  0  0  0  0  0  0  0  0
    9.4961   10.4784   24.5254 C   0  0  0  0  0  0  0  0  0  0  0  0
    7.7999   10.9862   23.2696 C   0  0  0  0  0  0  0  0  0  0  0  0
    9.6338   13.5223   22.8248 C   0  0  0  0  0  0  0  0  0  0  0  0
    8.0460   10.1406   24.4713 C   0  0  0  0  0  0  0  0  0  0  0  0
    9.1203   11.6273   23.6289 C   0  0  0  0  0  0  0  0  0  0  0  0
    7.5525   13.7003   21.5426 O   0  0  0  0  0  0  0  0  0  0  0  0
    9.0925   15.3775   21.4350 O   0  0  0  0  0  0  0  0  0  0  0  0
    6.1453   10.4428   25.5855 H   0  0  0  0  0  0  0  0  0  0  0  0
    7.5696   10.0165   26.6399 H   0  0  0  0  0  0  0  0  0  0  0  0
    8.0592    8.0369   25.1782 H   0  0  0  0  0  0  0  0  0  0  0  0
    6.6350    8.4632   24.1238 H   0  0  0  0  0  0  0  0  0  0  0  0
    9.7535   13.2228   25.0551 H   0  0  0  0  0  0  0  0  0  0  0  0
    8.0930   13.4014   24.4443 H   0  0  0  0  0  0  0  0  0  0  0  0
    9.7473   11.7019   21.5234 H   0  0  0  0  0  0  0  0  0  0  0  0
   11.1110   11.8292   22.6584 H   0  0  0  0  0  0  0  0  0  0  0  0
    9.9016   10.7371   25.5093 H   0  0  0  0  0  0  0  0  0  0  0  0
   10.1387    9.7161   24.0674 H   0  0  0  0  0  0  0  0  0  0  0  0
    7.8013   10.4263   22.3298 H   0  0  0  0  0  0  0  0  0  0  0  0
    6.9251   11.6386   23.3006 H   0  0  0  0  0  0  0  0  0  0  0  0
   10.5125   14.1704   22.9452 H   0  0  0  0  0  0  0  0  0  0  0  0
    8.4634   15.8143   20.8220 H   0  0  0  0  0  0  0  0  0  0  0  0
  1  8  1  0  0  0  0
  1 11  2  0  0  0  0
  1 12  1  0  0  0  0
  2  3  1  0  0  0  0
  2  9  1  0  0  0  0
  3  9  1  0  0  0  0
  4  8  1  0  0  0  0
  4 10  1  0  0  0  0
  5  8  1  0  0  0  0
  5 10  1  0  0  0  0
  6  9  1  0  0  0  0
  6 10  1  0  0  0  0
  7  9  1  0  0  0  0
  7 10  1  0  0  0  0
  2 13  1  0  0  0  0
  2 14  1  0  0  0  0
  3 15  1  0  0  0  0
  3 16  1  0  0  0  0
  4 17  1  0  0  0  0
  4 18  1  0  0  0  0
  5 19  1  0  0  0  0
  5 20  1  0  0  0  0
  6 21  1  0  0  0  0
  6 22  1  0  0  0  0
  7 23  1  0  0  0  0
  7 24  1  0  0  0  0
  8 25  1  0  0  0  0
 12 26  1  0  0  0  0
M  END
> <Catalog ID>
Z3399257435

> <PlateID>
1337959-R-06

> <Well>
G11

> <MW (desalted)>
166.217

> <CLogP>
1.906

> <HBD>
1

> <TPSA>
37.300

> <RotBonds>
1

> <ROCS_ShapeQuery>
x0446_0A_x1080_0A_x0929_0A_x0812_0A_x0719_0A_x1140_0A_x0528_0A_x0310_0A

> <ROCS_TanimotoCombo>
0.282 

> <ROCS_ShapeTanimoto>
0.163 

> <ROCS_ColorTanimoto>
0.120 

> <ROCS_RefTversky>
0.153 

> <ROCS_RefColorTversky>
0.127 

> <ROCS_RefTverskyCombo>
0.280 

> <ROCS_FitTversky>
1.610 

> <ROCS_FitColorTversky>
0.678 

> <ROCS_FitTverskyCombo>
2.288 

> <ROCS_ColorScore>
-4.508

> <ROCS_Overlap>
1805.813

> <ROCS_Rank>
491                 

$$$$
untitled-dbase-378_1
  -OEChem-02082415003D

 27 28  0     0  0  0  0  0  0999 V2000
    5.6283   12.6661   26.9535 C   0  0  0  0  0  0  0  0  0  0  0  0
    6.7687   12.4269   26.1868 C   0  0  0  0  0  0  0  0  0  0  0  0
    4.4185   12.0618   26.6113 C   0  0  0  0  0  0  0  0  0  0  0  0
    5.4897   10.9794   24.7357 C   0  0  0  0  0  0  0  0  0  0  0  0
    9.3690   10.2461   23.4084 C   0  0  0  0  0  0  0  0  0  0  0  0
    6.6994   11.5836   25.0779 C   0  0  0  0  0  0  0  0  0  0  0  0
    9.5875   11.5880   23.0435 C   0  0  0  0  0  0  0  0  0  0  0  0
    4.3492   11.2185   25.5024 C   0  0  0  0  0  0  0  0  0  0  0  0
    8.5686   12.2796   23.6519 C   0  0  0  0  0  0  0  0  0  0  0  0
    7.0761   14.0683   22.7248 C   0  0  0  0  0  0  0  0  0  0  0  0
    8.2436   13.7211   23.6536 C   0  0  0  0  0  0  0  0  0  0  0  0
    8.2956   10.0920   24.1883 N   0  0  0  0  0  0  0  0  0  0  0  0
    7.8307   11.3462   24.3185 N   0  0  0  0  0  0  0  0  0  0  0  0
   10.5743   12.0818   22.2708 N   0  0  0  0  0  0  0  0  0  0  0  0
    2.8563   10.4733   25.0811 Cl  0  0  0  0  0  0  0  0  0  0  0  0
    5.6828   13.3229   27.8167 H   0  0  0  0  0  0  0  0  0  0  0  0
    7.7054   12.9041   26.4648 H   0  0  0  0  0  0  0  0  0  0  0  0
    3.5383   12.2572   27.2180 H   0  0  0  0  0  0  0  0  0  0  0  0
    5.4368   10.3218   23.8701 H   0  0  0  0  0  0  0  0  0  0  0  0
    9.9448    9.3714   23.1404 H   0  0  0  0  0  0  0  0  0  0  0  0
    7.2820   13.7371   21.7013 H   0  0  0  0  0  0  0  0  0  0  0  0
    6.8957   15.1476   22.7021 H   0  0  0  0  0  0  0  0  0  0  0  0
    6.1554   13.5774   23.0580 H   0  0  0  0  0  0  0  0  0  0  0  0
    7.9954   14.0717   24.6736 H   0  0  0  0  0  0  0  0  0  0  0  0
    9.1205   14.3268   23.3549 H   0  0  0  0  0  0  0  0  0  0  0  0
   11.3281   11.4867   21.8922 H   0  0  0  0  0  0  0  0  0  0  0  0
   10.6823   13.0932   22.0946 H   0  0  0  0  0  0  0  0  0  0  0  0
  1  2  1  0  0  0  0
  1  3  2  0  0  0  0
  2  6  2  0  0  0  0
  3  8  1  0  0  0  0
  4  6  1  0  0  0  0
  4  8  2  0  0  0  0
  5  7  1  0  0  0  0
  5 12  2  0  0  0  0
  6 13  1  0  0  0  0
  7  9  2  0  0  0  0
  7 14  1  0  0  0  0
  8 15  1  0  0  0  0
  9 11  1  0  0  0  0
  9 13  1  0  0  0  0
 10 11  1  0  0  0  0
 12 13  1  0  0  0  0
  1 16  1  0  0  0  0
  2 17  1  0  0  0  0
  3 18  1  0  0  0  0
  4 19  1  0  0  0  0
  5 20  1  0  0  0  0
 10 21  1  0  0  0  0
 10 22  1  0  0  0  0
 10 23  1  0  0  0  0
 11 24  1  0  0  0  0
 11 25  1  0  0  0  0
 14 26  1  0  0  0  0
 14 27  1  0  0  0  0
M  END
> <Catalog ID>
Z1839480520

> <PlateID>
1337959-R-09

> <Well>
B04

> <MW (desalted)>
221.686

> <CLogP>
2.958

> <HBD>
1

> <TPSA>
43.840

> <RotBonds>
2

> <ROCS_ShapeQuery>
x0446_0A_x1080_0A_x0929_0A_x0812_0A_x0719_0A_x1140_0A_x0528_0A_x0310_0A

> <ROCS_TanimotoCombo>
0.282 

> <ROCS_ShapeTanimoto>
0.181 

> <ROCS_ColorTanimoto>
0.100 

> <ROCS_RefTversky>
0.170 

> <ROCS_RefColorTversky>
0.111 

> <ROCS_RefTverskyCombo>
0.281 

> <ROCS_FitTversky>
1.595 

> <ROCS_FitColorTversky>
0.522 

> <ROCS_FitTverskyCombo>
2.117 

> <ROCS_ColorScore>
-3.943

> <ROCS_Overlap>
2004.951

> <ROCS_Rank>
492                 

$$$$
untitled-dbase-186_0
  -OEChem-02082415003D

 24 25  0     0  0  0  0  0  0999 V2000
    8.7106   15.0435   22.3335 C   0  0  0  0  0  0  0  0  0  0  0  0
    7.8324   10.6458   23.4893 C   0  0  0  0  0  0  0  0  0  0  0  0
    9.0617   10.1606   23.9354 C   0  0  0  0  0  0  0  0  0  0  0  0
    7.6247   12.0205   23.3759 C   0  0  0  0  0  0  0  0  0  0  0  0
   10.0833   11.0501   24.2681 C   0  0  0  0  0  0  0  0  0  0  0  0
    8.6464   12.9100   23.7086 C   0  0  0  0  0  0  0  0  0  0  0  0
    9.8757   12.4248   24.1547 C   0  0  0  0  0  0  0  0  0  0  0  0
    8.6122   15.2172   24.8409 C   0  0  0  0  0  0  0  0  0  0  0  0
    7.2241   14.9486   24.3604 C   0  0  0  0  0  0  0  0  0  0  0  0
    8.4076   14.3775   23.5811 C   0  0  0  0  0  0  0  0  0  0  0  0
   12.1076   12.6933   24.9307 C   0  0  0  0  0  0  0  0  0  0  0  0
    8.9538   15.5778   21.3327 N   0  0  0  0  0  0  0  0  0  0  0  0
   10.8858   13.2778   24.4843 O   0  0  0  0  0  0  0  0  0  0  0  0
    7.0370    9.9532   23.2301 H   0  0  0  0  0  0  0  0  0  0  0  0
    9.2232    9.0903   24.0236 H   0  0  0  0  0  0  0  0  0  0  0  0
    6.6629   12.3885   23.0274 H   0  0  0  0  0  0  0  0  0  0  0  0
   11.0391   10.6658   24.6145 H   0  0  0  0  0  0  0  0  0  0  0  0
    8.9900   16.2292   24.7437 H   0  0  0  0  0  0  0  0  0  0  0  0
    8.9330   14.7223   25.7511 H   0  0  0  0  0  0  0  0  0  0  0  0
    6.6114   14.2717   24.9456 H   0  0  0  0  0  0  0  0  0  0  0  0
    6.6683   15.7795   23.9396 H   0  0  0  0  0  0  0  0  0  0  0  0
   12.8275   13.4827   25.1602 H   0  0  0  0  0  0  0  0  0  0  0  0
   12.5052   12.0382   24.1515 H   0  0  0  0  0  0  0  0  0  0  0  0
   11.9130   12.1075   25.8322 H   0  0  0  0  0  0  0  0  0  0  0  0
  1 10  1  0  0  0  0
  1 12  3  0  0  0  0
  2  3  2  0  0  0  0
  2  4  1  0  0  0  0
  3  5  1  0  0  0  0
  4  6  2  0  0  0  0
  5  7  2  0  0  0  0
  6  7  1  0  0  0  0
  6 10  1  0  0  0  0
  7 13  1  0  0  0  0
  8  9  1  0  0  0  0
  8 10  1  0  0  0  0
  9 10  1  0  0  0  0
 11 13  1  0  0  0  0
  2 14  1  0  0  0  0
  3 15  1  0  0  0  0
  4 16  1  0  0  0  0
  5 17  1  0  0  0  0
  8 18  1  0  0  0  0
  8 19  1  0  0  0  0
  9 20  1  0  0  0  0
  9 21  1  0  0  0  0
 11 22  1  0  0  0  0
 11 23  1  0  0  0  0
 11 24  1  0  0  0  0
M  END
> <Catalog ID>
Z361883070

> <PlateID>
1337959-R-04

> <Well>
G05

> <MW (desalted)>
173.211

> <CLogP>
1.827

> <HBD>
0

> <TPSA>
33.020

> <RotBonds>
2

> <ROCS_ShapeQuery>
x0446_0A_x1080_0A_x0929_0A_x0812_0A_x0719_0A_x1140_0A_x0528_0A_x0310_0A

> <ROCS_TanimotoCombo>
0.282 

> <ROCS_ShapeTanimoto>
0.164 

> <ROCS_ColorTanimoto>
0.118 

> <ROCS_RefTversky>
0.155 

> <ROCS_RefColorTversky>
0.120 

> <ROCS_RefTverskyCombo>
0.274 

> <ROCS_FitTversky>
1.569 

> <ROCS_FitColorTversky>
0.902 

> <ROCS_FitTverskyCombo>
2.471 

> <ROCS_ColorScore>
-4.246

> <ROCS_Overlap>
1822.823

> <ROCS_Rank>
493                 

$$$$
untitled-dbase-140_3
  -OEChem-02082415003D

 31 32  0     0  0  0  0  0  0999 V2000
    5.0271   12.4560   24.5420 C   0  0  0  0  0  0  0  0  0  0  0  0
    5.4727   12.1775   25.9700 C   0  0  0  0  0  0  0  0  0  0  0  0
    5.9341   13.3688   23.7250 C   0  0  0  0  0  0  0  0  0  0  0  0
    6.5439   11.0950   26.0523 C   0  0  0  0  0  0  0  0  0  0  0  0
    7.4133   13.4423   24.0927 C   0  0  0  0  0  0  0  0  0  0  0  0
    7.9566   11.5492   25.7002 C   0  0  0  0  0  0  0  0  0  0  0  0
   10.2254   10.5104   23.0223 C   0  0  0  0  0  0  0  0  0  0  0  0
    7.9195   11.1302   23.1381 C   0  0  0  0  0  0  0  0  0  0  0  0
   10.5367   11.4837   24.1480 C   0  0  0  0  0  0  0  0  0  0  0  0
    8.1985   12.1248   24.2834 C   0  0  0  0  0  0  0  0  0  0  0  0
    8.8598   10.0067   23.1541 N   0  0  0  0  0  0  0  0  0  0  0  0
    9.5864   12.5467   24.1949 O   0  0  0  0  0  0  0  0  0  0  0  0
    4.9215   11.4988   24.0245 H   0  0  0  0  0  0  0  0  0  0  0  0
    4.0293   12.9028   24.5602 H   0  0  0  0  0  0  0  0  0  0  0  0
    5.8703   13.1015   26.3832 H   0  0  0  0  0  0  0  0  0  0  0  0
    4.6144   11.9015   26.5760 H   0  0  0  0  0  0  0  0  0  0  0  0
    5.8564   13.0352   22.6662 H   0  0  0  0  0  0  0  0  0  0  0  0
    5.4902   14.3882   23.7021 H   0  0  0  0  0  0  0  0  0  0  0  0
    6.5183   10.5863   27.0377 H   0  0  0  0  0  0  0  0  0  0  0  0
    6.2663   10.3059   25.3244 H   0  0  0  0  0  0  0  0  0  0  0  0
    7.9519   14.1011   23.3668 H   0  0  0  0  0  0  0  0  0  0  0  0
    7.4491   14.0323   25.0369 H   0  0  0  0  0  0  0  0  0  0  0  0
    8.2278   12.3313   26.4333 H   0  0  0  0  0  0  0  0  0  0  0  0
    8.6607   10.7176   25.8855 H   0  0  0  0  0  0  0  0  0  0  0  0
   10.3425   11.0048   22.0523 H   0  0  0  0  0  0  0  0  0  0  0  0
   10.9259    9.6664   23.0440 H   0  0  0  0  0  0  0  0  0  0  0  0
    6.9032   10.7232   23.2171 H   0  0  0  0  0  0  0  0  0  0  0  0
    7.9829   11.6324   22.1661 H   0  0  0  0  0  0  0  0  0  0  0  0
   10.4860   10.9595   25.1096 H   0  0  0  0  0  0  0  0  0  0  0  0
   11.5523   11.8898   24.0655 H   0  0  0  0  0  0  0  0  0  0  0  0
    8.6548    9.3669   22.3893 H   0  0  0  0  0  0  0  0  0  0  0  0
  1  2  1  0  0  0  0
  1  3  1  0  0  0  0
  2  4  1  0  0  0  0
  3  5  1  0  0  0  0
  4  6  1  0  0  0  0
  5 10  1  0  0  0  0
  6 10  1  0  0  0  0
  7  9  1  0  0  0  0
  7 11  1  0  0  0  0
  8 10  1  0  0  0  0
  8 11  1  0  0  0  0
  9 12  1  0  0  0  0
 10 12  1  0  0  0  0
  1 13  1  0  0  0  0
  1 14  1  0  0  0  0
  2 15  1  0  0  0  0
  2 16  1  0  0  0  0
  3 17  1  0  0  0  0
  3 18  1  0  0  0  0
  4 19  1  0  0  0  0
  4 20  1  0  0  0  0
  5 21  1  0  0  0  0
  5 22  1  0  0  0  0
  6 23  1  0  0  0  0
  6 24  1  0  0  0  0
  7 25  1  0  0  0  0
  7 26  1  0  0  0  0
  8 27  1  0  0  0  0
  8 28  1  0  0  0  0
  9 29  1  0  0  0  0
  9 30  1  0  0  0  0
 11 31  1  0  0  0  0
M  END
> <Catalog ID>
Z959274738

> <PlateID>
1337959-R-03

> <Well>
G06

> <MW (desalted)>
169.264

> <CLogP>
2.142

> <HBD>
1

> <TPSA>
21.260

> <RotBonds>
0

> <ROCS_ShapeQuery>
x0446_0A_x1080_0A_x0929_0A_x0812_0A_x0719_0A_x1140_0A_x0528_0A_x0310_0A

> <ROCS_TanimotoCombo>
0.282 

> <ROCS_ShapeTanimoto>
0.165 

> <ROCS_ColorTanimoto>
0.117 

> <ROCS_RefTversky>
0.155 

> <ROCS_RefColorTversky>
0.124 

> <ROCS_RefTverskyCombo>
0.279 

> <ROCS_FitTversky>
1.663 

> <ROCS_FitColorTversky>
0.666 

> <ROCS_FitTverskyCombo>
2.329 

> <ROCS_ColorScore>
-4.403

> <ROCS_Overlap>
1828.200

> <ROCS_Rank>
494                 

$$$$
untitled-dbase-603_9
  -OEChem-02082415003D

 28 29  0     0  0  0  0  0  0999 V2000
    4.5501   12.3258   25.8288 C   0  0  0  0  0  0  0  0  0  0  0  0
    5.1695   11.1078   25.5487 C   0  0  0  0  0  0  0  0  0  0  0  0
    5.2262   13.5228   25.5926 C   0  0  0  0  0  0  0  0  0  0  0  0
    6.4651   11.0868   25.0325 C   0  0  0  0  0  0  0  0  0  0  0  0
    6.5219   13.5017   25.0763 C   0  0  0  0  0  0  0  0  0  0  0  0
    7.1414   12.2838   24.7963 C   0  0  0  0  0  0  0  0  0  0  0  0
    9.5414   11.0326   24.5502 C   0  0  0  0  0  0  0  0  0  0  0  0
    8.8285   11.7455   22.7346 C   0  0  0  0  0  0  0  0  0  0  0  0
    8.6361   12.2598   24.1998 C   0  0  0  0  0  0  0  0  0  0  0  0
   11.3163   14.7867   24.1534 C   0  0  0  0  0  0  0  0  0  0  0  0
    9.3072   13.6083   24.4660 C   0  0  0  0  0  0  0  0  0  0  0  0
    9.1042   10.4052   23.2877 N   0  0  0  0  0  0  0  0  0  0  0  0
   10.6208   13.5620   23.9446 O   0  0  0  0  0  0  0  0  0  0  0  0
    3.5409   12.3426   26.2298 H   0  0  0  0  0  0  0  0  0  0  0  0
    4.6423   10.1760   25.7320 H   0  0  0  0  0  0  0  0  0  0  0  0
    4.7429   14.4708   25.8103 H   0  0  0  0  0  0  0  0  0  0  0  0
    6.9413   10.1343   24.8163 H   0  0  0  0  0  0  0  0  0  0  0  0
    7.0418   14.4385   24.8946 H   0  0  0  0  0  0  0  0  0  0  0  0
   10.6113   11.2291   24.6160 H   0  0  0  0  0  0  0  0  0  0  0  0
    9.2309   10.4743   25.4366 H   0  0  0  0  0  0  0  0  0  0  0  0
    7.9278   11.7777   22.1174 H   0  0  0  0  0  0  0  0  0  0  0  0
    9.6530   12.1874   22.1756 H   0  0  0  0  0  0  0  0  0  0  0  0
   12.3238   14.7099   23.7374 H   0  0  0  0  0  0  0  0  0  0  0  0
   11.3679   14.9995   25.2242 H   0  0  0  0  0  0  0  0  0  0  0  0
   10.7769   15.5922   23.6495 H   0  0  0  0  0  0  0  0  0  0  0  0
    9.3470   13.7921   25.5376 H   0  0  0  0  0  0  0  0  0  0  0  0
    8.7471   14.3999   23.9727 H   0  0  0  0  0  0  0  0  0  0  0  0
    9.8576    9.9193   22.8011 H   0  0  0  0  0  0  0  0  0  0  0  0
  1  2  2  0  0  0  0
  1  3  1  0  0  0  0
  2  4  1  0  0  0  0
  3  5  2  0  0  0  0
  4  6  2  0  0  0  0
  5  6  1  0  0  0  0
  6  9  1  0  0  0  0
  7  9  1  0  0  0  0
  7 12  1  0  0  0  0
  8  9  1  0  0  0  0
  8 12  1  0  0  0  0
  9 11  1  0  0  0  0
 10 13  1  0  0  0  0
 11 13  1  0  0  0  0
  1 14  1  0  0  0  0
  2 15  1  0  0  0  0
  3 16  1  0  0  0  0
  4 17  1  0  0  0  0
  5 18  1  0  0  0  0
  7 19  1  0  0  0  0
  7 20  1  0  0  0  0
  8 21  1  0  0  0  0
  8 22  1  0  0  0  0
 10 23  1  0  0  0  0
 10 24  1  0  0  0  0
 10 25  1  0  0  0  0
 11 26  1  0  0  0  0
 11 27  1  0  0  0  0
 12 28  1  0  0  0  0
M  END
> <Catalog ID>
Z2299684703

> <PlateID>
1337959-R-14

> <Well>
A10

> <MW (desalted)>
177.243

> <CLogP>
0.623

> <HBD>
1

> <TPSA>
21.260

> <RotBonds>
3

> <ROCS_ShapeQuery>
x0446_0A_x1080_0A_x0929_0A_x0812_0A_x0719_0A_x1140_0A_x0528_0A_x0310_0A

> <ROCS_TanimotoCombo>
0.282 

> <ROCS_ShapeTanimoto>
0.166 

> <ROCS_ColorTanimoto>
0.115 

> <ROCS_RefTversky>
0.157 

> <ROCS_RefColorTversky>
0.123 

> <ROCS_RefTverskyCombo>
0.279 

> <ROCS_FitTversky>
1.604 

> <ROCS_FitColorTversky>
0.660 

> <ROCS_FitTverskyCombo>
2.264 

> <ROCS_ColorScore>
-4.365

> <ROCS_Overlap>
1846.627

> <ROCS_Rank>
495                 

$$$$
untitled-dbase-456_14
  -OEChem-02082415003D

 31 32  0     0  0  0  0  0  0999 V2000
    7.8022   11.2005   24.4180 C   0  0  0  0  0  0  0  0  0  0  0  0
    8.3491   12.2243   23.6252 C   0  0  0  0  0  0  0  0  0  0  0  0
    8.8360   10.3139   24.5637 C   0  0  0  0  0  0  0  0  0  0  0  0
    7.6843   13.4483   23.1506 C   0  0  0  0  0  0  0  0  0  0  0  0
    5.0476   14.7734   22.7144 C   0  0  0  0  0  0  0  0  0  0  0  0
    4.6479   14.7740   24.1617 C   0  0  0  0  0  0  0  0  0  0  0  0
    6.0399   15.1773   23.7672 C   0  0  0  0  0  0  0  0  0  0  0  0
    8.9826    9.0297   25.2599 C   0  0  0  0  0  0  0  0  0  0  0  0
    6.6694   14.1960   26.4699 C   0  0  0  0  0  0  0  0  0  0  0  0
    8.2164   15.9742   25.5807 C   0  0  0  0  0  0  0  0  0  0  0  0
    7.7383   14.5363   25.4415 C   0  0  0  0  0  0  0  0  0  0  0  0
    9.6246   11.9905   23.3038 N   0  0  0  0  0  0  0  0  0  0  0  0
    7.1811   14.3450   24.0803 N   0  0  0  0  0  0  0  0  0  0  0  0
    7.6332   13.6021   21.9309 O   0  0  0  0  0  0  0  0  0  0  0  0
    9.9292   10.7742   23.9033 O   0  0  0  0  0  0  0  0  0  0  0  0
    6.8050   11.1170   24.8247 H   0  0  0  0  0  0  0  0  0  0  0  0
    5.1706   13.8135   22.2279 H   0  0  0  0  0  0  0  0  0  0  0  0
    4.6428   15.5508   22.0778 H   0  0  0  0  0  0  0  0  0  0  0  0
    3.9744   15.5521   24.4988 H   0  0  0  0  0  0  0  0  0  0  0  0
    4.5051   13.8151   24.6446 H   0  0  0  0  0  0  0  0  0  0  0  0
    6.2769   16.2340   23.8312 H   0  0  0  0  0  0  0  0  0  0  0  0
    8.7185    8.1806   24.6036 H   0  0  0  0  0  0  0  0  0  0  0  0
   10.0157    8.8593   25.6175 H   0  0  0  0  0  0  0  0  0  0  0  0
    8.3412    8.9618   26.1590 H   0  0  0  0  0  0  0  0  0  0  0  0
    5.8077   14.8644   26.3725 H   0  0  0  0  0  0  0  0  0  0  0  0
    6.3165   13.1651   26.3538 H   0  0  0  0  0  0  0  0  0  0  0  0
    7.0631   14.2963   27.4873 H   0  0  0  0  0  0  0  0  0  0  0  0
    7.3809   16.6738   25.4681 H   0  0  0  0  0  0  0  0  0  0  0  0
    8.9633   16.2125   24.8163 H   0  0  0  0  0  0  0  0  0  0  0  0
    8.6653   16.1535   26.5640 H   0  0  0  0  0  0  0  0  0  0  0  0
    8.5891   13.8561   25.5574 H   0  0  0  0  0  0  0  0  0  0  0  0
  1  2  1  0  0  0  0
  1  3  2  0  0  0  0
  2  4  1  0  0  0  0
  2 12  2  0  0  0  0
  3  8  1  0  0  0  0
  3 15  1  0  0  0  0
  4 13  1  0  0  0  0
  4 14  2  0  0  0  0
  5  6  1  0  0  0  0
  5  7  1  0  0  0  0
  6  7  1  0  0  0  0
  7 13  1  0  0  0  0
  9 11  1  0  0  0  0
 10 11  1  0  0  0  0
 11 13  1  0  0  0  0
 12 15  1  0  0  0  0
  1 16  1  0  0  0  0
  5 17  1  0  0  0  0
  5 18  1  0  0  0  0
  6 19  1  0  0  0  0
  6 20  1  0  0  0  0
  7 21  1  0  0  0  0
  8 22  1  0  0  0  0
  8 23  1  0  0  0  0
  8 24  1  0  0  0  0
  9 25  1  0  0  0  0
  9 26  1  0  0  0  0
  9 27  1  0  0  0  0
 10 28  1  0  0  0  0
 10 29  1  0  0  0  0
 10 30  1  0  0  0  0
 11 31  1  0  0  0  0
M  END
> <Catalog ID>
Z340495298

> <PlateID>
1337959-R-10

> <Well>
H02

> <MW (desalted)>
208.257

> <CLogP>
0.795

> <HBD>
0

> <TPSA>
46.340

> <RotBonds>
3

> <ROCS_ShapeQuery>
x0446_0A_x1080_0A_x0929_0A_x0812_0A_x0719_0A_x1140_0A_x0528_0A_x0310_0A

> <ROCS_TanimotoCombo>
0.282 

> <ROCS_ShapeTanimoto>
0.171 

> <ROCS_ColorTanimoto>
0.111 

> <ROCS_RefTversky>
0.161 

> <ROCS_RefColorTversky>
0.116 

> <ROCS_RefTverskyCombo>
0.277 

> <ROCS_FitTversky>
1.525 

> <ROCS_FitColorTversky>
0.727 

> <ROCS_FitTverskyCombo>
2.252 

> <ROCS_ColorScore>
-4.116

> <ROCS_Overlap>
1901.115

> <ROCS_Rank>
496                 

$$$$
untitled-dbase-379_2
  -OEChem-02082415003D

 28 29  0     0  0  0  0  0  0999 V2000
    9.1393   10.7680   24.5278 C   0  0  0  0  0  0  0  0  0  0  0  0
    8.6911   11.9248   25.1653 C   0  0  0  0  0  0  0  0  0  0  0  0
    8.8222   11.8285   22.3803 C   0  0  0  0  0  0  0  0  0  0  0  0
    8.3740   12.9853   23.0177 C   0  0  0  0  0  0  0  0  0  0  0  0
    9.2049   10.7198   23.1353 C   0  0  0  0  0  0  0  0  0  0  0  0
    8.3084   13.0335   24.4103 C   0  0  0  0  0  0  0  0  0  0  0  0
    7.9823   14.1241   22.1763 C   0  0  0  0  0  0  0  0  0  0  0  0
    4.7512   15.7719   21.4980 C   0  0  0  0  0  0  0  0  0  0  0  0
    4.4058   13.6799   22.6398 C   0  0  0  0  0  0  0  0  0  0  0  0
    6.0835   15.2815   20.9326 C   0  0  0  0  0  0  0  0  0  0  0  0
    5.7202   13.1330   22.0916 C   0  0  0  0  0  0  0  0  0  0  0  0
    3.8232   14.6621   21.7235 N   0  0  0  0  0  0  0  0  0  0  0  0
    6.6502   14.2131   21.7650 N   0  0  0  0  0  0  0  0  0  0  0  0
    8.8720   14.9277   21.9003 O   0  0  0  0  0  0  0  0  0  0  0  0
    9.6351    9.6086   22.5231 F   0  0  0  0  0  0  0  0  0  0  0  0
    7.7061   14.5819   25.3266 Br  0  0  0  0  0  0  0  0  0  0  0  0
    9.4370    9.9046   25.1149 H   0  0  0  0  0  0  0  0  0  0  0  0
    8.6466   11.9431   26.2514 H   0  0  0  0  0  0  0  0  0  0  0  0
    8.8781   11.7772   21.2960 H   0  0  0  0  0  0  0  0  0  0  0  0
    4.9158   16.3221   22.4326 H   0  0  0  0  0  0  0  0  0  0  0  0
    4.2974   16.4726   20.7890 H   0  0  0  0  0  0  0  0  0  0  0  0
    3.6986   12.8531   22.7677 H   0  0  0  0  0  0  0  0  0  0  0  0
    4.5607   14.1269   23.6295 H   0  0  0  0  0  0  0  0  0  0  0  0
    5.9425   14.8623   19.9287 H   0  0  0  0  0  0  0  0  0  0  0  0
    6.7728   16.1249   20.8396 H   0  0  0  0  0  0  0  0  0  0  0  0
    6.1703   12.4462   22.8160 H   0  0  0  0  0  0  0  0  0  0  0  0
    5.5463   12.5672   21.1679 H   0  0  0  0  0  0  0  0  0  0  0  0
    2.9572   15.0236   22.1220 H   0  0  0  0  0  0  0  0  0  0  0  0
  1  2  1  0  0  0  0
  1  5  2  0  0  0  0
  2  6  2  0  0  0  0
  3  4  2  0  0  0  0
  3  5  1  0  0  0  0
  4  6  1  0  0  0  0
  4  7  1  0  0  0  0
  5 15  1  0  0  0  0
  6 16  1  0  0  0  0
  7 13  1  0  0  0  0
  7 14  2  0  0  0  0
  8 10  1  0  0  0  0
  8 12  1  0  0  0  0
  9 11  1  0  0  0  0
  9 12  1  0  0  0  0
 10 13  1  0  0  0  0
 11 13  1  0  0  0  0
  1 17  1  0  0  0  0
  2 18  1  0  0  0  0
  3 19  1  0  0  0  0
  8 20  1  0  0  0  0
  8 21  1  0  0  0  0
  9 22  1  0  0  0  0
  9 23  1  0  0  0  0
 10 24  1  0  0  0  0
 10 25  1  0  0  0  0
 11 26  1  0  0  0  0
 11 27  1  0  0  0  0
 12 28  1  0  0  0  0
M  END
> <Catalog ID>
Z1455770459

> <PlateID>
1337959-R-09

> <Well>
B05

> <MW (desalted)>
287.128

> <CLogP>
1.866

> <HBD>
1

> <TPSA>
32.340

> <RotBonds>
1

> <ROCS_ShapeQuery>
x0446_0A_x1080_0A_x0929_0A_x0812_0A_x0719_0A_x1140_0A_x0528_0A_x0310_0A

> <ROCS_TanimotoCombo>
0.282 

> <ROCS_ShapeTanimoto>
0.175 

> <ROCS_ColorTanimoto>
0.106 

> <ROCS_RefTversky>
0.165 

> <ROCS_RefColorTversky>
0.116 

> <ROCS_RefTverskyCombo>
0.282 

> <ROCS_FitTversky>
1.524 

> <ROCS_FitColorTversky>
0.548 

> <ROCS_FitTverskyCombo>
2.072 

> <ROCS_ColorScore>
-4.141

> <ROCS_Overlap>
1952.486

> <ROCS_Rank>
497                 

$$$$
untitled-dbase-151_2
  -OEChem-02082415003D

 24 24  0     0  0  0  0  0  0999 V2000
    8.8463   10.6393   23.5195 C   0  0  0  0  0  0  0  0  0  0  0  0
    7.6933   10.9457   24.2422 C   0  0  0  0  0  0  0  0  0  0  0  0
    9.6073   11.6623   22.9538 C   0  0  0  0  0  0  0  0  0  0  0  0
    8.0622   13.2981   23.8333 C   0  0  0  0  0  0  0  0  0  0  0  0
    7.3012   12.2751   24.3991 C   0  0  0  0  0  0  0  0  0  0  0  0
    9.2152   12.9917   23.1107 C   0  0  0  0  0  0  0  0  0  0  0  0
    6.0992   12.5942   25.1527 C   0  0  0  0  0  0  0  0  0  0  0  0
   11.5841   13.5619   21.5387 C   0  0  0  0  0  0  0  0  0  0  0  0
   10.9552   15.2322   23.7115 C   0  0  0  0  0  0  0  0  0  0  0  0
    5.6607   13.7317   25.3535 O   0  0  0  0  0  0  0  0  0  0  0  0
    9.4483   15.2209   21.4647 O   0  0  0  0  0  0  0  0  0  0  0  0
    5.4764   11.4837   25.6343 O   0  0  0  0  0  0  0  0  0  0  0  0
   10.1789   14.2868   22.3940 P   0  0  0  0  0  0  0  0  0  0  0  0
    9.1522    9.6043   23.3973 H   0  0  0  0  0  0  0  0  0  0  0  0
    7.1084   10.1403   24.6792 H   0  0  0  0  0  0  0  0  0  0  0  0
   10.5046   11.4187   22.3919 H   0  0  0  0  0  0  0  0  0  0  0  0
    7.7617   14.3361   23.9525 H   0  0  0  0  0  0  0  0  0  0  0  0
   12.1947   14.3478   21.0872 H   0  0  0  0  0  0  0  0  0  0  0  0
   12.2001   12.9961   22.2421 H   0  0  0  0  0  0  0  0  0  0  0  0
   11.2370   12.8879   20.7516 H   0  0  0  0  0  0  0  0  0  0  0  0
   11.5574   16.0402   23.2888 H   0  0  0  0  0  0  0  0  0  0  0  0
   10.1916   15.6643   24.3630 H   0  0  0  0  0  0  0  0  0  0  0  0
   11.6022   14.5837   24.3073 H   0  0  0  0  0  0  0  0  0  0  0  0
    4.6634   11.6884   26.1438 H   0  0  0  0  0  0  0  0  0  0  0  0
  1  2  2  0  0  0  0
  1  3  1  0  0  0  0
  2  5  1  0  0  0  0
  3  6  2  0  0  0  0
  4  5  2  0  0  0  0
  4  6  1  0  0  0  0
  5  7  1  0  0  0  0
  6 13  1  0  0  0  0
  7 10  2  0  0  0  0
  7 12  1  0  0  0  0
  8 13  1  0  0  0  0
  9 13  1  0  0  0  0
 11 13  2  0  0  0  0
  1 14  1  0  0  0  0
  2 15  1  0  0  0  0
  3 16  1  0  0  0  0
  4 17  1  0  0  0  0
  8 18  1  0  0  0  0
  8 19  1  0  0  0  0
  8 20  1  0  0  0  0
  9 21  1  0  0  0  0
  9 22  1  0  0  0  0
  9 23  1  0  0  0  0
 12 24  1  0  0  0  0
M  END
> <Catalog ID>
Z1262523765

> <PlateID>
1337959-R-04

> <Well>
A03

> <MW (desalted)>
198.156

> <CLogP>
-0.745

> <HBD>
1

> <TPSA>
54.370

> <RotBonds>
2

> <ROCS_ShapeQuery>
x0446_0A_x1080_0A_x0929_0A_x0812_0A_x0719_0A_x1140_0A_x0528_0A_x0310_0A

> <ROCS_TanimotoCombo>
0.281 

> <ROCS_ShapeTanimoto>
0.180 

> <ROCS_ColorTanimoto>
0.102 

> <ROCS_RefTversky>
0.167 

> <ROCS_RefColorTversky>
0.109 

> <ROCS_RefTverskyCombo>
0.276 

> <ROCS_FitTversky>
1.748 

> <ROCS_FitColorTversky>
0.588 

> <ROCS_FitTverskyCombo>
2.337 

> <ROCS_ColorScore>
-3.896

> <ROCS_Overlap>
1967.875

> <ROCS_Rank>
498                 

$$$$
untitled-dbase-446_6
  -OEChem-02082415003D

 35 36  0     0  0  0  0  0  0999 V2000
   12.4284   15.7225   21.9365 C   0  0  0  0  0  0  0  0  0  0  0  0
   12.8336   14.7760   22.8774 C   0  0  0  0  0  0  0  0  0  0  0  0
   11.1355   15.6781   21.4146 C   0  0  0  0  0  0  0  0  0  0  0  0
   11.9461   13.7848   23.2964 C   0  0  0  0  0  0  0  0  0  0  0  0
   10.2480   14.6869   21.8337 C   0  0  0  0  0  0  0  0  0  0  0  0
   10.6533   13.7403   22.7746 C   0  0  0  0  0  0  0  0  0  0  0  0
    8.7804   11.7002   25.1788 C   0  0  0  0  0  0  0  0  0  0  0  0
    9.2390   10.3626   23.0971 C   0  0  0  0  0  0  0  0  0  0  0  0
    8.9250   12.9848   24.3625 C   0  0  0  0  0  0  0  0  0  0  0  0
    9.3784   11.6668   22.3078 C   0  0  0  0  0  0  0  0  0  0  0  0
    8.3368   10.5098   24.3239 C   0  0  0  0  0  0  0  0  0  0  0  0
    6.0948   10.6747   25.1146 C   0  0  0  0  0  0  0  0  0  0  0  0
    8.8694   14.6630   21.2581 C   0  0  0  0  0  0  0  0  0  0  0  0
    9.7904   12.7549   23.1996 N   0  0  0  0  0  0  0  0  0  0  0  0
    6.9487   10.6188   23.9397 N   0  0  0  0  0  0  0  0  0  0  0  0
    8.6395   15.6587   20.3532 F   0  0  0  0  0  0  0  0  0  0  0  0
    8.5750   13.5048   20.5990 F   0  0  0  0  0  0  0  0  0  0  0  0
    7.9031   14.8007   22.2107 F   0  0  0  0  0  0  0  0  0  0  0  0
   13.1195   16.4942   21.6103 H   0  0  0  0  0  0  0  0  0  0  0  0
   13.8403   14.8108   23.2837 H   0  0  0  0  0  0  0  0  0  0  0  0
   10.8296   16.4203   20.6820 H   0  0  0  0  0  0  0  0  0  0  0  0
   12.2732   13.0525   24.0302 H   0  0  0  0  0  0  0  0  0  0  0  0
    9.7474   11.4639   25.6423 H   0  0  0  0  0  0  0  0  0  0  0  0
    8.0776   11.8660   26.0048 H   0  0  0  0  0  0  0  0  0  0  0  0
    8.8651    9.5714   22.4354 H   0  0  0  0  0  0  0  0  0  0  0  0
   10.2360   10.0405   23.4258 H   0  0  0  0  0  0  0  0  0  0  0  0
    7.9413   13.3451   24.0353 H   0  0  0  0  0  0  0  0  0  0  0  0
    9.3576   13.7592   25.0089 H   0  0  0  0  0  0  0  0  0  0  0  0
   10.1279   11.5169   21.5204 H   0  0  0  0  0  0  0  0  0  0  0  0
    8.4313   11.9196   21.8143 H   0  0  0  0  0  0  0  0  0  0  0  0
    8.4448    9.5872   24.9393 H   0  0  0  0  0  0  0  0  0  0  0  0
    6.3643   11.5507   25.7230 H   0  0  0  0  0  0  0  0  0  0  0  0
    5.0438   10.7560   24.8004 H   0  0  0  0  0  0  0  0  0  0  0  0
    6.2299    9.7595   25.7098 H   0  0  0  0  0  0  0  0  0  0  0  0
    6.7010    9.8096   23.3760 H   0  0  0  0  0  0  0  0  0  0  0  0
  1  2  2  0  0  0  0
  1  3  1  0  0  0  0
  2  4  1  0  0  0  0
  3  5  2  0  0  0  0
  4  6  2  0  0  0  0
  5  6  1  0  0  0  0
  5 13  1  0  0  0  0
  6 14  1  0  0  0  0
  7  9  1  0  0  0  0
  7 11  1  0  0  0  0
  8 10  1  0  0  0  0
  8 11  1  0  0  0  0
  9 14  1  0  0  0  0
 10 14  1  0  0  0  0
 11 15  1  0  0  0  0
 12 15  1  0  0  0  0
 13 16  1  0  0  0  0
 13 17  1  0  0  0  0
 13 18  1  0  0  0  0
  1 19  1  0  0  0  0
  2 20  1  0  0  0  0
  3 21  1  0  0  0  0
  4 22  1  0  0  0  0
  7 23  1  0  0  0  0
  7 24  1  0  0  0  0
  8 25  1  0  0  0  0
  8 26  1  0  0  0  0
  9 27  1  0  0  0  0
  9 28  1  0  0  0  0
 10 29  1  0  0  0  0
 10 30  1  0  0  0  0
 11 31  1  0  0  0  0
 12 32  1  0  0  0  0
 12 33  1  0  0  0  0
 12 34  1  0  0  0  0
 15 35  1  0  0  0  0
M  END
> <Catalog ID>
Z415647018

> <PlateID>
1337959-R-10

> <Well>
E09

> <MW (desalted)>
258.283

> <CLogP>
2.321

> <HBD>
1

> <TPSA>
15.270

> <RotBonds>
3

> <ROCS_ShapeQuery>
x0446_0A_x1080_0A_x0929_0A_x0812_0A_x0719_0A_x1140_0A_x0528_0A_x0310_0A

> <ROCS_TanimotoCombo>
0.281 

> <ROCS_ShapeTanimoto>
0.222 

> <ROCS_ColorTanimoto>
0.060 

> <ROCS_RefTversky>
0.203 

> <ROCS_RefColorTversky>
0.065 

> <ROCS_RefTverskyCombo>
0.268 

> <ROCS_FitTversky>
1.731 

> <ROCS_FitColorTversky>
0.410 

> <ROCS_FitTverskyCombo>
2.141 

> <ROCS_ColorScore>
-2.322

> <ROCS_Overlap>
2392.584

> <ROCS_Rank>
499                 

$$$$
untitled-dbase-355_7
  -OEChem-02082415003D

 31 32  0     0  0  0  0  0  0999 V2000
    7.1243   12.4536   24.4743 C   0  0  0  0  0  0  0  0  0  0  0  0
    7.5419   13.8376   22.6542 C   0  0  0  0  0  0  0  0  0  0  0  0
    7.9895   12.7368   23.4404 C   0  0  0  0  0  0  0  0  0  0  0  0
    6.3514   14.3537   23.1171 C   0  0  0  0  0  0  0  0  0  0  0  0
    8.2307   14.3715   21.5045 C   0  0  0  0  0  0  0  0  0  0  0  0
   11.9455   10.9023   23.8629 C   0  0  0  0  0  0  0  0  0  0  0  0
   10.7168    9.9979   23.8663 C   0  0  0  0  0  0  0  0  0  0  0  0
   11.7816   12.0706   22.8954 C   0  0  0  0  0  0  0  0  0  0  0  0
    9.4393   10.7832   24.1577 C   0  0  0  0  0  0  0  0  0  0  0  0
   10.5093   12.8661   23.1820 C   0  0  0  0  0  0  0  0  0  0  0  0
    9.2635   11.9613   23.1820 C   0  0  0  0  0  0  0  0  0  0  0  0
    5.6541   15.3987   22.6010 N   0  0  0  0  0  0  0  0  0  0  0  0
    7.9254   13.8413   20.2482 N   0  0  0  0  0  0  0  0  0  0  0  0
    9.0916   15.2711   21.6100 O   0  0  0  0  0  0  0  0  0  0  0  0
    5.7786   13.5124   24.4942 S   0  0  0  0  0  0  0  0  0  0  0  0
    7.2138   11.6770   25.2215 H   0  0  0  0  0  0  0  0  0  0  0  0
   12.1171   11.2884   24.8752 H   0  0  0  0  0  0  0  0  0  0  0  0
   12.8317   10.3187   23.5888 H   0  0  0  0  0  0  0  0  0  0  0  0
   10.6252    9.5020   22.8921 H   0  0  0  0  0  0  0  0  0  0  0  0
   10.8425    9.2085   24.6158 H   0  0  0  0  0  0  0  0  0  0  0  0
   12.6526   12.7317   22.9653 H   0  0  0  0  0  0  0  0  0  0  0  0
   11.7500   11.6914   21.8664 H   0  0  0  0  0  0  0  0  0  0  0  0
    8.5758   10.1092   24.0943 H   0  0  0  0  0  0  0  0  0  0  0  0
    9.4697   11.1534   25.1913 H   0  0  0  0  0  0  0  0  0  0  0  0
   10.6080   13.3688   24.1534 H   0  0  0  0  0  0  0  0  0  0  0  0
   10.3998   13.6589   22.4314 H   0  0  0  0  0  0  0  0  0  0  0  0
    9.1591   11.5345   22.1570 H   0  0  0  0  0  0  0  0  0  0  0  0
    6.0067   15.9430   21.8054 H   0  0  0  0  0  0  0  0  0  0  0  0
    4.7949   15.7452   23.0429 H   0  0  0  0  0  0  0  0  0  0  0  0
    7.2341   13.1023   20.1801 H   0  0  0  0  0  0  0  0  0  0  0  0
    8.3757   14.1746   19.4020 H   0  0  0  0  0  0  0  0  0  0  0  0
  1  3  2  0  0  0  0
  1 15  1  0  0  0  0
  2  3  1  0  0  0  0
  2  4  2  0  0  0  0
  2  5  1  0  0  0  0
  3 11  1  0  0  0  0
  4 12  1  0  0  0  0
  4 15  1  0  0  0  0
  5 13  1  0  0  0  0
  5 14  2  0  0  0  0
  6  7  1  0  0  0  0
  6  8  1  0  0  0  0
  7  9  1  0  0  0  0
  8 10  1  0  0  0  0
  9 11  1  0  0  0  0
 10 11  1  0  0  0  0
  1 16  1  0  0  0  0
  6 17  1  0  0  0  0
  6 18  1  0  0  0  0
  7 19  1  0  0  0  0
  7 20  1  0  0  0  0
  8 21  1  0  0  0  0
  8 22  1  0  0  0  0
  9 23  1  0  0  0  0
  9 24  1  0  0  0  0
 10 25  1  0  0  0  0
 10 26  1  0  0  0  0
 11 27  1  0  0  0  0
 12 28  1  0  0  0  0
 12 29  1  0  0  0  0
 13 30  1  0  0  0  0
 13 31  1  0  0  0  0
M  END
> <Catalog ID>
Z448247422

> <PlateID>
1337959-R-08

> <Well>
F10

> <MW (desalted)>
224.323

> <CLogP>
2.178

> <HBD>
2

> <TPSA>
69.110

> <RotBonds>
2

> <ROCS_ShapeQuery>
x0446_0A_x1080_0A_x0929_0A_x0812_0A_x0719_0A_x1140_0A_x0528_0A_x0310_0A

> <ROCS_TanimotoCombo>
0.281 

> <ROCS_ShapeTanimoto>
0.180 

> <ROCS_ColorTanimoto>
0.100 

> <ROCS_RefTversky>
0.169 

> <ROCS_RefColorTversky>
0.111 

> <ROCS_RefTverskyCombo>
0.279 

> <ROCS_FitTversky>
1.628 

> <ROCS_FitColorTversky>
0.522 

> <ROCS_FitTverskyCombo>
2.149 

> <ROCS_ColorScore>
-3.944

> <ROCS_Overlap>
1987.625

> <ROCS_Rank>
500                 

$$$$
