EN300-7444943
     RDKit          3D

 14 15  0  0  0  0  0  0  0  0999 V2000
   10.9064   12.9205   23.8462 O   0  0  0  0  0  0  0  0  0  0  0  0
   11.5365   13.6231   22.9950 C   0  0  0  0  0  0  0  0  0  0  0  0
   12.9480   13.7490   23.0838 O   0  0  0  0  0  0  0  0  0  0  0  0
   10.7790   14.3287   21.8820 C   0  0  0  0  0  0  0  0  0  0  0  0
   11.4553   15.0660   20.9601 C   0  0  0  0  0  0  0  0  0  0  0  0
   10.6979   15.7714   19.8471 C   0  0  0  0  0  0  0  0  0  0  0  0
   11.3319   15.8457   18.6168 C   0  0  0  0  0  0  0  0  0  0  0  0
   10.8049   16.6043   17.5867 C   0  0  0  0  0  0  0  0  0  0  0  0
    9.6119   17.2345   17.8540 C   0  0  0  0  0  0  0  0  0  0  0  0
    8.8991   18.0091   16.9665 O   0  0  0  0  0  0  0  0  0  0  0  0
    7.7421   18.3954   17.6183 C   0  0  0  0  0  0  0  0  0  0  0  0
    7.7371   17.9244   18.8986 C   0  0  0  0  0  0  0  0  0  0  0  0
    8.9413   17.1459   19.0578 C   0  0  0  0  0  0  0  0  0  0  0  0
    9.5131   16.4057   20.0824 C   0  0  0  0  0  0  0  0  0  0  0  0
  1  2  2  0
  2  3  1  0
  2  4  1  0
  4  5  2  0
  5  6  1  0
  6  7  2  0
  7  8  1  0
  8  9  2  0
  9 10  1  0
 10 11  1  0
 11 12  2  0
 12 13  1  0
  9 13  1  0
 13 14  2  0
  6 14  1  0
M  END
>  <name>  (1) 
amido-EN300-7444943

>  <comRMSD>  (1) 
0.427565

>  <CN_RMSD>  (1) 
0.653124

>  <∆∆G>  (1) 
-6.99911

>  <MMFF_score>  (1) 
-2.820917

>  <Gold.Goldscore.Fitness>  (1) 
51.4244

>  <Gold.Goldscore.Internal.Vdw>  (1) 
-0.1602

>  <Gold.Goldscore.Internal.Torsion>  (1) 
-2.4303

>  <Gold.Goldscore.External.Vdw>  (1) 
33.0388

>  <Gold.Goldscore.Internal.HBond>  (1) 
0.0000

>  <Gold.Goldscore.External.HBond>  (1) 
6.0000

$$$$
EN300-16798
     RDKit          3D

 14 14  0  0  0  0  0  0  0  0999 V2000
    7.3651   18.1344   20.8687 C   0  0  0  0  0  0  0  0  0  0  0  0
    7.6958   17.8710   19.5132 O   0  0  0  0  0  0  0  0  0  0  0  0
    8.8619   17.2602   19.2033 C   0  0  0  0  0  0  0  0  0  0  0  0
    9.4880   16.5467   20.1973 C   0  0  0  0  0  0  0  0  0  0  0  0
   10.6683   15.8798   19.9321 C   0  0  0  0  0  0  0  0  0  0  0  0
   11.3458   15.0750   21.0292 C   0  0  0  0  0  0  0  0  0  0  0  0
   10.6052   14.2715   21.8396 C   0  0  0  0  0  0  0  0  0  0  0  0
   11.2827   13.4667   22.9368 C   0  0  0  0  0  0  0  0  0  0  0  0
   10.5806   12.8382   23.7896 O   0  0  0  0  0  0  0  0  0  0  0  0
   12.6999   13.4173   23.0089 O   0  0  0  0  0  0  0  0  0  0  0  0
   11.2325   15.9407   18.6809 C   0  0  0  0  0  0  0  0  0  0  0  0
   10.6299   16.6771   17.6847 C   0  0  0  0  0  0  0  0  0  0  0  0
    9.4344   17.3644   17.9186 C   0  0  0  0  0  0  0  0  0  0  0  0
    8.8193   18.1389   16.8996 O   0  0  0  0  0  0  0  0  0  0  0  0
  1  2  1  0
  2  3  1  0
  3  4  2  0
  4  5  1  0
  5  6  1  0
  6  7  2  0
  7  8  1  0
  8  9  2  0
  8 10  1  0
  5 11  2  0
 11 12  1  0
 12 13  2  0
  3 13  1  0
 13 14  1  0
M  END
>  <name>  (2) 
amido-EN300-16798

>  <comRMSD>  (2) 
0.502096

>  <CN_RMSD>  (2) 
0.674408

>  <∆∆G>  (2) 
-36.926925

>  <MMFF_score>  (2) 
-1.47296

>  <Gold.Goldscore.Fitness>  (2) 
51.407

>  <Gold.Goldscore.Internal.Vdw>  (2) 
-5.3908

>  <Gold.Goldscore.Internal.Torsion>  (2) 
-4.1603

>  <Gold.Goldscore.External.Vdw>  (2) 
33.1029

>  <Gold.Goldscore.Internal.HBond>  (2) 
0.0000

>  <Gold.Goldscore.External.HBond>  (2) 
5.9595

$$$$
EN300-1067793
     RDKit          3D

 13 13  0  0  0  0  0  0  0  0999 V2000
   10.6898   13.6072   24.1039 O   0  0  0  0  0  0  0  0  0  0  0  0
   11.1965   13.9067   22.9775 C   0  0  0  0  0  0  0  0  0  0  0  0
   12.5298   13.5233   22.6743 O   0  0  0  0  0  0  0  0  0  0  0  0
   10.3755   14.6752   21.9549 C   0  0  0  0  0  0  0  0  0  0  0  0
   10.9957   15.3172   20.9283 C   0  0  0  0  0  0  0  0  0  0  0  0
   10.1747   16.0857   19.9058 C   0  0  0  0  0  0  0  0  0  0  0  0
    8.9516   16.6966   20.2028 C   0  0  0  0  0  0  0  0  0  0  0  0
    8.3410   17.4751   19.2050 C   0  0  0  0  0  0  0  0  0  0  0  0
    8.9358   17.6555   17.9674 C   0  0  0  0  0  0  0  0  0  0  0  0
    8.3617   18.3983   16.9744 O   0  0  0  0  0  0  0  0  0  0  0  0
   10.1606   17.0418   17.6919 C   0  0  0  0  0  0  0  0  0  0  0  0
   10.8037   17.2203   16.5075 O   0  0  0  0  0  0  0  0  0  0  0  0
   10.7591   16.2602   18.6644 C   0  0  0  0  0  0  0  0  0  0  0  0
  1  2  2  0
  2  3  1  0
  2  4  1  0
  4  5  2  0
  5  6  1  0
  6  7  2  0
  7  8  1  0
  8  9  2  0
  9 10  1  0
  9 11  1  0
 11 12  1  0
 11 13  2  0
  6 13  1  0
M  END
>  <name>  (3) 
amido-EN300-1067793

>  <comRMSD>  (3) 
0.533425

>  <CN_RMSD>  (3) 
0.799521

>  <∆∆G>  (3) 
-14.926478

>  <MMFF_score>  (3) 
-8.9961

>  <Gold.Goldscore.Fitness>  (3) 
50.0855

>  <Gold.Goldscore.Internal.Vdw>  (3) 
-1.7826

>  <Gold.Goldscore.Internal.Torsion>  (3) 
-2.3073

>  <Gold.Goldscore.External.Vdw>  (3) 
28.4423

>  <Gold.Goldscore.Internal.HBond>  (3) 
0.0000

>  <Gold.Goldscore.External.HBond>  (3) 
12.0000

$$$$
EN300-51296
     RDKit          3D

 14 14  0  0  0  0  0  0  0  0999 V2000
    6.5143   18.9337   19.8052 C   0  0  0  0  0  0  0  0  0  0  0  0
    7.6873   18.0364   19.7172 C   0  0  0  0  0  0  0  0  0  0  0  0
    8.2456   17.0957   20.5286 C   0  0  0  0  0  0  0  0  0  0  0  0
    9.4711   16.6929   19.8826 C   0  0  0  0  0  0  0  0  0  0  0  0
   10.4748   15.6796   20.4082 C   0  0  0  0  0  0  0  0  0  0  0  0
   11.6002   15.5430   19.8336 O   0  0  0  0  0  0  0  0  0  0  0  0
   10.1437   14.8575   21.5809 N   0  0  0  0  0  0  0  0  0  0  0  0
   11.1145   13.8775   22.0892 C   0  0  0  0  0  0  0  0  0  0  0  0
   12.0624   14.5607   23.0613 C   0  0  0  0  0  0  0  0  0  0  0  0
   11.8247   15.7460   23.4538 O   0  0  0  0  0  0  0  0  0  0  0  0
   13.2137   13.8748   23.5308 O   0  0  0  0  0  0  0  0  0  0  0  0
    9.5612   17.3756   18.7357 C   0  0  0  0  0  0  0  0  0  0  0  0
   10.5496   17.4213   17.6304 C   0  0  0  0  0  0  0  0  0  0  0  0
    8.4770   18.2193   18.6139 O   0  0  0  0  0  0  0  0  0  0  0  0
  1  2  1  0
  2  3  2  0
  3  4  1  0
  4  5  1  0
  5  6  2  0
  5  7  1  0
  7  8  1  0
  8  9  1  0
  9 10  2  0
  9 11  1  0
  4 12  2  0
 12 13  1  0
 12 14  1  0
  2 14  1  0
M  END
>  <name>  (4) 
amido-EN300-51296

>  <comRMSD>  (4) 
0.56817

>  <CN_RMSD>  (4) 
0.473116

>  <∆∆G>  (4) 
-33.661135

>  <MMFF_score>  (4) 
-13.028335

>  <Gold.Goldscore.Fitness>  (4) 
48.1352

>  <Gold.Goldscore.Internal.Vdw>  (4) 
0.1492

>  <Gold.Goldscore.Internal.Torsion>  (4) 
-2.1400

>  <Gold.Goldscore.External.Vdw>  (4) 
31.5850

>  <Gold.Goldscore.Internal.HBond>  (4) 
0.0000

>  <Gold.Goldscore.External.HBond>  (4) 
6.0000

$$$$
EN300-331721
     RDKit          3D

 14 15  0  0  0  0  0  0  0  0999 V2000
   10.6329   12.4713   23.5705 O   0  0  0  0  0  0  0  0  0  0  0  0
   11.3531   13.2362   22.8553 C   0  0  0  0  0  0  0  0  0  0  0  0
   12.7552   13.2978   23.0716 O   0  0  0  0  0  0  0  0  0  0  0  0
   10.7137   14.0849   21.7686 C   0  0  0  0  0  0  0  0  0  0  0  0
   11.4909   14.8619   20.9667 C   0  0  0  0  0  0  0  0  0  0  0  0
   10.8515   15.7107   19.8800 C   0  0  0  0  0  0  0  0  0  0  0  0
   11.4815   15.8157   18.6447 C   0  0  0  0  0  0  0  0  0  0  0  0
   10.9044   16.6001   17.6265 C   0  0  0  0  0  0  0  0  0  0  0  0
    9.7402   17.2449   17.9310 C   0  0  0  0  0  0  0  0  0  0  0  0
    9.1428   17.1539   19.1718 C   0  0  0  0  0  0  0  0  0  0  0  0
    9.6663   16.3875   20.1748 C   0  0  0  0  0  0  0  0  0  0  0  0
    7.9888   17.8925   19.1956 O   0  0  0  0  0  0  0  0  0  0  0  0
    7.9299   18.5582   17.9355 C   0  0  0  0  0  0  0  0  0  0  0  0
    8.9728   18.0247   17.1050 O   0  0  0  0  0  0  0  0  0  0  0  0
  1  2  2  0
  2  3  1  0
  2  4  1  0
  4  5  2  0
  5  6  1  0
  6  7  2  0
  7  8  1  0
  8  9  2  0
  9 10  1  0
 10 11  2  0
  6 11  1  0
 10 12  1  0
 12 13  1  0
 13 14  1  0
  9 14  1  0
M  END
>  <name>  (5) 
amido-EN300-331721

>  <comRMSD>  (5) 
0.464063

>  <CN_RMSD>  (5) 
0.664791

>  <∆∆G>  (5) 
-21.652169

>  <MMFF_score>  (5) 
-4.333502

>  <Gold.Goldscore.Fitness>  (5) 
47.1813

>  <Gold.Goldscore.Internal.Vdw>  (5) 
-0.1127

>  <Gold.Goldscore.Internal.Torsion>  (5) 
-2.7173

>  <Gold.Goldscore.External.Vdw>  (5) 
30.7990

>  <Gold.Goldscore.Internal.HBond>  (5) 
0.0000

>  <Gold.Goldscore.External.HBond>  (5) 
4.8388

$$$$
EN300-103435
     RDKit          3D

 14 14  0  0  0  0  0  0  0  0999 V2000
    8.3505   15.5154   21.1615 C   0  0  0  0  0  0  0  0  0  0  0  0
    9.2685   16.0077   20.0546 C   0  0  0  0  0  0  0  0  0  0  0  0
    8.7303   16.8644   19.1152 C   0  0  0  0  0  0  0  0  0  0  0  0
    9.4201   17.2079   18.0390 C   0  0  0  0  0  0  0  0  0  0  0  0
    8.8323   18.0860   17.0904 O   0  0  0  0  0  0  0  0  0  0  0  0
   10.6436   16.7533   17.8256 C   0  0  0  0  0  0  0  0  0  0  0  0
   11.2443   15.8924   18.7236 C   0  0  0  0  0  0  0  0  0  0  0  0
   12.4202   15.4594   18.5120 O   0  0  0  0  0  0  0  0  0  0  0  0
   10.5476   15.5067   19.8596 N   0  0  0  0  0  0  0  0  0  0  0  0
   11.1511   14.5875   20.8351 C   0  0  0  0  0  0  0  0  0  0  0  0
   11.8226   15.3890   21.9383 C   0  0  0  0  0  0  0  0  0  0  0  0
   11.9867   14.5155   23.1714 C   0  0  0  0  0  0  0  0  0  0  0  0
   11.1443   14.5906   24.1200 O   0  0  0  0  0  0  0  0  0  0  0  0
   13.0812   13.6154   23.2633 O   0  0  0  0  0  0  0  0  0  0  0  0
  1  2  1  0
  2  3  2  0
  3  4  1  0
  4  5  1  0
  4  6  2  0
  6  7  1  0
  7  8  2  0
  7  9  1  0
  2  9  1  0
  9 10  1  0
 10 11  1  0
 11 12  1  0
 12 13  2  0
 12 14  1  0
M  END
>  <name>  (6) 
amido-EN300-103435

>  <comRMSD>  (6) 
0.496922

>  <CN_RMSD>  (6) 
0.713987

>  <∆∆G>  (6) 
-24.150695

>  <MMFF_score>  (6) 
-20.677517

>  <Gold.Goldscore.Fitness>  (6) 
46.5683

>  <Gold.Goldscore.Internal.Vdw>  (6) 
-2.8168

>  <Gold.Goldscore.Internal.Torsion>  (6) 
-3.0221

>  <Gold.Goldscore.External.Vdw>  (6) 
31.0406

>  <Gold.Goldscore.Internal.HBond>  (6) 
0.0000

>  <Gold.Goldscore.External.HBond>  (6) 
5.2599

$$$$
EN300-146788
     RDKit          3D

 14 15  0  0  0  0  0  0  0  0999 V2000
   12.7873   13.3117   22.0058 O   0  0  0  0  0  0  0  0  0  0  0  0
   11.5354   13.4815   22.1439 C   0  0  0  0  0  0  0  0  0  0  0  0
   10.8335   12.7891   23.1658 O   0  0  0  0  0  0  0  0  0  0  0  0
   10.7895   14.4256   21.2153 C   0  0  0  0  0  0  0  0  0  0  0  0
    9.6392   14.9031   21.6458 C   0  0  0  0  0  0  0  0  0  0  0  0
    8.9254   15.7640   20.9404 C   0  0  0  0  0  0  0  0  0  0  0  0
    9.3552   16.1762   19.7628 C   0  0  0  0  0  0  0  0  0  0  0  0
    8.6505   17.0833   18.9796 C   0  0  0  0  0  0  0  0  0  0  0  0
    9.4206   17.7885   18.0237 C   0  0  0  0  0  0  0  0  0  0  0  0
   10.4684   17.1191   17.4342 C   0  0  0  0  0  0  0  0  0  0  0  0
   10.9446   17.5319   16.1617 O   0  0  0  0  0  0  0  0  0  0  0  0
   11.0254   16.1083   18.0386 N   0  0  0  0  0  0  0  0  0  0  0  0
   10.5786   15.6888   19.2612 C   0  0  0  0  0  0  0  0  0  0  0  0
   11.2941   14.7864   20.0404 C   0  0  0  0  0  0  0  0  0  0  0  0
  1  2  2  0
  2  3  1  0
  2  4  1  0
  4  5  2  0
  5  6  1  0
  6  7  2  0
  7  8  1  0
  8  9  2  0
  9 10  1  0
 10 11  1  0
 10 12  2  0
 12 13  1  0
  7 13  1  0
 13 14  2  0
  4 14  1  0
M  END
>  <name>  (7) 
amido-EN300-146788

>  <comRMSD>  (7) 
0.455672

>  <CN_RMSD>  (7) 
0.775019

>  <∆∆G>  (7) 
-16.728984

>  <MMFF_score>  (7) 
-13.795325

>  <Gold.Goldscore.Fitness>  (7) 
46.5425

>  <Gold.Goldscore.Internal.Vdw>  (7) 
-0.1066

>  <Gold.Goldscore.Internal.Torsion>  (7) 
-0.8084

>  <Gold.Goldscore.External.Vdw>  (7) 
29.7783

>  <Gold.Goldscore.Internal.HBond>  (7) 
0.0000

>  <Gold.Goldscore.External.HBond>  (7) 
5.9965

$$$$
EN300-84745
     RDKit          3D

 14 15  0  0  0  0  0  0  0  0999 V2000
    7.2695   18.6644   20.3016 C   0  0  0  0  0  0  0  0  0  0  0  0
    7.9606   18.4875   19.0738 O   0  0  0  0  0  0  0  0  0  0  0  0
    8.9917   17.5163   18.9730 C   0  0  0  0  0  0  0  0  0  0  0  0
    9.8066   17.6132   17.8896 C   0  0  0  0  0  0  0  0  0  0  0  0
   10.8783   16.8045   17.7330 C   0  0  0  0  0  0  0  0  0  0  0  0
   11.1600   15.8334   18.6958 N   0  0  0  0  0  0  0  0  0  0  0  0
   12.1073   14.8936   18.8457 N   0  0  0  0  0  0  0  0  0  0  0  0
   11.8774   14.2478   19.9707 C   0  0  0  0  0  0  0  0  0  0  0  0
   10.8008   14.7323   20.5721 C   0  0  0  0  0  0  0  0  0  0  0  0
   10.2247   14.2404   21.8898 C   0  0  0  0  0  0  0  0  0  0  0  0
    9.1980   14.8033   22.3841 O   0  0  0  0  0  0  0  0  0  0  0  0
   10.8336   13.1520   22.5688 O   0  0  0  0  0  0  0  0  0  0  0  0
   10.3072   15.7223   19.8298 C   0  0  0  0  0  0  0  0  0  0  0  0
    9.2070   16.5983   19.9401 C   0  0  0  0  0  0  0  0  0  0  0  0
  1  2  1  0
  2  3  1  0
  3  4  1  0
  4  5  2  0
  5  6  1  0
  6  7  1  0
  7  8  2  0
  8  9  1  0
  9 10  1  0
 10 11  2  0
 10 12  1  0
  9 13  2  0
  6 13  1  0
 13 14  1  0
  3 14  2  0
M  END
>  <name>  (8) 
amido-EN300-84745

>  <comRMSD>  (8) 
0.545506

>  <CN_RMSD>  (8) 
0.547063

>  <∆∆G>  (8) 
-29.794649

>  <MMFF_score>  (8) 
-1.593054

>  <Gold.Goldscore.Fitness>  (8) 
45.9309

>  <Gold.Goldscore.Internal.Vdw>  (8) 
-2.4867

>  <Gold.Goldscore.Internal.Torsion>  (8) 
-0.1298

>  <Gold.Goldscore.External.Vdw>  (8) 
34.0824

>  <Gold.Goldscore.Internal.HBond>  (8) 
0.0000

>  <Gold.Goldscore.External.HBond>  (8) 
0.0000

$$$$
EN300-04021
     RDKit          3D

 13 13  0  0  0  0  0  0  0  0999 V2000
    6.4267   19.0215   19.8694 C   0  0  0  0  0  0  0  0  0  0  0  0
    7.5804   18.1080   19.5679 C   0  0  0  0  0  0  0  0  0  0  0  0
    8.2670   17.9409   18.4003 C   0  0  0  0  0  0  0  0  0  0  0  0
    9.3195   17.0058   18.5032 C   0  0  0  0  0  0  0  0  0  0  0  0
    9.4518   16.4645   19.7581 C   0  0  0  0  0  0  0  0  0  0  0  0
   10.5080   15.4493   20.1634 C   0  0  0  0  0  0  0  0  0  0  0  0
   11.0468   14.7072   19.2836 O   0  0  0  0  0  0  0  0  0  0  0  0
   10.9060   15.3257   21.5731 N   0  0  0  0  0  0  0  0  0  0  0  0
   11.9275   14.3439   21.9650 C   0  0  0  0  0  0  0  0  0  0  0  0
   11.4868   13.6336   23.2345 C   0  0  0  0  0  0  0  0  0  0  0  0
   10.2493   13.4792   23.4795 O   0  0  0  0  0  0  0  0  0  0  0  0
   12.4577   13.1424   24.1469 O   0  0  0  0  0  0  0  0  0  0  0  0
    8.2416   17.1072   20.8068 S   0  0  0  0  0  0  0  0  0  0  0  0
  1  2  1  0
  2  3  2  0
  3  4  1  0
  4  5  2  0
  5  6  1  0
  6  7  2  0
  6  8  1  0
  8  9  1  0
  9 10  1  0
 10 11  2  0
 10 12  1  0
  5 13  1  0
  2 13  1  0
M  END
>  <name>  (9) 
amido-EN300-04021

>  <comRMSD>  (9) 
0.447849

>  <CN_RMSD>  (9) 
0.38125

>  <∆∆G>  (9) 
-31.864593

>  <MMFF_score>  (9) 
-3.962194

>  <Gold.Goldscore.Fitness>  (9) 
45.9205

>  <Gold.Goldscore.Internal.Vdw>  (9) 
0.6624

>  <Gold.Goldscore.Internal.Torsion>  (9) 
-2.6608

>  <Gold.Goldscore.External.Vdw>  (9) 
33.1387

>  <Gold.Goldscore.Internal.HBond>  (9) 
0.0000

>  <Gold.Goldscore.External.HBond>  (9) 
2.0903

$$$$
EN300-16452
     RDKit          3D

 13 13  0  0  0  0  0  0  0  0999 V2000
    7.3952   18.2923   20.1132 C   0  0  0  0  0  0  0  0  0  0  0  0
    8.3125   17.1221   20.2472 C   0  0  0  0  0  0  0  0  0  0  0  0
    9.3614   16.8702   19.3921 C   0  0  0  0  0  0  0  0  0  0  0  0
   10.1512   15.7536   19.6137 C   0  0  0  0  0  0  0  0  0  0  0  0
   11.3322   15.4224   18.7577 C   0  0  0  0  0  0  0  0  0  0  0  0
    9.8988   14.9141   20.6299 N   0  0  0  0  0  0  0  0  0  0  0  0
    8.8589   15.2463   21.4108 C   0  0  0  0  0  0  0  0  0  0  0  0
    8.5069   14.1350   22.7955 S   0  0  0  0  0  0  0  0  0  0  0  0
    9.8612   12.9477   22.9755 C   0  0  0  0  0  0  0  0  0  0  0  0
   11.1750   13.6969   23.1267 C   0  0  0  0  0  0  0  0  0  0  0  0
   11.1973   14.9647   23.0399 O   0  0  0  0  0  0  0  0  0  0  0  0
   12.3776   12.9803   23.3649 O   0  0  0  0  0  0  0  0  0  0  0  0
    8.0591   16.2989   21.2817 N   0  0  0  0  0  0  0  0  0  0  0  0
  1  2  1  0
  2  3  2  0
  3  4  1  0
  4  5  1  0
  4  6  2  0
  6  7  1  0
  7  8  1  0
  8  9  1  0
  9 10  1  0
 10 11  2  0
 10 12  1  0
  7 13  2  0
  2 13  1  0
M  END
>  <name>  (10) 
amido-EN300-16452

>  <comRMSD>  (10) 
0.430589

>  <CN_RMSD>  (10) 
0.828686

>  <∆∆G>  (10) 
-13.921223

>  <MMFF_score>  (10) 
-29.333776

>  <Gold.Goldscore.Fitness>  (10) 
45.9089

>  <Gold.Goldscore.Internal.Vdw>  (10) 
0.7071

>  <Gold.Goldscore.Internal.Torsion>  (10) 
-2.4055

>  <Gold.Goldscore.External.Vdw>  (10) 
29.7836

>  <Gold.Goldscore.Internal.HBond>  (10) 
0.0000

>  <Gold.Goldscore.External.HBond>  (10) 
5.8381

$$$$
EN300-1718344
     RDKit          3D

 14 15  0  0  0  0  0  0  0  0999 V2000
   10.8477   14.4858   24.5920 O   0  0  0  0  0  0  0  0  0  0  0  0
   11.7773   14.2911   23.7475 C   0  0  0  0  0  0  0  0  0  0  0  0
   12.8791   13.4607   24.0832 O   0  0  0  0  0  0  0  0  0  0  0  0
   11.7095   14.9472   22.3780 C   0  0  0  0  0  0  0  0  0  0  0  0
   10.3958   14.5828   21.7061 C   0  0  0  0  0  0  0  0  0  0  0  0
   10.2912   15.2870   20.4199 N   0  0  0  0  0  0  0  0  0  0  0  0
   11.0247   15.0724   19.3672 C   0  0  0  0  0  0  0  0  0  0  0  0
   10.6415   15.9278   18.3298 C   0  0  0  0  0  0  0  0  0  0  0  0
    9.6034   16.7249   18.7671 C   0  0  0  0  0  0  0  0  0  0  0  0
    8.8498   17.7305   18.1723 C   0  0  0  0  0  0  0  0  0  0  0  0
    7.8499   18.3535   18.8847 C   0  0  0  0  0  0  0  0  0  0  0  0
    7.5912   17.9919   20.2071 C   0  0  0  0  0  0  0  0  0  0  0  0
    8.3288   16.9947   20.8138 N   0  0  0  0  0  0  0  0  0  0  0  0
    9.3432   16.3523   20.0975 C   0  0  0  0  0  0  0  0  0  0  0  0
  1  2  2  0
  2  3  1  0
  2  4  1  0
  4  5  1  0
  5  6  1  0
  6  7  1  0
  7  8  2  0
  8  9  1  0
  9 10  2  0
 10 11  1  0
 11 12  2  0
 12 13  1  0
 13 14  2  0
  9 14  1  0
  6 14  1  0
M  END
>  <name>  (11) 
amido-EN300-1718344

>  <comRMSD>  (11) 
0.414172

>  <CN_RMSD>  (11) 
0.32462

>  <∆∆G>  (11) 
-6.947835

>  <MMFF_score>  (11) 
-4.001855

>  <Gold.Goldscore.Fitness>  (11) 
45.8599

>  <Gold.Goldscore.Internal.Vdw>  (11) 
0.4968

>  <Gold.Goldscore.Internal.Torsion>  (11) 
-2.4728

>  <Gold.Goldscore.External.Vdw>  (11) 
34.1418

>  <Gold.Goldscore.Internal.HBond>  (11) 
0.0000

>  <Gold.Goldscore.External.HBond>  (11) 
0.0000

$$$$
EN300-43832
     RDKit          3D

 13 14  0  0  0  0  0  0  0  0999 V2000
    9.8422   13.6766   23.9104 O   0  0  0  0  0  0  0  0  0  0  0  0
   10.7108   13.7536   22.9859 C   0  0  0  0  0  0  0  0  0  0  0  0
   11.9922   13.1687   23.1651 O   0  0  0  0  0  0  0  0  0  0  0  0
   10.3780   14.4718   21.6882 C   0  0  0  0  0  0  0  0  0  0  0  0
    9.1718   15.1207   21.6474 C   0  0  0  0  0  0  0  0  0  0  0  0
    8.8369   15.9226   20.5906 C   0  0  0  0  0  0  0  0  0  0  0  0
    9.7300   16.0349   19.5451 C   0  0  0  0  0  0  0  0  0  0  0  0
    9.7098   16.8193   18.3714 N   0  0  0  0  0  0  0  0  0  0  0  0
   10.9142   16.6217   17.7357 C   0  0  0  0  0  0  0  0  0  0  0  0
   11.4017   17.4146   16.3507 S   0  0  0  0  0  0  0  0  0  0  0  0
   11.6585   15.7012   18.4179 N   0  0  0  0  0  0  0  0  0  0  0  0
   10.9392   15.3564   19.5767 C   0  0  0  0  0  0  0  0  0  0  0  0
   11.2821   14.5771   20.6703 C   0  0  0  0  0  0  0  0  0  0  0  0
  1  2  2  0
  2  3  1  0
  2  4  1  0
  4  5  1  0
  5  6  2  0
  6  7  1  0
  7  8  2  0
  8  9  1  0
  9 10  2  0
  9 11  1  0
 11 12  2  0
  7 12  1  0
 12 13  1  0
  4 13  2  0
M  END
>  <name>  (12) 
amido-EN300-43832

>  <comRMSD>  (12) 
0.439628

>  <CN_RMSD>  (12) 
0.799077

>  <∆∆G>  (12) 
-28.329622

>  <MMFF_score>  (12) 
-14.027047

>  <Gold.Goldscore.Fitness>  (12) 
45.8203

>  <Gold.Goldscore.Internal.Vdw>  (12) 
-0.4156

>  <Gold.Goldscore.Internal.Torsion>  (12) 
-0.0380

>  <Gold.Goldscore.External.Vdw>  (12) 
32.6058

>  <Gold.Goldscore.Internal.HBond>  (12) 
0.0000

>  <Gold.Goldscore.External.HBond>  (12) 
1.0987

$$$$
EN300-10898
     RDKit          3D

 14 15  0  0  0  0  0  0  0  0999 V2000
   10.4396   13.9477   24.5341 O   0  0  0  0  0  0  0  0  0  0  0  0
   11.4468   14.0160   23.7621 C   0  0  0  0  0  0  0  0  0  0  0  0
   12.6219   13.2770   24.0610 O   0  0  0  0  0  0  0  0  0  0  0  0
   11.3936   14.8888   22.5188 C   0  0  0  0  0  0  0  0  0  0  0  0
   10.1357   14.5683   21.7281 C   0  0  0  0  0  0  0  0  0  0  0  0
   10.1858   15.2538   20.4286 N   0  0  0  0  0  0  0  0  0  0  0  0
   11.0255   15.0091   19.4656 C   0  0  0  0  0  0  0  0  0  0  0  0
   10.7754   15.8549   18.3809 C   0  0  0  0  0  0  0  0  0  0  0  0
    9.7120   16.6780   18.6908 C   0  0  0  0  0  0  0  0  0  0  0  0
    9.0484   17.6878   18.0033 C   0  0  0  0  0  0  0  0  0  0  0  0
    7.9893   18.3405   18.5932 C   0  0  0  0  0  0  0  0  0  0  0  0
    7.5804   18.0047   19.8841 C   0  0  0  0  0  0  0  0  0  0  0  0
    8.2270   17.0038   20.5815 C   0  0  0  0  0  0  0  0  0  0  0  0
    9.3005   16.3313   19.9897 C   0  0  0  0  0  0  0  0  0  0  0  0
  1  2  2  0
  2  3  1  0
  2  4  1  0
  4  5  1  0
  5  6  1  0
  6  7  1  0
  7  8  2  0
  8  9  1  0
  9 10  2  0
 10 11  1  0
 11 12  2  0
 12 13  1  0
 13 14  2  0
  9 14  1  0
  6 14  1  0
M  END
>  <name>  (13) 
amido-EN300-10898

>  <comRMSD>  (13) 
0.341422

>  <CN_RMSD>  (13) 
0.340589

>  <∆∆G>  (13) 
-10.188867

>  <MMFF_score>  (13) 
-6.784305

>  <Gold.Goldscore.Fitness>  (13) 
45.7813

>  <Gold.Goldscore.Internal.Vdw>  (13) 
0.0868

>  <Gold.Goldscore.Internal.Torsion>  (13) 
-2.5909

>  <Gold.Goldscore.External.Vdw>  (13) 
34.6244

>  <Gold.Goldscore.Internal.HBond>  (13) 
0.0000

>  <Gold.Goldscore.External.HBond>  (13) 
0.0000

$$$$
EN300-905232
     RDKit          3D

 14 14  0  0  0  0  0  0  0  0999 V2000
    7.1798   18.7389   19.0872 C   0  0  0  0  0  0  0  0  0  0  0  0
    8.4146   17.8953   18.9883 C   0  0  0  0  0  0  0  0  0  0  0  0
    8.9570   17.0378   19.9637 C   0  0  0  0  0  0  0  0  0  0  0  0
   10.0459   16.5020   19.3298 C   0  0  0  0  0  0  0  0  0  0  0  0
   11.0020   15.4895   19.9390 C   0  0  0  0  0  0  0  0  0  0  0  0
   11.6900   14.7320   19.1853 O   0  0  0  0  0  0  0  0  0  0  0  0
   11.1308   15.3865   21.3996 N   0  0  0  0  0  0  0  0  0  0  0  0
   12.0555   14.4073   21.9887 C   0  0  0  0  0  0  0  0  0  0  0  0
   11.4879   13.9031   23.3056 C   0  0  0  0  0  0  0  0  0  0  0  0
   10.3683   14.3367   23.7225 O   0  0  0  0  0  0  0  0  0  0  0  0
   12.2085   12.9478   24.0700 O   0  0  0  0  0  0  0  0  0  0  0  0
   10.1415   17.0053   18.0909 N   0  0  0  0  0  0  0  0  0  0  0  0
   11.1241   16.6729   17.0585 C   0  0  0  0  0  0  0  0  0  0  0  0
    9.1393   17.8884   17.8535 N   0  0  0  0  0  0  0  0  0  0  0  0
  1  2  1  0
  2  3  1  0
  3  4  2  0
  4  5  1  0
  5  6  2  0
  5  7  1  0
  7  8  1  0
  8  9  1  0
  9 10  2  0
  9 11  1  0
  4 12  1  0
 12 13  1  0
 12 14  1  0
  2 14  2  0
M  END
>  <name>  (14) 
amido-EN300-905232

>  <comRMSD>  (14) 
0.337561

>  <CN_RMSD>  (14) 
0.431885

>  <∆∆G>  (14) 
-38.991942

>  <MMFF_score>  (14) 
-27.626458

>  <Gold.Goldscore.Fitness>  (14) 
45.7739

>  <Gold.Goldscore.Internal.Vdw>  (14) 
-0.1056

>  <Gold.Goldscore.Internal.Torsion>  (14) 
-3.7855

>  <Gold.Goldscore.External.Vdw>  (14) 
32.6142

>  <Gold.Goldscore.Internal.HBond>  (14) 
0.0000

>  <Gold.Goldscore.External.HBond>  (14) 
2.6973

$$$$
EN300-12098
     RDKit          3D

 14 15  0  0  0  0  0  0  0  0999 V2000
   12.4857   13.1578   24.1190 O   0  0  0  0  0  0  0  0  0  0  0  0
   11.5320   13.7199   23.4948 C   0  0  0  0  0  0  0  0  0  0  0  0
   11.5561   15.1227   23.2755 O   0  0  0  0  0  0  0  0  0  0  0  0
   10.3653   12.8906   22.9832 C   0  0  0  0  0  0  0  0  0  0  0  0
    9.1856   13.8029   22.6893 C   0  0  0  0  0  0  0  0  0  0  0  0
    9.4875   14.6405   21.4574 C   0  0  0  0  0  0  0  0  0  0  0  0
   10.5560   14.4700   20.7565 N   0  0  0  0  0  0  0  0  0  0  0  0
   10.4506   15.4228   19.7323 C   0  0  0  0  0  0  0  0  0  0  0  0
   11.2971   15.7091   18.6656 C   0  0  0  0  0  0  0  0  0  0  0  0
   10.9350   16.7123   17.7742 C   0  0  0  0  0  0  0  0  0  0  0  0
    9.7264   17.4088   17.9948 C   0  0  0  0  0  0  0  0  0  0  0  0
    8.8769   17.1332   19.0444 C   0  0  0  0  0  0  0  0  0  0  0  0
    9.2777   16.1306   19.8984 C   0  0  0  0  0  0  0  0  0  0  0  0
    8.6337   15.6359   21.0155 O   0  0  0  0  0  0  0  0  0  0  0  0
  1  2  2  0
  2  3  1  0
  2  4  1  0
  4  5  1  0
  5  6  1  0
  6  7  2  0
  7  8  1  0
  8  9  2  0
  9 10  1  0
 10 11  2  0
 11 12  1  0
 12 13  2  0
  8 13  1  0
 13 14  1  0
  6 14  1  0
M  END
>  <name>  (15) 
amido-EN300-12098

>  <comRMSD>  (15) 
0.755206

>  <CN_RMSD>  (15) 
0.919809

>  <∆∆G>  (15) 
-11.76325

>  <MMFF_score>  (15) 
-1.562211

>  <Gold.Goldscore.Fitness>  (15) 
45.3927

>  <Gold.Goldscore.Internal.Vdw>  (15) 
-0.3798

>  <Gold.Goldscore.Internal.Torsion>  (15) 
-1.8251

>  <Gold.Goldscore.External.Vdw>  (15) 
30.4845

>  <Gold.Goldscore.Internal.HBond>  (15) 
0.0000

>  <Gold.Goldscore.External.HBond>  (15) 
4.4607

$$$$
EN300-14584
     RDKit          3D

 14 15  0  0  0  0  0  0  0  0999 V2000
   11.1642   14.7258   24.6301 O   0  0  0  0  0  0  0  0  0  0  0  0
   11.9010   14.5009   23.6193 C   0  0  0  0  0  0  0  0  0  0  0  0
   12.9287   13.5238   23.6931 O   0  0  0  0  0  0  0  0  0  0  0  0
   11.6820   15.2778   22.3312 C   0  0  0  0  0  0  0  0  0  0  0  0
   10.4838   14.7054   21.5917 C   0  0  0  0  0  0  0  0  0  0  0  0
   10.4066   15.3000   20.2495 N   0  0  0  0  0  0  0  0  0  0  0  0
   11.1698   14.9859   19.2225 C   0  0  0  0  0  0  0  0  0  0  0  0
   10.8412   15.7089   18.1620 N   0  0  0  0  0  0  0  0  0  0  0  0
    9.8370   16.5191   18.4932 C   0  0  0  0  0  0  0  0  0  0  0  0
    9.0779   17.4953   17.8142 C   0  0  0  0  0  0  0  0  0  0  0  0
    8.0994   18.1513   18.4750 C   0  0  0  0  0  0  0  0  0  0  0  0
    7.8314   17.8989   19.7832 C   0  0  0  0  0  0  0  0  0  0  0  0
    8.5220   16.9715   20.4832 C   0  0  0  0  0  0  0  0  0  0  0  0
    9.5469   16.2556   19.8613 C   0  0  0  0  0  0  0  0  0  0  0  0
  1  2  2  0
  2  3  1  0
  2  4  1  0
  4  5  1  0
  5  6  1  0
  6  7  1  0
  7  8  2  0
  8  9  1  0
  9 10  2  0
 10 11  1  0
 11 12  2  0
 12 13  1  0
 13 14  2  0
  9 14  1  0
  6 14  1  0
M  END
>  <name>  (16) 
amido-EN300-14584

>  <comRMSD>  (16) 
0.505711

>  <CN_RMSD>  (16) 
0.332112

>  <∆∆G>  (16) 
-7.222582

>  <MMFF_score>  (16) 
-11.301616

>  <Gold.Goldscore.Fitness>  (16) 
45.3555

>  <Gold.Goldscore.Internal.Vdw>  (16) 
0.1517

>  <Gold.Goldscore.Internal.Torsion>  (16) 
-2.6135

>  <Gold.Goldscore.External.Vdw>  (16) 
34.1027

>  <Gold.Goldscore.Internal.HBond>  (16) 
0.0000

>  <Gold.Goldscore.External.HBond>  (16) 
0.0000

$$$$
EN300-238209
     RDKit          3D

 14 15  0  0  0  0  0  0  0  0999 V2000
   10.8806   14.5123   24.2768 O   0  0  0  0  0  0  0  0  0  0  0  0
   11.7121   14.3053   23.3382 C   0  0  0  0  0  0  0  0  0  0  0  0
   12.6957   13.2900   23.4722 O   0  0  0  0  0  0  0  0  0  0  0  0
   11.6535   15.1445   22.0722 C   0  0  0  0  0  0  0  0  0  0  0  0
   10.3765   14.8262   21.3119 C   0  0  0  0  0  0  0  0  0  0  0  0
   10.3635   15.5686   20.0433 N   0  0  0  0  0  0  0  0  0  0  0  0
   11.1800   15.3616   19.0428 N   0  0  0  0  0  0  0  0  0  0  0  0
   10.8974   16.2183   18.0416 C   0  0  0  0  0  0  0  0  0  0  0  0
    9.8326   16.9908   18.4593 C   0  0  0  0  0  0  0  0  0  0  0  0
    9.5161   16.5556   19.7399 C   0  0  0  0  0  0  0  0  0  0  0  0
    8.4714   17.1661   20.4148 C   0  0  0  0  0  0  0  0  0  0  0  0
    7.7827   18.1649   19.8306 C   0  0  0  0  0  0  0  0  0  0  0  0
    8.0781   18.5955   18.5930 C   0  0  0  0  0  0  0  0  0  0  0  0
    9.0835   18.0401   17.8852 C   0  0  0  0  0  0  0  0  0  0  0  0
  1  2  2  0
  2  3  1  0
  2  4  1  0
  4  5  1  0
  5  6  1  0
  6  7  1  0
  7  8  2  0
  8  9  1  0
  9 10  2  0
  6 10  1  0
 10 11  1  0
 11 12  1  0
 12 13  1  0
 13 14  1  0
  9 14  1  0
M  END
>  <name>  (17) 
amido-EN300-238209

>  <comRMSD>  (17) 
0.523122

>  <CN_RMSD>  (17) 
0.404151

>  <∆∆G>  (17) 
-20.885728

>  <MMFF_score>  (17) 
-9.769639

>  <Gold.Goldscore.Fitness>  (17) 
45.1823

>  <Gold.Goldscore.Internal.Vdw>  (17) 
0.4755

>  <Gold.Goldscore.Internal.Torsion>  (17) 
-2.4759

>  <Gold.Goldscore.External.Vdw>  (17) 
33.4215

>  <Gold.Goldscore.Internal.HBond>  (17) 
0.0000

>  <Gold.Goldscore.External.HBond>  (17) 
0.0000

$$$$
EN300-3043749
     RDKit          3D

 13 14  0  0  0  0  0  0  0  0999 V2000
   10.0978   13.7603   23.6347 O   0  0  0  0  0  0  0  0  0  0  0  0
   10.9767   13.7691   22.7167 C   0  0  0  0  0  0  0  0  0  0  0  0
   12.1243   12.9398   22.8245 O   0  0  0  0  0  0  0  0  0  0  0  0
   10.7993   14.6672   21.5033 C   0  0  0  0  0  0  0  0  0  0  0  0
   11.6455   14.8165   20.4005 C   0  0  0  0  0  0  0  0  0  0  0  0
   11.0400   15.6483   19.4808 C   0  0  0  0  0  0  0  0  0  0  0  0
   11.4141   16.1319   18.2323 C   0  0  0  0  0  0  0  0  0  0  0  0
   10.5676   16.9643   17.5350 C   0  0  0  0  0  0  0  0  0  0  0  0
   10.9500   17.4463   16.2553 O   0  0  0  0  0  0  0  0  0  0  0  0
    9.3370   17.3377   18.0758 C   0  0  0  0  0  0  0  0  0  0  0  0
    8.9482   16.8663   19.3140 C   0  0  0  0  0  0  0  0  0  0  0  0
    9.7983   16.0166   20.0281 C   0  0  0  0  0  0  0  0  0  0  0  0
    9.7075   15.3523   21.3274 O   0  0  0  0  0  0  0  0  0  0  0  0
  1  2  2  0
  2  3  1  0
  2  4  1  0
  4  5  2  0
  5  6  1  0
  6  7  2  0
  7  8  1  0
  8  9  1  0
  8 10  2  0
 10 11  1  0
 11 12  2  0
  6 12  1  0
 12 13  1  0
  4 13  1  0
M  END
>  <name>  (18) 
amido-EN300-3043749

>  <comRMSD>  (18) 
0.624028

>  <CN_RMSD>  (18) 
0.903497

>  <∆∆G>  (18) 
-11.479186

>  <MMFF_score>  (18) 
-0.890148

>  <Gold.Goldscore.Fitness>  (18) 
45.0923

>  <Gold.Goldscore.Internal.Vdw>  (18) 
0.2175

>  <Gold.Goldscore.Internal.Torsion>  (18) 
-0.2382

>  <Gold.Goldscore.External.Vdw>  (18) 
27.1791

>  <Gold.Goldscore.Internal.HBond>  (18) 
0.0000

>  <Gold.Goldscore.External.HBond>  (18) 
7.8934

$$$$
EN300-16833
     RDKit          3D

 14 15  0  0  0  0  0  0  0  0999 V2000
   11.1009   13.8109   24.0859 O   0  0  0  0  0  0  0  0  0  0  0  0
   11.6967   13.9244   22.9690 C   0  0  0  0  0  0  0  0  0  0  0  0
   12.8263   13.1135   22.6813 O   0  0  0  0  0  0  0  0  0  0  0  0
   11.2000   14.9281   21.9412 C   0  0  0  0  0  0  0  0  0  0  0  0
   11.4035   14.7012   20.6154 C   0  0  0  0  0  0  0  0  0  0  0  0
   10.9067   15.7048   19.5876 C   0  0  0  0  0  0  0  0  0  0  0  0
   11.6628   16.0677   18.4784 C   0  0  0  0  0  0  0  0  0  0  0  0
   11.0931   16.8749   17.4738 C   0  0  0  0  0  0  0  0  0  0  0  0
    9.8041   17.2809   17.6673 C   0  0  0  0  0  0  0  0  0  0  0  0
    9.0767   16.9359   18.7883 C   0  0  0  0  0  0  0  0  0  0  0  0
    9.5927   16.1398   19.7718 C   0  0  0  0  0  0  0  0  0  0  0  0
    7.8173   17.4717   18.7173 O   0  0  0  0  0  0  0  0  0  0  0  0
    7.8055   18.2767   17.5399 C   0  0  0  0  0  0  0  0  0  0  0  0
    9.0246   18.0284   16.8230 O   0  0  0  0  0  0  0  0  0  0  0  0
  1  2  2  0
  2  3  1  0
  2  4  1  0
  4  5  2  0
  5  6  1  0
  6  7  2  0
  7  8  1  0
  8  9  2  0
  9 10  1  0
 10 11  2  0
  6 11  1  0
 10 12  1  0
 12 13  1  0
 13 14  1  0
  9 14  1  0
M  END
>  <name>  (19) 
amido-EN300-16833

>  <comRMSD>  (19) 
0.594237

>  <CN_RMSD>  (19) 
0.87099

>  <∆∆G>  (19) 
-19.538589

>  <MMFF_score>  (19) 
-6.497293

>  <Gold.Goldscore.Fitness>  (19) 
45.0363

>  <Gold.Goldscore.Internal.Vdw>  (19) 
0.0420

>  <Gold.Goldscore.Internal.Torsion>  (19) 
-4.3890

>  <Gold.Goldscore.External.Vdw>  (19) 
29.9061

>  <Gold.Goldscore.Internal.HBond>  (19) 
0.0000

>  <Gold.Goldscore.External.HBond>  (19) 
5.8212

$$$$
EN300-2681462
     RDKit          3D

 14 15  0  0  0  0  0  0  0  0999 V2000
   11.1613   14.6726   24.7728 O   0  0  0  0  0  0  0  0  0  0  0  0
   11.8690   14.4649   23.7379 C   0  0  0  0  0  0  0  0  0  0  0  0
   12.8776   13.4654   23.7563 O   0  0  0  0  0  0  0  0  0  0  0  0
   11.6359   15.2863   22.4803 C   0  0  0  0  0  0  0  0  0  0  0  0
   10.4057   14.7651   21.7555 C   0  0  0  0  0  0  0  0  0  0  0  0
   10.3559   15.3360   20.4018 N   0  0  0  0  0  0  0  0  0  0  0  0
   11.1162   15.0007   19.4009 N   0  0  0  0  0  0  0  0  0  0  0  0
   10.7842   15.7526   18.2698 C   0  0  0  0  0  0  0  0  0  0  0  0
    9.7514   16.6101   18.5896 C   0  0  0  0  0  0  0  0  0  0  0  0
    9.0390   17.5636   17.8713 C   0  0  0  0  0  0  0  0  0  0  0  0
    8.0320   18.2754   18.4835 C   0  0  0  0  0  0  0  0  0  0  0  0
    7.7250   18.0562   19.8267 C   0  0  0  0  0  0  0  0  0  0  0  0
    8.4212   17.1125   20.5555 C   0  0  0  0  0  0  0  0  0  0  0  0
    9.4423   16.3807   19.9419 C   0  0  0  0  0  0  0  0  0  0  0  0
  1  2  2  0
  2  3  1  0
  2  4  1  0
  4  5  1  0
  5  6  1  0
  6  7  1  0
  7  8  2  0
  8  9  1  0
  9 10  2  0
 10 11  1  0
 11 12  2  0
 12 13  1  0
 13 14  2  0
  9 14  1  0
  6 14  1  0
M  END
>  <name>  (20) 
amido-EN300-2681462

>  <comRMSD>  (20) 
0.476216

>  <CN_RMSD>  (20) 
0.360737

>  <∆∆G>  (20) 
-11.381678

>  <MMFF_score>  (20) 
-0.28178

>  <Gold.Goldscore.Fitness>  (20) 
44.6064

>  <Gold.Goldscore.Internal.Vdw>  (20) 
0.3963

>  <Gold.Goldscore.Internal.Torsion>  (20) 
-2.7586

>  <Gold.Goldscore.External.Vdw>  (20) 
33.6689

>  <Gold.Goldscore.Internal.HBond>  (20) 
0.0000

>  <Gold.Goldscore.External.HBond>  (20) 
0.0000

$$$$
EN300-155755
     RDKit          3D

 14 15  0  0  0  0  0  0  0  0999 V2000
    6.9353   18.8729   19.0603 C   0  0  0  0  0  0  0  0  0  0  0  0
    8.0652   17.9107   19.3886 C   0  0  0  0  0  0  0  0  0  0  0  0
    9.1124   17.8548   18.4685 C   0  0  0  0  0  0  0  0  0  0  0  0
   10.1474   16.9581   18.6445 C   0  0  0  0  0  0  0  0  0  0  0  0
   10.1377   16.0992   19.7477 C   0  0  0  0  0  0  0  0  0  0  0  0
    9.0767   16.1558   20.6685 C   0  0  0  0  0  0  0  0  0  0  0  0
    8.0437   17.0659   20.4756 C   0  0  0  0  0  0  0  0  0  0  0  0
    9.3407   15.2055   21.6336 C   0  0  0  0  0  0  0  0  0  0  0  0
   10.5441   14.5654   21.3228 C   0  0  0  0  0  0  0  0  0  0  0  0
   11.1768   13.4552   22.1460 C   0  0  0  0  0  0  0  0  0  0  0  0
   10.5335   12.9333   23.1099 O   0  0  0  0  0  0  0  0  0  0  0  0
   12.4865   13.0010   21.8380 O   0  0  0  0  0  0  0  0  0  0  0  0
   11.0443   15.0572   20.2272 N   0  0  0  0  0  0  0  0  0  0  0  0
   12.2989   14.6393   19.5851 C   0  0  0  0  0  0  0  0  0  0  0  0
  1  2  1  0
  2  3  2  0
  3  4  1  0
  4  5  2  0
  5  6  1  0
  6  7  2  0
  2  7  1  0
  6  8  1  0
  8  9  2  0
  9 10  1  0
 10 11  2  0
 10 12  1  0
  9 13  1  0
  5 13  1  0
 13 14  1  0
M  END
>  <name>  (21) 
amido-EN300-155755

>  <comRMSD>  (21) 
0.468535

>  <CN_RMSD>  (21) 
0.697509

>  <∆∆G>  (21) 
-17.849317

>  <MMFF_score>  (21) 
-9.724756

>  <Gold.Goldscore.Fitness>  (21) 
44.498

>  <Gold.Goldscore.Internal.Vdw>  (21) 
-0.0998

>  <Gold.Goldscore.Internal.Torsion>  (21) 
-1.6863

>  <Gold.Goldscore.External.Vdw>  (21) 
32.4760

>  <Gold.Goldscore.Internal.HBond>  (21) 
0.0000

>  <Gold.Goldscore.External.HBond>  (21) 
0.0000

$$$$
EN300-25612
     RDKit          3D

 14 14  0  0  0  0  0  0  0  0999 V2000
   11.7936   15.1961   23.4086 O   0  0  0  0  0  0  0  0  0  0  0  0
   12.0227   13.9469   23.3625 C   0  0  0  0  0  0  0  0  0  0  0  0
   13.2968   13.4444   23.7375 O   0  0  0  0  0  0  0  0  0  0  0  0
   10.9329   12.9906   22.9060 C   0  0  0  0  0  0  0  0  0  0  0  0
    9.6805   13.7342   22.7067 N   0  0  0  0  0  0  0  0  0  0  0  0
    9.6206   14.8217   21.7193 C   0  0  0  0  0  0  0  0  0  0  0  0
   10.6515   15.1189   21.0382 O   0  0  0  0  0  0  0  0  0  0  0  0
    8.3683   15.5652   21.5200 N   0  0  0  0  0  0  0  0  0  0  0  0
    8.3082   16.6526   20.5328 C   0  0  0  0  0  0  0  0  0  0  0  0
    7.6010   17.8050   20.8336 C   0  0  0  0  0  0  0  0  0  0  0  0
    7.3696   18.6433   19.7174 C   0  0  0  0  0  0  0  0  0  0  0  0
    8.0349   18.5750   18.5786 C   0  0  0  0  0  0  0  0  0  0  0  0
    8.7694   17.4407   18.3707 C   0  0  0  0  0  0  0  0  0  0  0  0
    8.9336   16.5120   19.3699 C   0  0  0  0  0  0  0  0  0  0  0  0
  1  2  2  0
  2  3  1  0
  2  4  1  0
  4  5  1  0
  5  6  1  0
  6  7  2  0
  6  8  1  0
  8  9  1  0
  9 10  2  0
 10 11  1  0
 11 12  2  0
 12 13  1  0
 13 14  2  0
  9 14  1  0
M  END
>  <name>  (22) 
amido-EN300-25612

>  <comRMSD>  (22) 
1.05949

>  <CN_RMSD>  (22) 
0.495576

>  <∆∆G>  (22) 
-19.733649

>  <MMFF_score>  (22) 
-42.452219

>  <Gold.Goldscore.Fitness>  (22) 
43.9814

>  <Gold.Goldscore.Internal.Vdw>  (22) 
-2.1508

>  <Gold.Goldscore.Internal.Torsion>  (22) 
-3.8716

>  <Gold.Goldscore.External.Vdw>  (22) 
29.8060

>  <Gold.Goldscore.Internal.HBond>  (22) 
0.0000

>  <Gold.Goldscore.External.HBond>  (22) 
5.6783

$$$$
EN300-312690
     RDKit          3D

 13 13  0  0  0  0  0  0  0  0999 V2000
   11.5020   17.1317   15.0621 C   0  0  0  0  0  0  0  0  0  0  0  0
   10.6598   17.6731   16.0693 O   0  0  0  0  0  0  0  0  0  0  0  0
   10.6011   17.0619   17.3497 C   0  0  0  0  0  0  0  0  0  0  0  0
   11.6291   16.2255   17.7526 C   0  0  0  0  0  0  0  0  0  0  0  0
   11.3326   15.4701   18.9116 C   0  0  0  0  0  0  0  0  0  0  0  0
   10.3613   15.7515   19.7609 C   0  0  0  0  0  0  0  0  0  0  0  0
   10.3004   15.1247   21.1442 C   0  0  0  0  0  0  0  0  0  0  0  0
   11.4502   14.8104   21.7998 C   0  0  0  0  0  0  0  0  0  0  0  0
   11.3893   14.1836   23.1833 C   0  0  0  0  0  0  0  0  0  0  0  0
   10.2708   14.0506   23.7720 O   0  0  0  0  0  0  0  0  0  0  0  0
   12.5821   13.7468   23.8180 O   0  0  0  0  0  0  0  0  0  0  0  0
    9.4132   16.6369   19.3288 C   0  0  0  0  0  0  0  0  0  0  0  0
    9.5684   17.3165   18.1446 C   0  0  0  0  0  0  0  0  0  0  0  0
  1  2  1  0
  2  3  1  0
  3  4  2  0
  4  5  1  0
  5  6  2  0
  6  7  1  0
  7  8  2  0
  8  9  1  0
  9 10  2  0
  9 11  1  0
  6 12  1  0
 12 13  2  0
  3 13  1  0
M  END
>  <name>  (23) 
amido-EN300-312690

>  <comRMSD>  (23) 
0.421199

>  <CN_RMSD>  (23) 
0.378535

>  <∆∆G>  (23) 
-7.740336

>  <MMFF_score>  (23) 
-1.51222

>  <Gold.Goldscore.Fitness>  (23) 
43.8691

>  <Gold.Goldscore.Internal.Vdw>  (23) 
-1.9091

>  <Gold.Goldscore.Internal.Torsion>  (23) 
-2.3187

>  <Gold.Goldscore.External.Vdw>  (23) 
27.9678

>  <Gold.Goldscore.Internal.HBond>  (23) 
0.0000

>  <Gold.Goldscore.External.HBond>  (23) 
5.4195

$$$$
EN300-17292
     RDKit          3D

 12 12  0  0  0  0  0  0  0  0999 V2000
   10.6173   13.1025   23.9249 O   0  0  0  0  0  0  0  0  0  0  0  0
   11.2971   13.5402   22.9444 C   0  0  0  0  0  0  0  0  0  0  0  0
   12.7048   13.3561   22.9180 O   0  0  0  0  0  0  0  0  0  0  0  0
   10.6032   14.2607   21.7998 C   0  0  0  0  0  0  0  0  0  0  0  0
   11.3155   15.0809   20.9810 C   0  0  0  0  0  0  0  0  0  0  0  0
   10.6216   15.8015   19.8365 C   0  0  0  0  0  0  0  0  0  0  0  0
    9.3504   16.3097   19.9889 C   0  0  0  0  0  0  0  0  0  0  0  0
    8.7431   17.0508   18.9698 C   0  0  0  0  0  0  0  0  0  0  0  0
    9.4861   17.2722   17.7919 C   0  0  0  0  0  0  0  0  0  0  0  0
    8.9891   17.9970   16.7639 O   0  0  0  0  0  0  0  0  0  0  0  0
   10.7421   16.7348   17.6401 C   0  0  0  0  0  0  0  0  0  0  0  0
   11.3123   16.0076   18.6669 C   0  0  0  0  0  0  0  0  0  0  0  0
  1  2  2  0
  2  3  1  0
  2  4  1  0
  4  5  2  0
  5  6  1  0
  6  7  2  0
  7  8  1  0
  8  9  2  0
  9 10  1  0
  9 11  1  0
 11 12  2  0
  6 12  1  0
M  END
>  <name>  (24) 
amido-EN300-17292

>  <comRMSD>  (24) 
0.510994

>  <CN_RMSD>  (24) 
0.700461

>  <∆∆G>  (24) 
-10.072284

>  <MMFF_score>  (24) 
-16.593037

>  <Gold.Goldscore.Fitness>  (24) 
43.7577

>  <Gold.Goldscore.Internal.Vdw>  (24) 
-0.6410

>  <Gold.Goldscore.Internal.Torsion>  (24) 
-3.0965

>  <Gold.Goldscore.External.Vdw>  (24) 
27.8628

>  <Gold.Goldscore.Internal.HBond>  (24) 
0.0000

>  <Gold.Goldscore.External.HBond>  (24) 
6.0683

$$$$
EN300-1866018
     RDKit          3D

 14 15  0  0  0  0  0  0  0  0999 V2000
   12.8420   13.7192   23.0940 O   0  0  0  0  0  0  0  0  0  0  0  0
   11.5764   13.6038   23.1057 C   0  0  0  0  0  0  0  0  0  0  0  0
   10.9401   12.8671   24.1394 O   0  0  0  0  0  0  0  0  0  0  0  0
   10.7437   14.2544   22.0130 C   0  0  0  0  0  0  0  0  0  0  0  0
   11.1566   15.0255   20.9729 C   0  0  0  0  0  0  0  0  0  0  0  0
    9.9655   15.4613   20.3704 C   0  0  0  0  0  0  0  0  0  0  0  0
    9.9207   16.3575   19.1436 C   0  0  0  0  0  0  0  0  0  0  0  0
    8.8118   17.1601   18.8642 C   0  0  0  0  0  0  0  0  0  0  0  0
    8.7858   17.9009   17.6990 C   0  0  0  0  0  0  0  0  0  0  0  0
    9.7823   17.8688   16.8004 N   0  0  0  0  0  0  0  0  0  0  0  0
   10.8310   17.0827   17.0628 C   0  0  0  0  0  0  0  0  0  0  0  0
   10.9491   16.3320   18.2100 C   0  0  0  0  0  0  0  0  0  0  0  0
    8.8928   15.0095   20.9831 N   0  0  0  0  0  0  0  0  0  0  0  0
    9.3866   14.2358   22.0518 O   0  0  0  0  0  0  0  0  0  0  0  0
  1  2  2  0
  2  3  1  0
  2  4  1  0
  4  5  2  0
  5  6  1  0
  6  7  1  0
  7  8  2  0
  8  9  1  0
  9 10  2  0
 10 11  1  0
 11 12  2  0
  7 12  1  0
  6 13  2  0
 13 14  1  0
  4 14  1  0
M  END
>  <name>  (25) 
amido-EN300-1866018

>  <comRMSD>  (25) 
0.576789

>  <CN_RMSD>  (25) 
0.788856

>  <∆∆G>  (25) 
-14.396717

>  <MMFF_score>  (25) 
-2.45885

>  <Gold.Goldscore.Fitness>  (25) 
43.7297

>  <Gold.Goldscore.Internal.Vdw>  (25) 
0.7800

>  <Gold.Goldscore.Internal.Torsion>  (25) 
-0.5075

>  <Gold.Goldscore.External.Vdw>  (25) 
30.4270

>  <Gold.Goldscore.Internal.HBond>  (25) 
0.0000

>  <Gold.Goldscore.External.HBond>  (25) 
2.0277

$$$$
EN300-33428
     RDKit          3D

 13 13  0  0  0  0  0  0  0  0999 V2000
    8.3349   18.0462   18.0073 C   0  0  0  0  0  0  0  0  0  0  0  0
    9.6599   17.3908   17.8141 C   0  0  0  0  0  0  0  0  0  0  0  0
   10.2802   17.6682   16.6434 O   0  0  0  0  0  0  0  0  0  0  0  0
   11.5033   16.9768   16.6242 N   0  0  0  0  0  0  0  0  0  0  0  0
   11.5448   16.3265   17.7491 C   0  0  0  0  0  0  0  0  0  0  0  0
   10.4073   16.5713   18.5277 C   0  0  0  0  0  0  0  0  0  0  0  0
   10.0985   16.0104   19.9062 C   0  0  0  0  0  0  0  0  0  0  0  0
    9.0841   16.4267   20.5490 O   0  0  0  0  0  0  0  0  0  0  0  0
   10.9730   14.9866   20.4960 N   0  0  0  0  0  0  0  0  0  0  0  0
   10.6742   14.4441   21.8292 C   0  0  0  0  0  0  0  0  0  0  0  0
   11.9100   14.5502   22.7078 C   0  0  0  0  0  0  0  0  0  0  0  0
   12.9499   15.1380   22.2737 O   0  0  0  0  0  0  0  0  0  0  0  0
   11.9028   13.9927   24.0138 O   0  0  0  0  0  0  0  0  0  0  0  0
  1  2  1  0
  2  3  1  0
  3  4  1  0
  4  5  2  0
  5  6  1  0
  2  6  2  0
  6  7  1  0
  7  8  2  0
  7  9  1  0
  9 10  1  0
 10 11  1  0
 11 12  2  0
 11 13  1  0
M  END
>  <name>  (26) 
amido-EN300-33428

>  <comRMSD>  (26) 
0.615546

>  <CN_RMSD>  (26) 
0.91575

>  <∆∆G>  (26) 
-18.264606

>  <MMFF_score>  (26) 
-23.958466

>  <Gold.Goldscore.Fitness>  (26) 
43.707

>  <Gold.Goldscore.Internal.Vdw>  (26) 
-0.7699

>  <Gold.Goldscore.Internal.Torsion>  (26) 
-1.7205

>  <Gold.Goldscore.External.Vdw>  (26) 
29.1660

>  <Gold.Goldscore.Internal.HBond>  (26) 
0.0000

>  <Gold.Goldscore.External.HBond>  (26) 
5.1108

$$$$
EN300-15389
     RDKit          3D

 14 15  0  0  0  0  0  0  0  0999 V2000
   11.7532   13.6810   24.3834 O   0  0  0  0  0  0  0  0  0  0  0  0
   11.9515   14.0122   23.1725 C   0  0  0  0  0  0  0  0  0  0  0  0
   12.9713   13.3726   22.4193 O   0  0  0  0  0  0  0  0  0  0  0  0
   11.0970   15.0930   22.5305 C   0  0  0  0  0  0  0  0  0  0  0  0
   11.2375   15.0187   21.0189 C   0  0  0  0  0  0  0  0  0  0  0  0
   10.2283   15.9517   20.3697 C   0  0  0  0  0  0  0  0  0  0  0  0
   10.1206   16.1689   19.0274 C   0  0  0  0  0  0  0  0  0  0  0  0
    9.0115   17.0729   18.8421 C   0  0  0  0  0  0  0  0  0  0  0  0
    8.3845   17.6599   17.7526 C   0  0  0  0  0  0  0  0  0  0  0  0
    7.3157   18.4777   17.9769 C   0  0  0  0  0  0  0  0  0  0  0  0
    6.8450   18.7263   19.2567 C   0  0  0  0  0  0  0  0  0  0  0  0
    7.4703   18.1841   20.3653 C   0  0  0  0  0  0  0  0  0  0  0  0
    8.5464   17.3667   20.1085 C   0  0  0  0  0  0  0  0  0  0  0  0
    9.2904   16.7009   21.0567 O   0  0  0  0  0  0  0  0  0  0  0  0
  1  2  2  0
  2  3  1  0
  2  4  1  0
  4  5  1  0
  5  6  1  0
  6  7  2  0
  7  8  1  0
  8  9  2  0
  9 10  1  0
 10 11  2  0
 11 12  1  0
 12 13  2  0
  8 13  1  0
 13 14  1  0
  6 14  1  0
M  END
>  <name>  (27) 
amido-EN300-15389

>  <comRMSD>  (27) 
0.671653

>  <CN_RMSD>  (27) 
0.924046

>  <∆∆G>  (27) 
-24.655219

>  <MMFF_score>  (27) 
-8.036581

>  <Gold.Goldscore.Fitness>  (27) 
43.5821

>  <Gold.Goldscore.Internal.Vdw>  (27) 
-0.1066

>  <Gold.Goldscore.Internal.Torsion>  (27) 
-1.7443

>  <Gold.Goldscore.External.Vdw>  (27) 
32.2537

>  <Gold.Goldscore.Internal.HBond>  (27) 
0.0000

>  <Gold.Goldscore.External.HBond>  (27) 
0.0000

$$$$
EN300-743610
     RDKit          3D

 13 13  0  0  0  0  0  0  0  0999 V2000
    6.9375   18.8999   19.4639 C   0  0  0  0  0  0  0  0  0  0  0  0
    7.5611   18.4189   18.2823 O   0  0  0  0  0  0  0  0  0  0  0  0
    8.7588   17.6610   18.3697 C   0  0  0  0  0  0  0  0  0  0  0  0
    9.5288   17.5466   17.2862 C   0  0  0  0  0  0  0  0  0  0  0  0
   10.7884   16.8959   17.4049 C   0  0  0  0  0  0  0  0  0  0  0  0
   11.0661   16.1365   18.5532 C   0  0  0  0  0  0  0  0  0  0  0  0
   10.3090   16.2464   19.6050 C   0  0  0  0  0  0  0  0  0  0  0  0
   10.6040   15.4153   20.8429 C   0  0  0  0  0  0  0  0  0  0  0  0
   10.8573   14.7024   21.9049 C   0  0  0  0  0  0  0  0  0  0  0  0
   11.1523   13.8713   23.1428 C   0  0  0  0  0  0  0  0  0  0  0  0
   10.2471   13.6885   24.0160 O   0  0  0  0  0  0  0  0  0  0  0  0
   12.4393   13.2991   23.3237 O   0  0  0  0  0  0  0  0  0  0  0  0
    9.2216   17.1303   19.5983 C   0  0  0  0  0  0  0  0  0  0  0  0
  1  2  1  0
  2  3  1  0
  3  4  2  0
  4  5  1  0
  5  6  2  0
  6  7  1  0
  7  8  1  0
  8  9  3  0
  9 10  1  0
 10 11  2  0
 10 12  1  0
  7 13  2  0
  3 13  1  0
M  END
>  <name>  (28) 
amido-EN300-743610

>  <comRMSD>  (28) 
0.440696

>  <CN_RMSD>  (28) 
0.657295

>  <∆∆G>  (28) 
-45.757993

>  <MMFF_score>  (28) 
-12.557984

>  <Gold.Goldscore.Fitness>  (28) 
43.4692

>  <Gold.Goldscore.Internal.Vdw>  (28) 
-0.8682

>  <Gold.Goldscore.Internal.Torsion>  (28) 
-0.2153

>  <Gold.Goldscore.External.Vdw>  (28) 
31.8034

>  <Gold.Goldscore.Internal.HBond>  (28) 
0.0000

>  <Gold.Goldscore.External.HBond>  (28) 
0.0000

$$$$
EN300-151996
     RDKit          3D

 13 14  0  0  0  0  0  0  0  0999 V2000
    9.6923   13.8151   23.7436 O   0  0  0  0  0  0  0  0  0  0  0  0
   10.6928   13.8309   22.9601 C   0  0  0  0  0  0  0  0  0  0  0  0
   11.8942   13.1698   23.3291 O   0  0  0  0  0  0  0  0  0  0  0  0
   10.6035   14.5575   21.6281 C   0  0  0  0  0  0  0  0  0  0  0  0
   11.5961   14.6476   20.7108 C   0  0  0  0  0  0  0  0  0  0  0  0
   11.1291   15.5036   19.6434 C   0  0  0  0  0  0  0  0  0  0  0  0
   11.6380   15.9701   18.4571 C   0  0  0  0  0  0  0  0  0  0  0  0
   10.8687   16.8280   17.6561 C   0  0  0  0  0  0  0  0  0  0  0  0
    9.5620   17.1908   18.1065 C   0  0  0  0  0  0  0  0  0  0  0  0
    8.8036   18.0537   17.3674 O   0  0  0  0  0  0  0  0  0  0  0  0
    9.0422   16.7327   19.2792 C   0  0  0  0  0  0  0  0  0  0  0  0
    9.8322   15.8821   20.0209 C   0  0  0  0  0  0  0  0  0  0  0  0
    9.4876   15.3075   21.2164 O   0  0  0  0  0  0  0  0  0  0  0  0
  1  2  2  0
  2  3  1  0
  2  4  1  0
  4  5  2  0
  5  6  1  0
  6  7  2  0
  7  8  1  0
  8  9  2  0
  9 10  1  0
  9 11  1  0
 11 12  2  0
  6 12  1  0
 12 13  1  0
  4 13  1  0
M  END
>  <name>  (29) 
amido-EN300-151996

>  <comRMSD>  (29) 
0.501094

>  <CN_RMSD>  (29) 
0.988023

>  <∆∆G>  (29) 
-17.449648

>  <MMFF_score>  (29) 
-6.685413

>  <Gold.Goldscore.Fitness>  (29) 
43.4096

>  <Gold.Goldscore.Internal.Vdw>  (29) 
-0.3616

>  <Gold.Goldscore.Internal.Torsion>  (29) 
-0.0919

>  <Gold.Goldscore.External.Vdw>  (29) 
27.4700

>  <Gold.Goldscore.Internal.HBond>  (29) 
0.0000

>  <Gold.Goldscore.External.HBond>  (29) 
6.1877

$$$$
EN300-81791
     RDKit          3D

 11 11  0  0  0  0  0  0  0  0999 V2000
   11.7108   15.9357   23.3536 O   0  0  0  0  0  0  0  0  0  0  0  0
   12.2001   14.7641   23.2979 C   0  0  0  0  0  0  0  0  0  0  0  0
   13.5859   14.5615   23.5320 O   0  0  0  0  0  0  0  0  0  0  0  0
   11.3019   13.5796   22.9806 C   0  0  0  0  0  0  0  0  0  0  0  0
   10.0185   14.0757   22.3346 C   0  0  0  0  0  0  0  0  0  0  0  0
   10.3503   14.8033   21.0419 C   0  0  0  0  0  0  0  0  0  0  0  0
    9.4533   15.5187   20.3405 C   0  0  0  0  0  0  0  0  0  0  0  0
   10.0262   16.0918   19.1889 C   0  0  0  0  0  0  0  0  0  0  0  0
    9.0582   17.0861   18.1688 Cl  0  0  0  0  0  0  0  0  0  0  0  0
   11.3552   15.7954   19.0168 C   0  0  0  0  0  0  0  0  0  0  0  0
   11.8951   14.7973   20.3315 S   0  0  0  0  0  0  0  0  0  0  0  0
  1  2  2  0
  2  3  1  0
  2  4  1  0
  4  5  1  0
  5  6  1  0
  6  7  2  0
  7  8  1  0
  8  9  1  0
  8 10  2  0
 10 11  1  0
  6 11  1  0
M  END
>  <name>  (30) 
amido-EN300-81791

>  <comRMSD>  (30) 
0.918066

>  <CN_RMSD>  (30) 
0.604962

>  <∆∆G>  (30) 
-16.204348

>  <MMFF_score>  (30) 
-13.216284

>  <Gold.Goldscore.Fitness>  (30) 
43.0949

>  <Gold.Goldscore.Internal.Vdw>  (30) 
-0.6396

>  <Gold.Goldscore.Internal.Torsion>  (30) 
-1.6089

>  <Gold.Goldscore.External.Vdw>  (30) 
27.6775

>  <Gold.Goldscore.Internal.HBond>  (30) 
0.0000

>  <Gold.Goldscore.External.HBond>  (30) 
6.0000

$$$$
EN300-317365
     RDKit          3D

 12 12  0  0  0  0  0  0  0  0999 V2000
   10.6976   14.0693   24.9144 O   0  0  0  0  0  0  0  0  0  0  0  0
   11.4162   14.0148   23.8675 C   0  0  0  0  0  0  0  0  0  0  0  0
   11.4165   12.8421   23.0669 O   0  0  0  0  0  0  0  0  0  0  0  0
   12.2751   15.2050   23.4725 C   0  0  0  0  0  0  0  0  0  0  0  0
   12.4883   15.4836   22.1580 C   0  0  0  0  0  0  0  0  0  0  0  0
   11.7491   14.4369   20.8797 S   0  0  0  0  0  0  0  0  0  0  0  0
   10.9427   15.4788   19.6387 C   0  0  0  0  0  0  0  0  0  0  0  0
   11.5948   15.7460   18.4463 C   0  0  0  0  0  0  0  0  0  0  0  0
   11.0078   16.7903   17.6933 C   0  0  0  0  0  0  0  0  0  0  0  0
    9.7801   17.2432   17.8711 C   0  0  0  0  0  0  0  0  0  0  0  0
    9.1641   16.8880   19.0389 C   0  0  0  0  0  0  0  0  0  0  0  0
    9.7358   15.9727   19.8894 C   0  0  0  0  0  0  0  0  0  0  0  0
  1  2  2  0
  2  3  1  0
  2  4  1  0
  4  5  2  0
  5  6  1  0
  6  7  1  0
  7  8  2  0
  8  9  1  0
  9 10  2  0
 10 11  1  0
 11 12  2  0
  7 12  1  0
M  END
>  <name>  (31) 
amido-EN300-317365

>  <comRMSD>  (31) 
0.591009

>  <CN_RMSD>  (31) 
0.652716

>  <∆∆G>  (31) 
-9.308118

>  <MMFF_score>  (31) 
-11.286544

>  <Gold.Goldscore.Fitness>  (31) 
43.0524

>  <Gold.Goldscore.Internal.Vdw>  (31) 
0.3570

>  <Gold.Goldscore.Internal.Torsion>  (31) 
-3.8444

>  <Gold.Goldscore.External.Vdw>  (31) 
32.0574

>  <Gold.Goldscore.Internal.HBond>  (31) 
0.0000

>  <Gold.Goldscore.External.HBond>  (31) 
0.0000

$$$$
EN300-342529
     RDKit          3D

 14 15  0  0  0  0  0  0  0  0999 V2000
   11.5526   14.1558   24.3412 O   0  0  0  0  0  0  0  0  0  0  0  0
   11.9834   14.6025   23.2321 C   0  0  0  0  0  0  0  0  0  0  0  0
   13.3387   14.3966   22.8620 O   0  0  0  0  0  0  0  0  0  0  0  0
   11.0478   15.3573   22.3018 C   0  0  0  0  0  0  0  0  0  0  0  0
   10.9517   14.6226   20.9745 C   0  0  2  0  0  0  0  0  0  0  0  0
   12.3678   14.4500   19.8208 C   0  0  0  0  0  0  0  0  0  0  0  0
   11.9255   15.3652   18.7010 O   0  0  0  0  0  0  0  0  0  0  0  0
   10.7437   15.9864   18.8428 C   0  0  0  0  0  0  0  0  0  0  0  0
   10.1823   16.8781   17.8832 C   0  0  0  0  0  0  0  0  0  0  0  0
    9.0006   17.4570   18.0978 C   0  0  0  0  0  0  0  0  0  0  0  0
    8.4573   18.3374   17.1252 O   0  0  0  0  0  0  0  0  0  0  0  0
    8.2912   17.1993   19.2823 C   0  0  0  0  0  0  0  0  0  0  0  0
    8.8458   16.3158   20.2189 C   0  0  0  0  0  0  0  0  0  0  0  0
    9.9886   15.7614   20.0021 C   0  0  0  0  0  0  0  0  0  0  0  0
  1  2  2  0
  2  3  1  0
  2  4  1  0
  5  4  1  1
  5  6  1  0
  6  7  1  0
  7  8  1  0
  8  9  2  0
  9 10  1  0
 10 11  1  0
 10 12  2  0
 12 13  1  0
 13 14  2  0
  8 14  1  0
  5 14  1  0
M  END
>  <name>  (32) 
amido-EN300-342529

>  <comRMSD>  (32) 
0.515645

>  <CN_RMSD>  (32) 
0.746514

>  <∆∆G>  (32) 
-24.028881

>  <MMFF_score>  (32) 
-6.221144

>  <Gold.Goldscore.Fitness>  (32) 
42.9167

>  <Gold.Goldscore.Internal.Vdw>  (32) 
-0.0339

>  <Gold.Goldscore.Internal.Torsion>  (32) 
-1.4943

>  <Gold.Goldscore.External.Vdw>  (32) 
27.7895

>  <Gold.Goldscore.Internal.HBond>  (32) 
0.0000

>  <Gold.Goldscore.External.HBond>  (32) 
5.5047

$$$$
EN300-50169
     RDKit          3D

 14 14  0  0  0  0  0  0  0  0999 V2000
   11.2263   17.1379   17.0278 C   0  0  0  0  0  0  0  0  0  0  0  0
   10.1187   17.1377   18.0257 C   0  0  0  0  0  0  0  0  0  0  0  0
    9.0497   17.9046   17.7074 O   0  0  0  0  0  0  0  0  0  0  0  0
    8.1085   17.7916   18.7447 N   0  0  0  0  0  0  0  0  0  0  0  0
    8.6544   16.9947   19.6148 C   0  0  0  0  0  0  0  0  0  0  0  0
    9.9144   16.5552   19.1912 C   0  0  0  0  0  0  0  0  0  0  0  0
   10.8504   15.6059   19.9213 C   0  0  0  0  0  0  0  0  0  0  0  0
   11.6340   14.8537   19.2614 O   0  0  0  0  0  0  0  0  0  0  0  0
   10.8492   15.5578   21.3905 N   0  0  0  0  0  0  0  0  0  0  0  0
   11.7545   14.6397   22.0965 C   0  0  1  0  0  0  0  0  0  0  0  0
   12.7917   15.4423   22.8648 C   0  0  0  0  0  0  0  0  0  0  0  0
   10.9544   13.7855   23.0665 C   0  0  0  0  0  0  0  0  0  0  0  0
   10.2502   14.3386   23.9683 O   0  0  0  0  0  0  0  0  0  0  0  0
   10.9939   12.3697   22.9650 O   0  0  0  0  0  0  0  0  0  0  0  0
  1  2  1  0
  2  3  1  0
  3  4  1  0
  4  5  2  0
  5  6  1  0
  2  6  2  0
  6  7  1  0
  7  8  2  0
  7  9  1  0
  9 10  1  0
 10 11  1  1
 10 12  1  0
 12 13  2  0
 12 14  1  0
M  END
>  <name>  (33) 
amido-EN300-50169

>  <comRMSD>  (33) 
0.360802

>  <CN_RMSD>  (33) 
0.347801

>  <∆∆G>  (33) 
-40.285284

>  <MMFF_score>  (33) 
-23.834127

>  <Gold.Goldscore.Fitness>  (33) 
42.8355

>  <Gold.Goldscore.Internal.Vdw>  (33) 
0.3643

>  <Gold.Goldscore.Internal.Torsion>  (33) 
-3.6984

>  <Gold.Goldscore.External.Vdw>  (33) 
29.4526

>  <Gold.Goldscore.Internal.HBond>  (33) 
0.0000

>  <Gold.Goldscore.External.HBond>  (33) 
3.8186

$$$$
EN300-1845415
     RDKit          3D

 14 15  0  0  0  0  0  0  0  0999 V2000
   11.7578   13.7019   24.4110 O   0  0  0  0  0  0  0  0  0  0  0  0
   11.9617   14.0793   23.2146 C   0  0  0  0  0  0  0  0  0  0  0  0
   13.0797   13.5822   22.4940 O   0  0  0  0  0  0  0  0  0  0  0  0
   11.0087   15.0629   22.5552 C   0  0  0  0  0  0  0  0  0  0  0  0
   11.1561   14.9760   21.0449 C   0  0  0  0  0  0  0  0  0  0  0  0
   10.1401   15.8926   20.3831 C   0  0  0  0  0  0  0  0  0  0  0  0
   10.0169   16.0769   18.9827 C   0  0  0  0  0  0  0  0  0  0  0  0
    8.9616   16.9979   18.8317 N   0  0  0  0  0  0  0  0  0  0  0  0
    8.3989   17.5681   17.7182 C   0  0  0  0  0  0  0  0  0  0  0  0
    7.3653   18.4263   17.8957 C   0  0  0  0  0  0  0  0  0  0  0  0
    6.8835   18.7219   19.1746 C   0  0  0  0  0  0  0  0  0  0  0  0
    7.4554   18.1697   20.2779 C   0  0  0  0  0  0  0  0  0  0  0  0
    8.5251   17.2911   20.1040 C   0  0  0  0  0  0  0  0  0  0  0  0
    9.2401   16.6351   21.0453 N   0  0  0  0  0  0  0  0  0  0  0  0
  1  2  2  0
  2  3  1  0
  2  4  1  0
  4  5  1  0
  5  6  1  0
  6  7  2  0
  7  8  1  0
  8  9  1  0
  9 10  2  0
 10 11  1  0
 11 12  2  0
 12 13  1  0
  8 13  1  0
 13 14  2  0
  6 14  1  0
M  END
>  <name>  (34) 
amido-EN300-1845415

>  <comRMSD>  (34) 
0.735749

>  <CN_RMSD>  (34) 
0.970011

>  <∆∆G>  (34) 
-28.820049

>  <MMFF_score>  (34) 
-7.019822

>  <Gold.Goldscore.Fitness>  (34) 
42.7966

>  <Gold.Goldscore.Internal.Vdw>  (34) 
-0.0980

>  <Gold.Goldscore.Internal.Torsion>  (34) 
-1.6335

>  <Gold.Goldscore.External.Vdw>  (34) 
31.4966

>  <Gold.Goldscore.Internal.HBond>  (34) 
0.0000

>  <Gold.Goldscore.External.HBond>  (34) 
0.0000

$$$$
EN300-108146
     RDKit          3D

 14 15  0  0  0  0  0  0  0  0999 V2000
   11.4521   13.8645   24.7976 O   0  0  0  0  0  0  0  0  0  0  0  0
   12.1009   13.7445   23.7114 C   0  0  0  0  0  0  0  0  0  0  0  0
   13.3041   12.9910   23.6826 O   0  0  0  0  0  0  0  0  0  0  0  0
   11.5890   14.4077   22.4432 C   0  0  0  0  0  0  0  0  0  0  0  0
   11.1498   14.9765   21.3552 C   0  0  0  0  0  0  0  0  0  0  0  0
   10.6379   15.6396   20.0869 C   0  0  0  0  0  0  0  0  0  0  0  0
   11.5849   15.8364   19.0685 C   0  0  0  0  0  0  0  0  0  0  0  0
   11.1982   16.5385   17.9182 C   0  0  0  0  0  0  0  0  0  0  0  0
   10.0021   17.0035   17.8038 C   0  0  0  0  0  0  0  0  0  0  0  0
    9.0184   16.8437   18.7895 C   0  0  0  0  0  0  0  0  0  0  0  0
    9.4027   16.1249   19.9585 C   0  0  0  0  0  0  0  0  0  0  0  0
    7.7970   17.3626   18.5851 O   0  0  0  0  0  0  0  0  0  0  0  0
    7.5629   18.0959   17.2834 C   0  0  0  0  0  0  0  0  0  0  0  0
    9.2141   17.9267   16.5011 O   0  0  0  0  0  0  0  0  0  0  0  0
  1  2  2  0
  2  3  1  0
  2  4  1  0
  4  5  3  0
  5  6  1  0
  6  7  2  0
  7  8  1  0
  8  9  2  0
  9 10  1  0
 10 11  2  0
  6 11  1  0
 10 12  1  0
 12 13  1  0
 13 14  1  0
  9 14  1  0
M  END
>  <name>  (35) 
amido-EN300-108146

>  <comRMSD>  (35) 
0.603

>  <CN_RMSD>  (35) 
0.379662

>  <∆∆G>  (35) 
-16.656343

>  <MMFF_score>  (35) 
-8.934017

>  <Gold.Goldscore.Fitness>  (35) 
42.7143

>  <Gold.Goldscore.Internal.Vdw>  (35) 
0.4677

>  <Gold.Goldscore.Internal.Torsion>  (35) 
0.0000

>  <Gold.Goldscore.External.Vdw>  (35) 
27.4609

>  <Gold.Goldscore.Internal.HBond>  (35) 
0.0000

>  <Gold.Goldscore.External.HBond>  (35) 
4.9556

$$$$
EN300-1765893
     RDKit          3D

 13 14  0  0  0  0  0  0  0  0999 V2000
    9.6105   14.0327   24.2069 O   0  0  0  0  0  0  0  0  0  0  0  0
   10.5753   13.5758   23.5173 C   0  0  0  0  0  0  0  0  0  0  0  0
   11.6429   12.8913   24.1562 O   0  0  0  0  0  0  0  0  0  0  0  0
   10.5864   13.7619   22.0088 C   0  0  2  0  0  0  0  0  0  0  0  0
   11.9898   13.9807   21.4380 C   0  0  0  0  0  0  0  0  0  0  0  0
   10.9434   15.0945   21.3471 C   0  0  1  0  0  0  0  0  0  0  0  0
   10.3545   15.9264   20.2195 C   0  0  0  0  0  0  0  0  0  0  0  0
    9.0934   16.4730   20.3129 C   0  0  0  0  0  0  0  0  0  0  0  0
    8.5291   17.1718   19.2406 C   0  0  0  0  0  0  0  0  0  0  0  0
    9.3049   17.3106   18.0711 C   0  0  0  0  0  0  0  0  0  0  0  0
    8.8506   17.9901   16.9937 O   0  0  0  0  0  0  0  0  0  0  0  0
   10.5498   16.7353   17.9795 C   0  0  0  0  0  0  0  0  0  0  0  0
   11.0772   16.0516   19.0578 C   0  0  0  0  0  0  0  0  0  0  0  0
  1  2  2  0
  2  3  1  0
  4  2  1  1
  4  5  1  0
  5  6  1  0
  4  6  1  0
  6  7  1  6
  7  8  2  0
  8  9  1  0
  9 10  2  0
 10 11  1  0
 10 12  1  0
 12 13  2  0
  7 13  1  0
M  END
>  <name>  (36) 
amido-EN300-1765893

>  <comRMSD>  (36) 
0.381963

>  <CN_RMSD>  (36) 
0.651008

>  <∆∆G>  (36) 
-17.331581

>  <MMFF_score>  (36) 
-4.59589

>  <Gold.Goldscore.Fitness>  (36) 
42.6927

>  <Gold.Goldscore.Internal.Vdw>  (36) 
0.8709

>  <Gold.Goldscore.Internal.Torsion>  (36) 
-2.1556

>  <Gold.Goldscore.External.Vdw>  (36) 
27.2902

>  <Gold.Goldscore.Internal.HBond>  (36) 
0.0000

>  <Gold.Goldscore.External.HBond>  (36) 
5.7941

$$$$
EN300-1264296
     RDKit          3D

 13 13  0  0  0  0  0  0  0  0999 V2000
   11.2171   15.0784   18.4214 C   0  0  0  0  0  0  0  0  0  0  0  0
   10.2377   16.0254   19.0265 C   0  0  0  0  0  0  0  0  0  0  0  0
    9.7545   16.9923   18.2603 N   0  0  0  0  0  0  0  0  0  0  0  0
    8.8184   17.6319   19.0140 N   0  0  0  0  0  0  0  0  0  0  0  0
    8.0931   18.7563   18.4520 C   0  0  0  0  0  0  0  0  0  0  0  0
    8.6633   17.0790   20.2220 C   0  0  0  0  0  0  0  0  0  0  0  0
    7.6689   17.5644   21.2102 C   0  0  0  0  0  0  0  0  0  0  0  0
    9.5933   16.0475   20.2968 C   0  0  0  0  0  0  0  0  0  0  0  0
    9.8648   15.1366   21.4830 C   0  0  0  0  0  0  0  0  0  0  0  0
   11.1376   14.7474   21.7645 C   0  0  0  0  0  0  0  0  0  0  0  0
   11.4090   13.8366   22.9507 C   0  0  0  0  0  0  0  0  0  0  0  0
   10.4440   13.4159   23.6627 O   0  0  0  0  0  0  0  0  0  0  0  0
   12.7407   13.4556   23.2632 O   0  0  0  0  0  0  0  0  0  0  0  0
  1  2  1  0
  2  3  2  0
  3  4  1  0
  4  5  1  0
  4  6  1  0
  6  7  1  0
  6  8  2  0
  2  8  1  0
  8  9  1  0
  9 10  2  0
 10 11  1  0
 11 12  2  0
 11 13  1  0
M  END
>  <name>  (37) 
amido-EN300-1264296

>  <comRMSD>  (37) 
0.441283

>  <CN_RMSD>  (37) 
0.698475

>  <∆∆G>  (37) 
-16.451751

>  <MMFF_score>  (37) 
-13.422872

>  <Gold.Goldscore.Fitness>  (37) 
42.5329

>  <Gold.Goldscore.Internal.Vdw>  (37) 
0.5297

>  <Gold.Goldscore.Internal.Torsion>  (37) 
-4.2986

>  <Gold.Goldscore.External.Vdw>  (37) 
31.7648

>  <Gold.Goldscore.Internal.HBond>  (37) 
0.0000

>  <Gold.Goldscore.External.HBond>  (37) 
0.0000

$$$$
EN300-395857
     RDKit          3D

 14 15  0  0  0  0  0  0  0  0999 V2000
   11.3764   17.0756   16.2127 O   0  0  0  0  0  0  0  0  0  0  0  0
   10.8204   16.8338   17.2862 C   0  0  0  0  0  0  0  0  0  0  0  0
    9.6505   17.6684   17.7901 C   0  0  0  0  0  0  0  0  0  0  0  0
    8.6302   16.7732   18.5098 C   0  0  0  0  0  0  0  0  0  0  0  0
    9.3129   15.9319   19.5618 C   0  0  0  0  0  0  0  0  0  0  0  0
    8.7129   15.5707   20.7587 C   0  0  0  0  0  0  0  0  0  0  0  0
    9.3802   14.7777   21.6888 C   0  0  0  0  0  0  0  0  0  0  0  0
   10.6684   14.3538   21.4251 C   0  0  0  0  0  0  0  0  0  0  0  0
   11.4017   13.4912   22.4393 C   0  0  0  0  0  0  0  0  0  0  0  0
   12.6646   13.3659   22.3720 O   0  0  0  0  0  0  0  0  0  0  0  0
   10.6757   12.8255   23.4621 O   0  0  0  0  0  0  0  0  0  0  0  0
   11.2965   14.7097   20.2420 C   0  0  0  0  0  0  0  0  0  0  0  0
   10.6153   15.4878   19.3183 C   0  0  0  0  0  0  0  0  0  0  0  0
   11.2438   15.8424   18.1024 N   0  0  0  0  0  0  0  0  0  0  0  0
  1  2  2  0
  2  3  1  0
  3  4  1  0
  4  5  1  0
  5  6  2  0
  6  7  1  0
  7  8  2  0
  8  9  1  0
  9 10  2  0
  9 11  1  0
  8 12  1  0
 12 13  2  0
  5 13  1  0
 13 14  1  0
  2 14  1  0
M  END
>  <name>  (38) 
amido-EN300-395857

>  <comRMSD>  (38) 
0.369663

>  <CN_RMSD>  (38) 
0.741279

>  <∆∆G>  (38) 
-7.984847

>  <MMFF_score>  (38) 
-12.134527

>  <Gold.Goldscore.Fitness>  (38) 
42.4715

>  <Gold.Goldscore.Internal.Vdw>  (38) 
0.1280

>  <Gold.Goldscore.Internal.Torsion>  (38) 
-0.5504

>  <Gold.Goldscore.External.Vdw>  (38) 
29.6233

>  <Gold.Goldscore.Internal.HBond>  (38) 
0.0000

>  <Gold.Goldscore.External.HBond>  (38) 
2.1251

$$$$
EN300-267747
     RDKit          3D

 14 14  0  0  0  0  0  0  0  0999 V2000
   11.6428   15.0708   23.8587 O   0  0  0  0  0  0  0  0  0  0  0  0
   12.2661   14.1559   23.2345 C   0  0  0  0  0  0  0  0  0  0  0  0
   13.4515   13.6013   23.7855 O   0  0  0  0  0  0  0  0  0  0  0  0
   11.7426   13.6553   21.8981 C   0  0  0  0  0  0  0  0  0  0  0  0
   11.2599   14.8345   21.0692 C   0  0  0  0  0  0  0  0  0  0  0  0
   12.0940   15.6880   20.6324 O   0  0  0  0  0  0  0  0  0  0  0  0
    9.8283   14.9875   20.7728 N   0  0  0  0  0  0  0  0  0  0  0  0
    9.3615   16.1279   19.9712 C   0  0  0  0  0  0  0  0  0  0  0  0
    9.9858   16.4491   18.7761 C   0  0  0  0  0  0  0  0  0  0  0  0
    9.5447   17.4972   18.0218 C   0  0  0  0  0  0  0  0  0  0  0  0
    8.4671   18.2425   18.4760 C   0  0  0  0  0  0  0  0  0  0  0  0
    7.8535   17.9385   19.6810 C   0  0  0  0  0  0  0  0  0  0  0  0
    8.3174   16.8861   20.3779 C   0  0  0  0  0  0  0  0  0  0  0  0
    7.7181   16.5816   21.5568 F   0  0  0  0  0  0  0  0  0  0  0  0
  1  2  2  0
  2  3  1  0
  2  4  1  0
  4  5  1  0
  5  6  2  0
  5  7  1  0
  7  8  1  0
  8  9  2  0
  9 10  1  0
 10 11  2  0
 11 12  1  0
 12 13  2  0
  8 13  1  0
 13 14  1  0
M  END
>  <name>  (39) 
amido-EN300-267747

>  <comRMSD>  (39) 
0.533709

>  <CN_RMSD>  (39) 
0.424886

>  <∆∆G>  (39) 
-27.68782

>  <MMFF_score>  (39) 
-6.09729

>  <Gold.Goldscore.Fitness>  (39) 
42.4556

>  <Gold.Goldscore.Internal.Vdw>  (39) 
0.9503

>  <Gold.Goldscore.Internal.Torsion>  (39) 
-4.9424

>  <Gold.Goldscore.External.Vdw>  (39) 
29.6439

>  <Gold.Goldscore.Internal.HBond>  (39) 
0.0000

>  <Gold.Goldscore.External.HBond>  (39) 
2.2143

$$$$
EN300-52452
     RDKit          3D

 14 14  0  0  0  0  0  0  0  0999 V2000
    6.5522   19.0159   19.8248 C   0  0  0  0  0  0  0  0  0  0  0  0
    7.8132   18.1980   19.5982 C   0  0  0  0  0  0  0  0  0  0  0  0
    8.6824   18.5900   18.7580 O   0  0  0  0  0  0  0  0  0  0  0  0
    8.0272   16.9536   20.3508 N   0  0  0  0  0  0  0  0  0  0  0  0
    9.2467   16.1625   20.1316 C   0  0  0  0  0  0  0  0  0  0  0  0
    9.8593   16.0542   18.9025 C   0  0  0  0  0  0  0  0  0  0  0  0
   10.9886   15.2473   18.7282 C   0  0  0  0  0  0  0  0  0  0  0  0
   11.4850   14.5659   19.8588 C   0  0  0  0  0  0  0  0  0  0  0  0
   12.5853   13.7827   19.7899 O   0  0  0  0  0  0  0  0  0  0  0  0
   10.8475   14.6587   21.0730 C   0  0  0  0  0  0  0  0  0  0  0  0
   11.3683   13.8737   22.2658 C   0  0  0  0  0  0  0  0  0  0  0  0
   10.6999   13.8419   23.3464 O   0  0  0  0  0  0  0  0  0  0  0  0
   12.6015   13.1759   22.1731 O   0  0  0  0  0  0  0  0  0  0  0  0
    9.7340   15.4648   21.2101 C   0  0  0  0  0  0  0  0  0  0  0  0
  1  2  1  0
  2  3  2  0
  2  4  1  0
  4  5  1  0
  5  6  2  0
  6  7  1  0
  7  8  2  0
  8  9  1  0
  8 10  1  0
 10 11  1  0
 11 12  2  0
 11 13  1  0
 10 14  2  0
  5 14  1  0
M  END
>  <name>  (40) 
amido-EN300-52452

>  <comRMSD>  (40) 
0.50173

>  <CN_RMSD>  (40) 
0.918481

>  <∆∆G>  (40) 
-17.822743

>  <MMFF_score>  (40) 
-3.257076

>  <Gold.Goldscore.Fitness>  (40) 
42.3318

>  <Gold.Goldscore.Internal.Vdw>  (40) 
-2.0460

>  <Gold.Goldscore.Internal.Torsion>  (40) 
-2.8534

>  <Gold.Goldscore.External.Vdw>  (40) 
29.8068

>  <Gold.Goldscore.Internal.HBond>  (40) 
0.0000

>  <Gold.Goldscore.External.HBond>  (40) 
1.9344

$$$$
EN300-45508
     RDKit          3D

 13 13  0  0  0  0  0  0  0  0999 V2000
    8.1747   18.0223   18.1525 C   0  0  0  0  0  0  0  0  0  0  0  0
    9.5136   17.4017   18.0210 C   0  0  0  0  0  0  0  0  0  0  0  0
   10.2553   17.8015   16.9403 O   0  0  0  0  0  0  0  0  0  0  0  0
   11.4482   17.1016   17.0129 C   0  0  0  0  0  0  0  0  0  0  0  0
   11.4756   16.3217   18.0866 C   0  0  0  0  0  0  0  0  0  0  0  0
   10.2218   16.5068   18.7553 C   0  0  0  0  0  0  0  0  0  0  0  0
    9.7717   15.8309   20.0402 C   0  0  0  0  0  0  0  0  0  0  0  0
    8.6424   16.1182   20.5475 O   0  0  0  0  0  0  0  0  0  0  0  0
   10.6426   14.8449   20.6960 N   0  0  0  0  0  0  0  0  0  0  0  0
   10.2073   14.1911   21.9387 C   0  0  0  0  0  0  0  0  0  0  0  0
   11.2395   14.4347   23.0276 C   0  0  0  0  0  0  0  0  0  0  0  0
   11.9696   15.4743   22.9899 O   0  0  0  0  0  0  0  0  0  0  0  0
   11.3878   13.5009   24.0871 O   0  0  0  0  0  0  0  0  0  0  0  0
  1  2  1  0
  2  3  1  0
  3  4  1  0
  4  5  2  0
  5  6  1  0
  2  6  2  0
  6  7  1  0
  7  8  2  0
  7  9  1  0
  9 10  1  0
 10 11  1  0
 11 12  2  0
 11 13  1  0
M  END
>  <name>  (41) 
amido-EN300-45508

>  <comRMSD>  (41) 
0.434365

>  <CN_RMSD>  (41) 
0.761784

>  <∆∆G>  (41) 
-32.603487

>  <MMFF_score>  (41) 
-12.471084

>  <Gold.Goldscore.Fitness>  (41) 
42.1023

>  <Gold.Goldscore.Internal.Vdw>  (41) 
-0.6981

>  <Gold.Goldscore.Internal.Torsion>  (41) 
-1.6313

>  <Gold.Goldscore.External.Vdw>  (41) 
29.6114

>  <Gold.Goldscore.Internal.HBond>  (41) 
0.0000

>  <Gold.Goldscore.External.HBond>  (41) 
2.9952

$$$$
EN300-270448
     RDKit          3D

 14 15  0  0  0  0  0  0  0  0999 V2000
   11.7369   13.7074   24.5924 O   0  0  0  0  0  0  0  0  0  0  0  0
   11.8720   13.7982   23.3320 C   0  0  0  0  0  0  0  0  0  0  0  0
   12.9461   13.1335   22.6833 O   0  0  0  0  0  0  0  0  0  0  0  0
   10.8838   14.6183   22.5188 C   0  0  0  0  0  0  0  0  0  0  0  0
   11.2195   15.0475   21.2723 C   0  0  0  0  0  0  0  0  0  0  0  0
   10.2313   15.8677   20.4591 C   0  0  0  0  0  0  0  0  0  0  0  0
   10.2626   16.0969   19.1148 C   0  0  0  0  0  0  0  0  0  0  0  0
    9.1739   16.9975   18.8230 C   0  0  0  0  0  0  0  0  0  0  0  0
    8.6604   17.5918   17.6794 C   0  0  0  0  0  0  0  0  0  0  0  0
    7.5697   18.4025   17.7984 C   0  0  0  0  0  0  0  0  0  0  0  0
    6.9668   18.6370   19.0244 C   0  0  0  0  0  0  0  0  0  0  0  0
    7.4763   18.0872   20.1872 C   0  0  0  0  0  0  0  0  0  0  0  0
    8.5778   17.2772   20.0366 C   0  0  0  0  0  0  0  0  0  0  0  0
    9.2227   16.6060   21.0512 O   0  0  0  0  0  0  0  0  0  0  0  0
  1  2  2  0
  2  3  1  0
  2  4  1  0
  4  5  2  0
  5  6  1  0
  6  7  2  0
  7  8  1  0
  8  9  2  0
  9 10  1  0
 10 11  2  0
 11 12  1  0
 12 13  2  0
  8 13  1  0
 13 14  1  0
  6 14  1  0
M  END
>  <name>  (42) 
amido-EN300-270448

>  <comRMSD>  (42) 
0.442052

>  <CN_RMSD>  (42) 
0.898444

>  <∆∆G>  (42) 
-13.913396

>  <MMFF_score>  (42) 
-13.117073

>  <Gold.Goldscore.Fitness>  (42) 
42.0952

>  <Gold.Goldscore.Internal.Vdw>  (42) 
0.6601

>  <Gold.Goldscore.Internal.Torsion>  (42) 
-1.4272

>  <Gold.Goldscore.External.Vdw>  (42) 
31.4702

>  <Gold.Goldscore.Internal.HBond>  (42) 
0.0000

>  <Gold.Goldscore.External.HBond>  (42) 
0.0000

$$$$
EN300-50614
     RDKit          3D

 11 11  0  0  0  0  0  0  0  0999 V2000
   10.5795   13.3665   23.1116 O   0  0  0  0  0  0  0  0  0  0  0  0
   11.6742   13.8181   22.6502 C   0  0  0  0  0  0  0  0  0  0  0  0
   12.9048   13.4541   23.2580 O   0  0  0  0  0  0  0  0  0  0  0  0
   11.6661   14.7479   21.4478 C   0  0  0  0  0  0  0  0  0  0  0  0
   10.2962   14.7137   20.7901 C   0  0  0  0  0  0  0  0  0  0  0  0
   10.2339   15.7651   19.6941 C   0  0  0  0  0  0  0  0  0  0  0  0
    9.4212   16.8202   19.6674 C   0  0  0  0  0  0  0  0  0  0  0  0
    9.7092   17.5147   18.4920 N   0  0  0  0  0  0  0  0  0  0  0  0
   10.6941   16.8692   17.7811 C   0  0  0  0  0  0  0  0  0  0  0  0
   11.3416   17.3271   16.2988 S   0  0  0  0  0  0  0  0  0  0  0  0
   11.0170   15.7936   18.5420 N   0  0  0  0  0  0  0  0  0  0  0  0
  1  2  2  0
  2  3  1  0
  2  4  1  0
  4  5  1  0
  5  6  1  0
  6  7  1  0
  7  8  2  0
  8  9  1  0
  9 10  2  0
  9 11  1  0
  6 11  2  0
M  END
>  <name>  (43) 
amido-EN300-50614

>  <comRMSD>  (43) 
0.417714

>  <CN_RMSD>  (43) 
0.659718

>  <∆∆G>  (43) 
-7.588123

>  <MMFF_score>  (43) 
-30.227508

>  <Gold.Goldscore.Fitness>  (43) 
42.03

>  <Gold.Goldscore.Internal.Vdw>  (43) 
-0.2656

>  <Gold.Goldscore.Internal.Torsion>  (43) 
-1.6951

>  <Gold.Goldscore.External.Vdw>  (43) 
30.1312

>  <Gold.Goldscore.Internal.HBond>  (43) 
0.0000

>  <Gold.Goldscore.External.HBond>  (43) 
1.3963

$$$$
EN300-35411
     RDKit          3D

 13 14  0  0  0  0  0  0  0  0999 V2000
    9.0314   13.7164   22.8234 O   0  0  0  0  0  0  0  0  0  0  0  0
   10.1516   13.7298   22.2233 C   0  0  0  0  0  0  0  0  0  0  0  0
   11.2358   12.9630   22.7265 O   0  0  0  0  0  0  0  0  0  0  0  0
   10.3309   14.5665   20.9671 C   0  0  0  0  0  0  0  0  0  0  0  0
   11.5132   14.4802   20.2663 C   0  0  0  0  0  0  0  0  0  0  0  0
   11.7314   15.2370   19.1265 C   0  0  0  0  0  0  0  0  0  0  0  0
   10.7128   16.0774   18.7136 C   0  0  0  0  0  0  0  0  0  0  0  0
   10.6251   16.9569   17.6405 N   0  0  0  0  0  0  0  0  0  0  0  0
    9.4204   17.5872   17.6370 C   0  0  0  0  0  0  0  0  0  0  0  0
    9.0001   18.4253   16.8423 O   0  0  0  0  0  0  0  0  0  0  0  0
    8.7198   17.1005   18.7410 N   0  0  0  0  0  0  0  0  0  0  0  0
    9.5176   16.1592   19.4146 C   0  0  0  0  0  0  0  0  0  0  0  0
    9.2920   15.4046   20.5514 C   0  0  0  0  0  0  0  0  0  0  0  0
  1  2  2  0
  2  3  1  0
  2  4  1  0
  4  5  1  0
  5  6  2  0
  6  7  1  0
  7  8  2  0
  8  9  1  0
  9 10  2  0
  9 11  1  0
 11 12  2  0
  7 12  1  0
 12 13  1  0
  4 13  2  0
M  END
>  <name>  (44) 
amido-EN300-35411

>  <comRMSD>  (44) 
0.501662

>  <CN_RMSD>  (44) 
0.586143

>  <∆∆G>  (44) 
-26.313903

>  <MMFF_score>  (44) 
-26.114956

>  <Gold.Goldscore.Fitness>  (44) 
41.984

>  <Gold.Goldscore.Internal.Vdw>  (44) 
-0.0765

>  <Gold.Goldscore.Internal.Torsion>  (44) 
-0.0593

>  <Gold.Goldscore.External.Vdw>  (44) 
28.4847

>  <Gold.Goldscore.Internal.HBond>  (44) 
0.0000

>  <Gold.Goldscore.External.HBond>  (44) 
2.8546

$$$$
EN300-52322
     RDKit          3D

 12 12  0  0  0  0  0  0  0  0999 V2000
   10.3143   13.6445   23.1316 O   0  0  0  0  0  0  0  0  0  0  0  0
   11.5451   13.7371   22.8289 C   0  0  0  0  0  0  0  0  0  0  0  0
   12.5297   13.1624   23.6754 O   0  0  0  0  0  0  0  0  0  0  0  0
   11.9633   14.4631   21.5606 C   0  0  0  0  0  0  0  0  0  0  0  0
   10.9510   15.4721   21.2170 N   0  0  0  0  0  0  0  0  0  0  0  0
   10.6318   15.7429   19.8079 C   0  0  0  0  0  0  0  0  0  0  0  0
   11.2310   15.1048   18.8865 O   0  0  0  0  0  0  0  0  0  0  0  0
    9.5850   16.7863   19.4528 C   0  0  0  0  0  0  0  0  0  0  0  0
    8.5144   17.0769   20.3051 C   0  0  0  0  0  0  0  0  0  0  0  0
    7.5921   17.9204   19.7306 C   0  0  0  0  0  0  0  0  0  0  0  0
    8.0460   18.3506   18.1254 S   0  0  0  0  0  0  0  0  0  0  0  0
    9.4788   17.4060   18.2464 C   0  0  0  0  0  0  0  0  0  0  0  0
  1  2  2  0
  2  3  1  0
  2  4  1  0
  4  5  1  0
  5  6  1  0
  6  7  2  0
  6  8  1  0
  8  9  1  0
  9 10  2  0
 10 11  1  0
 11 12  1  0
  8 12  2  0
M  END
>  <name>  (45) 
amido-EN300-52322

>  <comRMSD>  (45) 
0.456078

>  <CN_RMSD>  (45) 
0.731989

>  <∆∆G>  (45) 
-34.409951

>  <MMFF_score>  (45) 
-11.850537

>  <Gold.Goldscore.Fitness>  (45) 
41.9499

>  <Gold.Goldscore.Internal.Vdw>  (45) 
-0.4375

>  <Gold.Goldscore.Internal.Torsion>  (45) 
-2.4181

>  <Gold.Goldscore.External.Vdw>  (45) 
30.0099

>  <Gold.Goldscore.Internal.HBond>  (45) 
0.0000

>  <Gold.Goldscore.External.HBond>  (45) 
2.0000

$$$$
EN300-7708964
     RDKit          3D

 10 10  0  0  0  0  0  0  0  0999 V2000
   11.6953   13.2225   24.5623 O   0  0  0  0  0  0  0  0  0  0  0  0
   11.3112   14.2304   23.8902 C   0  0  0  0  0  0  0  0  0  0  0  0
   10.0342   14.2249   23.2692 O   0  0  0  0  0  0  0  0  0  0  0  0
   12.2187   15.4419   23.7511 C   0  0  0  0  0  0  0  0  0  0  0  0
   13.0515   15.3906   22.1449 S   0  0  0  0  0  0  0  0  0  0  0  0
   11.8144   15.3843   20.8237 C   0  0  0  0  0  0  0  0  0  0  0  0
   10.6548   15.9810   20.8974 N   0  0  0  0  0  0  0  0  0  0  0  0
    9.9666   15.9762   19.6087 C   0  0  0  0  0  0  0  0  0  0  0  0
   11.0476   15.4454   18.6760 C   0  0  0  0  0  0  0  0  0  0  0  0
   12.0590   14.9356   19.6146 N   0  0  0  0  0  0  0  0  0  0  0  0
  1  2  2  0
  2  3  1  0
  2  4  1  0
  4  5  1  0
  5  6  1  0
  6  7  2  0
  7  8  1  0
  8  9  1  0
  9 10  1  0
  6 10  1  0
M  END
>  <name>  (46) 
amido-EN300-7708964

>  <comRMSD>  (46) 
0.56444

>  <CN_RMSD>  (46) 
0.52027

>  <∆∆G>  (46) 
-29.159888

>  <MMFF_score>  (46) 
-33.024746

>  <Gold.Goldscore.Fitness>  (46) 
41.8508

>  <Gold.Goldscore.Internal.Vdw>  (46) 
1.2856

>  <Gold.Goldscore.Internal.Torsion>  (46) 
-1.0948

>  <Gold.Goldscore.External.Vdw>  (46) 
25.9641

>  <Gold.Goldscore.Internal.HBond>  (46) 
0.0000

>  <Gold.Goldscore.External.HBond>  (46) 
6.5156

$$$$
