untitled-dbase-1436_5268
  -OEChem-11132311063D

 52 54  0     1  0  0  0  0  0999 V2000
    4.2919   13.8962   26.8680 C   0  0  0  0  0  0  0  0  0  0  0  0
    4.1654   13.3127   28.1285 C   0  0  0  0  0  0  0  0  0  0  0  0
    5.2829   13.4546   25.9912 C   0  0  0  0  0  0  0  0  0  0  0  0
    5.0299   12.2875   28.5124 C   0  0  0  0  0  0  0  0  0  0  0  0
    8.1413   12.8638   25.0089 C   0  0  0  0  0  0  0  0  0  0  0  0
    9.0635   11.0537   23.7584 C   0  0  0  0  0  0  0  0  0  0  0  0
    6.1474   12.4295   26.3751 C   0  0  0  0  0  0  0  0  0  0  0  0
    9.1207   12.4018   24.1306 C   0  0  0  0  0  0  0  0  0  0  0  0
    6.0209   11.8459   27.6357 C   0  0  0  0  0  0  0  0  0  0  0  0
    7.1732   11.9752   25.4626 C   0  0  0  0  0  0  0  0  0  0  0  0
    9.7841   10.1635   22.9428 C   0  0  0  0  0  0  0  0  0  0  0  0
    8.0451   10.2731   24.2835 C   0  0  0  0  0  0  0  0  0  0  0  0
   10.1748   13.3145   23.6179 C   0  0  0  0  0  0  0  0  0  0  0  0
   10.9572   15.7400   22.0582 C   0  0  0  0  0  0  0  0  0  0  0  0
   10.9810   10.4354   22.1288 C   0  0  0  0  0  0  0  0  0  0  0  0
   15.0955   13.9356   21.3972 C   0  0  0  0  0  0  0  0  0  0  0  0
   13.7114   15.9595   20.8983 C   0  0  0  0  0  0  0  0  0  0  0  0
    9.6475   17.7757   21.4616 C   0  0  0  0  0  0  0  0  0  0  0  0
   12.6381   13.8815   21.9207 C   0  0  0  0  0  0  0  0  0  0  0  0
   11.2024   14.3089   21.5902 C   0  0  1  0  0  0  0  0  0  0  0  0
   13.7137   14.4315   20.9618 C   0  0  0  0  0  0  0  0  0  0  0  0
    7.0768   10.6656   25.1317 N   0  0  0  0  0  0  0  0  0  0  0  0
    9.2651    8.9324   22.9544 N   0  0  0  0  0  0  0  0  0  0  0  0
   10.2228   13.4770   22.2396 N   0  0  0  0  0  0  0  0  0  0  0  0
   10.0247   16.3944   21.2653 N   0  0  0  0  0  0  0  0  0  0  0  0
   10.9437   13.8495   24.4124 O   0  0  0  0  0  0  0  0  0  0  0  0
   11.5598   16.2481   23.0015 O   0  0  0  0  0  0  0  0  0  0  0  0
    8.1669    9.0041   23.8016 O   0  0  0  0  0  0  0  0  0  0  0  0
    6.8450   10.8605   28.0208 F   0  0  0  0  0  0  0  0  0  0  0  0
    3.6185   14.6943   26.5692 H   0  0  0  0  0  0  0  0  0  0  0  0
    3.3940   13.6566   28.8112 H   0  0  0  0  0  0  0  0  0  0  0  0
    5.3688   13.9198   25.0121 H   0  0  0  0  0  0  0  0  0  0  0  0
    4.9316   11.8332   29.4939 H   0  0  0  0  0  0  0  0  0  0  0  0
    8.1401   13.9023   25.3303 H   0  0  0  0  0  0  0  0  0  0  0  0
   11.9056   10.2627   22.7058 H   0  0  0  0  0  0  0  0  0  0  0  0
   11.0270    9.7970   21.2285 H   0  0  0  0  0  0  0  0  0  0  0  0
   11.0078   11.4770   21.7617 H   0  0  0  0  0  0  0  0  0  0  0  0
   15.3377   14.2922   22.4040 H   0  0  0  0  0  0  0  0  0  0  0  0
   15.8725   14.3033   20.7187 H   0  0  0  0  0  0  0  0  0  0  0  0
   15.1415   12.8412   21.4049 H   0  0  0  0  0  0  0  0  0  0  0  0
   13.8940   16.3981   21.8852 H   0  0  0  0  0  0  0  0  0  0  0  0
   14.4911   16.3208   20.2190 H   0  0  0  0  0  0  0  0  0  0  0  0
   12.7567   16.3418   20.5254 H   0  0  0  0  0  0  0  0  0  0  0  0
    8.7877   17.8279   22.1457 H   0  0  0  0  0  0  0  0  0  0  0  0
   10.4942   18.3290   21.8940 H   0  0  0  0  0  0  0  0  0  0  0  0
    9.3737   18.2219   20.4941 H   0  0  0  0  0  0  0  0  0  0  0  0
   12.6912   12.7837   21.9159 H   0  0  0  0  0  0  0  0  0  0  0  0
   12.8819   14.1876   22.9467 H   0  0  0  0  0  0  0  0  0  0  0  0
   11.0072   14.2521   20.5146 H   0  0  0  0  0  0  0  0  0  0  0  0
   13.5273   14.0452   19.9523 H   0  0  0  0  0  0  0  0  0  0  0  0
    9.5896   12.9492   21.6436 H   0  0  0  0  0  0  0  0  0  0  0  0
    9.5847   15.8932   20.4993 H   0  0  0  0  0  0  0  0  0  0  0  0
  1  2  2  0  0  0  0
  1  3  1  0  0  0  0
  2  4  1  0  0  0  0
  3  7  2  0  0  0  0
  4  9  2  0  0  0  0
  5  8  1  0  0  0  0
  5 10  2  0  0  0  0
  6  8  2  0  0  0  0
  6 11  1  0  0  0  0
  6 12  1  0  0  0  0
  7  9  1  0  0  0  0
  7 10  1  0  0  0  0
  8 13  1  0  0  0  0
  9 29  1  0  0  0  0
 10 22  1  0  0  0  0
 11 15  1  0  0  0  0
 11 23  2  0  0  0  0
 12 22  2  0  0  0  0
 12 28  1  0  0  0  0
 13 24  1  0  0  0  0
 13 26  2  0  0  0  0
 14 20  1  0  0  0  0
 14 25  1  0  0  0  0
 14 27  2  0  0  0  0
 16 21  1  0  0  0  0
 17 21  1  0  0  0  0
 18 25  1  0  0  0  0
 19 20  1  0  0  0  0
 19 21  1  0  0  0  0
 20 24  1  0  0  0  0
 23 28  1  0  0  0  0
  1 30  1  0  0  0  0
  2 31  1  0  0  0  0
  3 32  1  0  0  0  0
  4 33  1  0  0  0  0
  5 34  1  0  0  0  0
 15 35  1  0  0  0  0
 15 36  1  0  0  0  0
 15 37  1  0  0  0  0
 16 38  1  0  0  0  0
 16 39  1  0  0  0  0
 16 40  1  0  0  0  0
 17 41  1  0  0  0  0
 17 42  1  0  0  0  0
 17 43  1  0  0  0  0
 18 44  1  0  0  0  0
 18 45  1  0  0  0  0
 18 46  1  0  0  0  0
 19 47  1  0  0  0  0
 19 48  1  0  0  0  0
 20 49  1  0  0  0  0
 21 50  1  0  0  0  0
 24 51  1  0  0  0  0
 25 52  1  0  0  0  0
M  END
> <Catalog ID>
Z595047902

> <PlateID>
1041831-R-18

> <Well>
H07

> <MW (desalted)>
398.431

> <ClogP>
3.634

> <HBD>
2

> <TPSA>
97.120

> <RotBonds>
6

> <ROCS_ShapeQuery>
A71EV2A-x0451_0A_A71EV2A-x0310_0A_A71EV2A-x0416_0A_peptide

> <ROCS_TanimotoCombo>
0.591 

> <ROCS_ShapeTanimoto>
0.403 

> <ROCS_ColorTanimoto>
0.189 

> <ROCS_RefTversky>
0.354 

> <ROCS_RefColorTversky>
0.216 

> <ROCS_RefTverskyCombo>
0.570 

> <ROCS_FitTversky>
1.527 

> <ROCS_FitColorTversky>
0.596 

> <ROCS_FitTverskyCombo>
2.123 

> <ROCS_ColorScore>
-6.622

> <ROCS_Overlap>
2461.414

> <ROCS_Rank>
1                   

$$$$
untitled-dbase-1167_423
  -OEChem-11132311063D

 49 53  0     1  0  0  0  0  0999 V2000
   10.1117   10.9218   22.8832 C   0  0  0  0  0  0  0  0  0  0  0  0
    8.5917   11.9137   24.4312 C   0  0  0  0  0  0  0  0  0  0  0  0
    9.7160   12.0453   23.6079 C   0  0  0  0  0  0  0  0  0  0  0  0
    9.3804    9.7468   23.0137 C   0  0  0  0  0  0  0  0  0  0  0  0
    7.8413   12.7138   25.3109 C   0  0  0  0  0  0  0  0  0  0  0  0
    7.9509   10.6848   24.4713 C   0  0  0  0  0  0  0  0  0  0  0  0
   10.4663   13.3230   23.5004 C   0  0  0  0  0  0  0  0  0  0  0  0
   12.4183   15.3677   18.2287 C   0  0  0  0  0  0  0  0  0  0  0  0
   13.5917   16.3220   18.4748 C   0  0  0  0  0  0  0  0  0  0  0  0
    8.9893    7.3061   22.2625 C   0  0  0  0  0  0  0  0  0  0  0  0
   10.3171    7.3390   22.9525 C   0  0  0  0  0  0  0  0  0  0  0  0
   11.5922   15.1599   19.5014 C   0  0  0  0  0  0  0  0  0  0  0  0
   13.0749   14.8759   22.9749 C   0  0  0  0  0  0  0  0  0  0  0  0
   14.4194   15.9210   19.7029 C   0  0  0  0  0  0  0  0  0  0  0  0
   14.2062   15.4345   22.1040 C   0  0  0  0  0  0  0  0  0  0  0  0
    9.8227    8.5580   22.2224 C   0  0  0  0  0  0  0  0  0  0  0  0
   12.5121   14.7660   20.6513 C   0  0  2  0  0  0  0  0  0  0  0  0
   11.8734   14.7448   22.0325 C   0  0  1  0  0  0  0  0  0  0  0  0
    8.0547   14.1267   25.6684 C   0  0  0  0  0  0  0  0  0  0  0  0
    8.2886    9.5711   23.7955 N   0  0  0  0  0  0  0  0  0  0  0  0
    6.8193   12.0473   25.8553 N   0  0  0  0  0  0  0  0  0  0  0  0
   13.5381   15.7948   20.8568 N   0  0  2  0  0  0  0  0  0  0  0  0
   11.0920   13.5673   22.2819 N   0  0  0  0  0  0  0  0  0  0  0  0
   10.5153   14.0736   24.4713 O   0  0  0  0  0  0  0  0  0  0  0  0
    6.8907   10.7661   25.3237 O   0  0  0  0  0  0  0  0  0  0  0  0
   10.9768   10.9669   22.2270 H   0  0  0  0  0  0  0  0  0  0  0  0
   11.7806   15.7577   17.4279 H   0  0  0  0  0  0  0  0  0  0  0  0
   12.8070   14.4001   17.8877 H   0  0  0  0  0  0  0  0  0  0  0  0
   14.2360   16.3488   17.5887 H   0  0  0  0  0  0  0  0  0  0  0  0
   13.2021   17.3384   18.6161 H   0  0  0  0  0  0  0  0  0  0  0  0
    8.9110    6.7324   21.3465 H   0  0  0  0  0  0  0  0  0  0  0  0
    8.1010    7.2788   22.8819 H   0  0  0  0  0  0  0  0  0  0  0  0
   10.3210    7.3357   24.0361 H   0  0  0  0  0  0  0  0  0  0  0  0
   11.1337    6.7867   22.5031 H   0  0  0  0  0  0  0  0  0  0  0  0
   11.0526   16.0857   19.7386 H   0  0  0  0  0  0  0  0  0  0  0  0
   10.8379   14.3832   19.3327 H   0  0  0  0  0  0  0  0  0  0  0  0
   13.3742   13.9091   23.3966 H   0  0  0  0  0  0  0  0  0  0  0  0
   12.8369   15.5487   23.8061 H   0  0  0  0  0  0  0  0  0  0  0  0
   14.9516   14.9825   19.5021 H   0  0  0  0  0  0  0  0  0  0  0  0
   15.1735   16.6944   19.8886 H   0  0  0  0  0  0  0  0  0  0  0  0
   14.6826   16.3015   22.5720 H   0  0  0  0  0  0  0  0  0  0  0  0
   14.9678   14.6598   21.9510 H   0  0  0  0  0  0  0  0  0  0  0  0
   10.3056    8.7892   21.2835 H   0  0  0  0  0  0  0  0  0  0  0  0
   12.9821   13.7948   20.4334 H   0  0  0  0  0  0  0  0  0  0  0  0
   11.2054   15.6050   22.1696 H   0  0  0  0  0  0  0  0  0  0  0  0
    7.5071   14.7994   24.9864 H   0  0  0  0  0  0  0  0  0  0  0  0
    7.7202   14.3516   26.6968 H   0  0  0  0  0  0  0  0  0  0  0  0
    9.1218   14.4100   25.6292 H   0  0  0  0  0  0  0  0  0  0  0  0
   11.0538   12.8619   21.5469 H   0  0  0  0  0  0  0  0  0  0  0  0
  1  3  1  0  0  0  0
  1  4  2  0  0  0  0
  2  3  2  0  0  0  0
  2  5  1  0  0  0  0
  2  6  1  0  0  0  0
  3  7  1  0  0  0  0
  4 16  1  0  0  0  0
  4 20  1  0  0  0  0
  5 19  1  0  0  0  0
  5 21  2  0  0  0  0
  6 20  2  0  0  0  0
  6 25  1  0  0  0  0
  7 23  1  0  0  0  0
  7 24  2  0  0  0  0
  8  9  1  0  0  0  0
  8 12  1  0  0  0  0
  9 14  1  0  0  0  0
 10 11  1  0  0  0  0
 10 16  1  0  0  0  0
 11 16  1  0  0  0  0
 12 17  1  0  0  0  0
 13 15  1  0  0  0  0
 13 18  1  0  0  0  0
 14 22  1  0  0  0  0
 15 22  1  0  0  0  0
 17 18  1  0  0  0  0
 17 22  1  0  0  0  0
 18 23  1  0  0  0  0
 21 25  1  0  0  0  0
  1 26  1  0  0  0  0
  8 27  1  0  0  0  0
  8 28  1  0  0  0  0
  9 29  1  0  0  0  0
  9 30  1  0  0  0  0
 10 31  1  0  0  0  0
 10 32  1  0  0  0  0
 11 33  1  0  0  0  0
 11 34  1  0  0  0  0
 12 35  1  0  0  0  0
 12 36  1  0  0  0  0
 13 37  1  0  0  0  0
 13 38  1  0  0  0  0
 14 39  1  0  0  0  0
 14 40  1  0  0  0  0
 15 41  1  0  0  0  0
 15 42  1  0  0  0  0
 16 43  1  0  0  0  0
 17 44  1  0  0  0  0
 18 45  1  0  0  0  0
 19 46  1  0  0  0  0
 19 47  1  0  0  0  0
 19 48  1  0  0  0  0
 23 49  1  0  0  0  0
M  END
> <Catalog ID>
Z423021908

> <PlateID>
1041831-R-15

> <Well>
E08

> <MW (desalted)>
340.419

> <ClogP>
2.626

> <HBD>
1

> <TPSA>
71.260

> <RotBonds>
3

> <ROCS_ShapeQuery>
A71EV2A-x0451_0A_A71EV2A-x0310_0A_A71EV2A-x0416_0A_peptide

> <ROCS_TanimotoCombo>
0.589 

> <ROCS_ShapeTanimoto>
0.380 

> <ROCS_ColorTanimoto>
0.210 

> <ROCS_RefTversky>
0.333 

> <ROCS_RefColorTversky>
0.231 

> <ROCS_RefTverskyCombo>
0.564 

> <ROCS_FitTversky>
1.587 

> <ROCS_FitColorTversky>
0.694 

> <ROCS_FitTverskyCombo>
2.282 

> <ROCS_ColorScore>
-7.063

> <ROCS_Overlap>
2314.316

> <ROCS_Rank>
2                   

$$$$
untitled-dbase-3352_562
  -OEChem-11132311063D

 48 51  0     1  0  0  0  0  0999 V2000
   12.2496    7.4500   22.0122 C   0  0  0  0  0  0  0  0  0  0  0  0
   12.5449    8.7931   22.2458 C   0  0  0  0  0  0  0  0  0  0  0  0
   10.9862    6.9489   22.3260 C   0  0  0  0  0  0  0  0  0  0  0  0
   11.5769    9.6350   22.7932 C   0  0  0  0  0  0  0  0  0  0  0  0
   10.0182    7.7908   22.8735 C   0  0  0  0  0  0  0  0  0  0  0  0
   10.3135    9.1339   23.1071 C   0  0  0  0  0  0  0  0  0  0  0  0
    9.3198    9.9978   23.6692 C   0  0  0  0  0  0  0  0  0  0  0  0
    9.2135   11.3479   23.4352 C   0  0  0  0  0  0  0  0  0  0  0  0
    7.6306   10.6337   24.8195 C   0  0  0  0  0  0  0  0  0  0  0  0
   13.0989   15.9653   18.7139 C   0  0  0  0  0  0  0  0  0  0  0  0
   12.6921   15.5481   20.6989 C   0  0  0  0  0  0  0  0  0  0  0  0
    6.5094   13.1955   25.0814 C   0  0  0  0  0  0  0  0  0  0  0  0
    5.9552   12.0456   25.7772 C   0  0  0  0  0  0  0  0  0  0  0  0
    7.5828   13.0287   24.2952 C   0  0  0  0  0  0  0  0  0  0  0  0
    6.4777   10.8004   25.6670 C   0  0  0  0  0  0  0  0  0  0  0  0
   10.7146   13.3409   23.0413 C   0  0  0  0  0  0  0  0  0  0  0  0
   12.9646   16.0088   17.2536 C   0  0  0  0  0  0  0  0  0  0  0  0
    5.8489    9.6563   26.4192 C   0  0  0  0  0  0  0  0  0  0  0  0
   13.2968   14.8953   23.0654 C   0  0  0  0  0  0  0  0  0  0  0  0
   12.1742   15.1133   22.0529 C   0  0  2  0  0  0  0  0  0  0  0  0
    8.3405    9.5621   24.5242 N   0  0  0  0  0  0  0  0  0  0  0  0
   12.1834   15.3414   19.5105 N   0  0  0  0  0  0  0  0  0  0  0  0
   14.1282   16.5349   19.3478 N   0  0  0  0  0  0  0  0  0  0  0  0
    8.1317   11.7587   24.1708 N   0  0  0  0  0  0  0  0  0  0  0  0
    9.9670   12.1901   22.6587 N   0  0  0  0  0  0  0  0  0  0  0  0
   11.3507   13.9312   21.9445 N   0  0  0  0  0  0  0  0  0  0  0  0
   10.8046   13.7792   24.1856 O   0  0  0  0  0  0  0  0  0  0  0  0
   13.8537   16.2531   20.6920 O   0  0  0  0  0  0  0  0  0  0  0  0
   13.0028    6.7945   21.5850 H   0  0  0  0  0  0  0  0  0  0  0  0
   13.5280    9.1837   22.0003 H   0  0  0  0  0  0  0  0  0  0  0  0
   10.7561    5.9034   22.1429 H   0  0  0  0  0  0  0  0  0  0  0  0
   11.8224   10.6797   22.9694 H   0  0  0  0  0  0  0  0  0  0  0  0
    9.0380    7.3847   23.1126 H   0  0  0  0  0  0  0  0  0  0  0  0
    6.0424   14.1639   25.2136 H   0  0  0  0  0  0  0  0  0  0  0  0
    5.0867   12.2371   26.4005 H   0  0  0  0  0  0  0  0  0  0  0  0
    8.0392   13.8474   23.7524 H   0  0  0  0  0  0  0  0  0  0  0  0
   12.3953   16.8976   16.9244 H   0  0  0  0  0  0  0  0  0  0  0  0
   13.9443   16.0386   16.7397 H   0  0  0  0  0  0  0  0  0  0  0  0
   12.4446   15.1188   16.8502 H   0  0  0  0  0  0  0  0  0  0  0  0
    6.3148    9.5735   27.3961 H   0  0  0  0  0  0  0  0  0  0  0  0
    5.9967    8.7376   25.8598 H   0  0  0  0  0  0  0  0  0  0  0  0
    4.7856    9.8450   26.5311 H   0  0  0  0  0  0  0  0  0  0  0  0
   13.9944   14.1240   22.7210 H   0  0  0  0  0  0  0  0  0  0  0  0
   13.8626   15.8215   23.2167 H   0  0  0  0  0  0  0  0  0  0  0  0
   12.9119   14.5898   24.0448 H   0  0  0  0  0  0  0  0  0  0  0  0
   11.5125   15.8921   22.4518 H   0  0  0  0  0  0  0  0  0  0  0  0
   10.0245   11.9916   21.6430 H   0  0  0  0  0  0  0  0  0  0  0  0
   11.2280   13.5093   21.0294 H   0  0  0  0  0  0  0  0  0  0  0  0
  1  2  2  0  0  0  0
  1  3  1  0  0  0  0
  2  4  1  0  0  0  0
  3  5  2  0  0  0  0
  4  6  2  0  0  0  0
  5  6  1  0  0  0  0
  6  7  1  0  0  0  0
  7  8  2  0  0  0  0
  7 21  1  0  0  0  0
  8 24  1  0  0  0  0
  8 25  1  0  0  0  0
  9 15  1  0  0  0  0
  9 21  2  0  0  0  0
  9 24  1  0  0  0  0
 10 17  1  0  0  0  0
 10 22  1  0  0  0  0
 10 23  2  0  0  0  0
 11 20  1  0  0  0  0
 11 22  2  0  0  0  0
 11 28  1  0  0  0  0
 12 13  1  0  0  0  0
 12 14  2  0  0  0  0
 13 15  2  0  0  0  0
 14 24  1  0  0  0  0
 15 18  1  0  0  0  0
 16 25  1  0  0  0  0
 16 26  1  0  0  0  0
 16 27  2  0  0  0  0
 19 20  1  0  0  0  0
 20 26  1  0  0  0  0
 23 28  1  0  0  0  0
  1 29  1  0  0  0  0
  2 30  1  0  0  0  0
  3 31  1  0  0  0  0
  4 32  1  0  0  0  0
  5 33  1  0  0  0  0
 12 34  1  0  0  0  0
 13 35  1  0  0  0  0
 14 36  1  0  0  0  0
 17 37  1  0  0  0  0
 17 38  1  0  0  0  0
 17 39  1  0  0  0  0
 18 40  1  0  0  0  0
 18 41  1  0  0  0  0
 18 42  1  0  0  0  0
 19 43  1  0  0  0  0
 19 44  1  0  0  0  0
 19 45  1  0  0  0  0
 20 46  1  0  0  0  0
 25 47  1  0  0  0  0
 26 48  1  0  0  0  0
M  END
> <Catalog ID>
Z1196357711

> <PlateID>
1041831-R-42

> <Well>
H03

> <MW (desalted)>
376.412

> <ClogP>
3.666

> <HBD>
2

> <TPSA>
97.350

> <RotBonds>
4

> <ROCS_ShapeQuery>
A71EV2A-x0451_0A_A71EV2A-x0310_0A_A71EV2A-x0416_0A_peptide

> <ROCS_TanimotoCombo>
0.588 

> <ROCS_ShapeTanimoto>
0.386 

> <ROCS_ColorTanimoto>
0.202 

> <ROCS_RefTversky>
0.343 

> <ROCS_RefColorTversky>
0.234 

> <ROCS_RefTverskyCombo>
0.577 

> <ROCS_FitTversky>
1.485 

> <ROCS_FitColorTversky>
0.595 

> <ROCS_FitTverskyCombo>
2.080 

> <ROCS_ColorScore>
-7.189

> <ROCS_Overlap>
2384.623

> <ROCS_Rank>
3                   

$$$$
untitled-dbase-1012_3633
  -OEChem-11132311063D

 51 54  0     0  0  0  0  0  0999 V2000
   10.4820    6.5732   21.6573 C   0  0  0  0  0  0  0  0  0  0  0  0
   13.6625   16.3699   20.9890 C   0  0  0  0  0  0  0  0  0  0  0  0
   13.9944   15.6430   22.1322 C   0  0  0  0  0  0  0  0  0  0  0  0
   10.8106    7.8215   22.2378 C   0  0  0  0  0  0  0  0  0  0  0  0
   10.0429   10.7684   23.0714 C   0  0  0  0  0  0  0  0  0  0  0  0
   11.6547   15.0507   20.7329 C   0  0  0  0  0  0  0  0  0  0  0  0
    7.7677   12.8168   25.2886 C   0  0  0  0  0  0  0  0  0  0  0  0
    9.1121    6.4692   21.7251 C   0  0  0  0  0  0  0  0  0  0  0  0
    8.5142   11.9257   24.4922 C   0  0  0  0  0  0  0  0  0  0  0  0
    9.6704   11.9553   23.7025 C   0  0  0  0  0  0  0  0  0  0  0  0
   12.4927   16.0738   20.2893 C   0  0  0  0  0  0  0  0  0  0  0  0
   11.9866   14.3237   21.8761 C   0  0  0  0  0  0  0  0  0  0  0  0
   13.1565   14.6198   22.5758 C   0  0  0  0  0  0  0  0  0  0  0  0
    9.2597    9.6339   23.2556 C   0  0  0  0  0  0  0  0  0  0  0  0
    9.6180    8.3915   22.6187 C   0  0  0  0  0  0  0  0  0  0  0  0
    7.8256   10.7268   24.5908 C   0  0  0  0  0  0  0  0  0  0  0  0
   10.4520   13.1671   23.5418 C   0  0  0  0  0  0  0  0  0  0  0  0
   12.1387   16.8516   19.0671 C   0  0  0  0  0  0  0  0  0  0  0  0
    4.3564   10.4290   25.3058 C   0  0  0  0  0  0  0  0  0  0  0  0
    5.7496    9.7949   27.3215 C   0  0  0  0  0  0  0  0  0  0  0  0
   14.3004   12.7563   23.5109 C   0  0  0  0  0  0  0  0  0  0  0  0
    5.7443   10.0280   25.8095 C   0  0  0  0  0  0  0  0  0  0  0  0
    6.6978   12.2410   25.8468 N   0  0  0  0  0  0  0  0  0  0  0  0
    8.1354    9.5555   24.0081 N   0  0  0  0  0  0  0  0  0  0  0  0
    6.7593   10.9718   25.4049 N   0  0  0  0  0  0  0  0  0  0  0  0
   11.1252   13.2865   22.3144 N   0  0  0  0  0  0  0  0  0  0  0  0
   10.5404   14.0136   24.4444 O   0  0  0  0  0  0  0  0  0  0  0  0
    8.5779    7.5735   22.3096 O   0  0  0  0  0  0  0  0  0  0  0  0
   13.4990   13.9212   23.6950 O   0  0  0  0  0  0  0  0  0  0  0  0
   11.1591    5.8411   21.2418 H   0  0  0  0  0  0  0  0  0  0  0  0
   14.3216   17.1651   20.6509 H   0  0  0  0  0  0  0  0  0  0  0  0
   14.9071   15.8791   22.6727 H   0  0  0  0  0  0  0  0  0  0  0  0
   11.7962    8.2480   22.3607 H   0  0  0  0  0  0  0  0  0  0  0  0
   10.9321   10.7367   22.4469 H   0  0  0  0  0  0  0  0  0  0  0  0
   10.7423   14.8228   20.1862 H   0  0  0  0  0  0  0  0  0  0  0  0
    7.9555   13.8627   25.4863 H   0  0  0  0  0  0  0  0  0  0  0  0
    8.4036    5.7139   21.4180 H   0  0  0  0  0  0  0  0  0  0  0  0
   12.5649   16.3763   18.1751 H   0  0  0  0  0  0  0  0  0  0  0  0
   11.0505   16.9191   18.9389 H   0  0  0  0  0  0  0  0  0  0  0  0
   12.5158   17.8809   19.1267 H   0  0  0  0  0  0  0  0  0  0  0  0
    4.0245   11.3800   25.7360 H   0  0  0  0  0  0  0  0  0  0  0  0
    3.6159    9.6670   25.5714 H   0  0  0  0  0  0  0  0  0  0  0  0
    4.3530   10.5368   24.2154 H   0  0  0  0  0  0  0  0  0  0  0  0
    5.5020   10.7166   27.8595 H   0  0  0  0  0  0  0  0  0  0  0  0
    6.7387    9.4646   27.6561 H   0  0  0  0  0  0  0  0  0  0  0  0
    5.0247    9.0299   27.6196 H   0  0  0  0  0  0  0  0  0  0  0  0
   14.5011   12.2943   24.4806 H   0  0  0  0  0  0  0  0  0  0  0  0
   15.2399   13.0323   23.0254 H   0  0  0  0  0  0  0  0  0  0  0  0
   13.7594   12.0490   22.8779 H   0  0  0  0  0  0  0  0  0  0  0  0
    5.9981    9.0721   25.3333 H   0  0  0  0  0  0  0  0  0  0  0  0
   10.9746   12.5288   21.6529 H   0  0  0  0  0  0  0  0  0  0  0  0
  1  4  1  0  0  0  0
  1  8  2  0  0  0  0
  2  3  1  0  0  0  0
  2 11  2  0  0  0  0
  3 13  2  0  0  0  0
  4 15  2  0  0  0  0
  5 10  1  0  0  0  0
  5 14  2  0  0  0  0
  6 11  1  0  0  0  0
  6 12  2  0  0  0  0
  7  9  1  0  0  0  0
  7 23  2  0  0  0  0
  8 28  1  0  0  0  0
  9 10  2  0  0  0  0
  9 16  1  0  0  0  0
 10 17  1  0  0  0  0
 11 18  1  0  0  0  0
 12 13  1  0  0  0  0
 12 26  1  0  0  0  0
 13 29  1  0  0  0  0
 14 15  1  0  0  0  0
 14 24  1  0  0  0  0
 15 28  1  0  0  0  0
 16 24  2  0  0  0  0
 16 25  1  0  0  0  0
 17 26  1  0  0  0  0
 17 27  2  0  0  0  0
 19 22  1  0  0  0  0
 20 22  1  0  0  0  0
 21 29  1  0  0  0  0
 22 25  1  0  0  0  0
 23 25  1  0  0  0  0
  1 30  1  0  0  0  0
  2 31  1  0  0  0  0
  3 32  1  0  0  0  0
  4 33  1  0  0  0  0
  5 34  1  0  0  0  0
  6 35  1  0  0  0  0
  7 36  1  0  0  0  0
  8 37  1  0  0  0  0
 18 38  1  0  0  0  0
 18 39  1  0  0  0  0
 18 40  1  0  0  0  0
 19 41  1  0  0  0  0
 19 42  1  0  0  0  0
 19 43  1  0  0  0  0
 20 44  1  0  0  0  0
 20 45  1  0  0  0  0
 20 46  1  0  0  0  0
 21 47  1  0  0  0  0
 21 48  1  0  0  0  0
 21 49  1  0  0  0  0
 22 50  1  0  0  0  0
 26 51  1  0  0  0  0
M  END
> <Catalog ID>
Z216420088

> <PlateID>
1041831-R-13

> <Well>
F03

> <MW (desalted)>
390.435

> <ClogP>
3.916

> <HBD>
1

> <TPSA>
82.180

> <RotBonds>
5

> <ROCS_ShapeQuery>
A71EV2A-x0451_0A_A71EV2A-x0310_0A_A71EV2A-x0416_0A_peptide

> <ROCS_TanimotoCombo>
0.585 

> <ROCS_ShapeTanimoto>
0.382 

> <ROCS_ColorTanimoto>
0.203 

> <ROCS_RefTversky>
0.342 

> <ROCS_RefColorTversky>
0.235 

> <ROCS_RefTverskyCombo>
0.577 

> <ROCS_FitTversky>
1.442 

> <ROCS_FitColorTversky>
0.598 

> <ROCS_FitTverskyCombo>
2.040 

> <ROCS_ColorScore>
-7.204

> <ROCS_Overlap>
2380.370

> <ROCS_Rank>
4                   

$$$$
untitled-dbase-1994_4376
  -OEChem-11132311063D

 54 57  0     0  0  0  0  0  0999 V2000
    4.3974   13.0262   28.4357 C   0  0  0  0  0  0  0  0  0  0  0  0
    4.4368   13.6517   27.1895 C   0  0  0  0  0  0  0  0  0  0  0  0
    5.3004   12.0053   28.7324 C   0  0  0  0  0  0  0  0  0  0  0  0
    5.3790   13.2561   26.2401 C   0  0  0  0  0  0  0  0  0  0  0  0
    6.2425   11.6097   27.7830 C   0  0  0  0  0  0  0  0  0  0  0  0
    8.1854   12.7433   25.0695 C   0  0  0  0  0  0  0  0  0  0  0  0
    9.7425   10.1338   22.8213 C   0  0  0  0  0  0  0  0  0  0  0  0
    9.0575   10.9876   23.7086 C   0  0  0  0  0  0  0  0  0  0  0  0
    6.2819   12.2351   26.5368 C   0  0  0  0  0  0  0  0  0  0  0  0
    9.1175   12.3250   24.1197 C   0  0  0  0  0  0  0  0  0  0  0  0
    7.2586   11.8254   25.5524 C   0  0  0  0  0  0  0  0  0  0  0  0
    8.0825   10.1785   24.2707 C   0  0  0  0  0  0  0  0  0  0  0  0
   10.1289   13.2647   23.5710 C   0  0  0  0  0  0  0  0  0  0  0  0
   11.1606   16.1888   22.3902 C   0  0  0  0  0  0  0  0  0  0  0  0
   13.3358   12.6449   21.4501 C   0  0  0  0  0  0  0  0  0  0  0  0
   12.9166   13.8347   22.3363 C   0  0  0  0  0  0  0  0  0  0  0  0
   12.2587   13.0891   20.4406 C   0  0  0  0  0  0  0  0  0  0  0  0
   11.5445   13.8261   21.6071 C   0  0  0  0  0  0  0  0  0  0  0  0
    5.9955    7.9448   23.5704 C   0  0  0  0  0  0  0  0  0  0  0  0
    7.5954    7.3031   25.4238 C   0  0  0  0  0  0  0  0  0  0  0  0
   10.9563   15.1838   21.2761 C   0  0  0  0  0  0  0  0  0  0  0  0
    7.4609    7.7640   23.9712 C   0  0  0  0  0  0  0  0  0  0  0  0
    9.2509    8.8903   22.8155 N   0  0  0  0  0  0  0  0  0  0  0  0
    7.1608   10.5244   25.1864 N   0  0  0  0  0  0  0  0  0  0  0  0
    8.2436    8.9480   23.7055 N   0  0  0  0  0  0  0  0  0  0  0  0
   10.1666   17.1433   22.4203 N   0  0  0  0  0  0  0  0  0  0  0  0
   10.5332   13.0043   22.2811 N   0  0  0  0  0  0  0  0  0  0  0  0
   10.5482   14.1759   24.2798 O   0  0  0  0  0  0  0  0  0  0  0  0
   12.1024   16.1595   23.1770 O   0  0  0  0  0  0  0  0  0  0  0  0
    3.6648   13.3356   29.1754 H   0  0  0  0  0  0  0  0  0  0  0  0
    3.7349   14.4478   26.9589 H   0  0  0  0  0  0  0  0  0  0  0  0
    5.2712   11.5188   29.7030 H   0  0  0  0  0  0  0  0  0  0  0  0
    5.3971   13.7536   25.2732 H   0  0  0  0  0  0  0  0  0  0  0  0
    6.9404   10.8128   28.0288 H   0  0  0  0  0  0  0  0  0  0  0  0
    8.1886   13.7716   25.4222 H   0  0  0  0  0  0  0  0  0  0  0  0
   10.5798   10.3626   22.1773 H   0  0  0  0  0  0  0  0  0  0  0  0
   14.3591   12.7191   21.0657 H   0  0  0  0  0  0  0  0  0  0  0  0
   13.1936   11.6542   21.8890 H   0  0  0  0  0  0  0  0  0  0  0  0
   12.8678   13.5825   23.4027 H   0  0  0  0  0  0  0  0  0  0  0  0
   13.5217   14.7384   22.2202 H   0  0  0  0  0  0  0  0  0  0  0  0
   12.6192   13.7156   19.6197 H   0  0  0  0  0  0  0  0  0  0  0  0
   11.6929   12.2506   20.0164 H   0  0  0  0  0  0  0  0  0  0  0  0
    5.5046    8.7278   24.1583 H   0  0  0  0  0  0  0  0  0  0  0  0
    5.4376    7.0148   23.7231 H   0  0  0  0  0  0  0  0  0  0  0  0
    5.9110    8.2190   22.5130 H   0  0  0  0  0  0  0  0  0  0  0  0
    7.1987    8.0583   26.1113 H   0  0  0  0  0  0  0  0  0  0  0  0
    8.6473    7.1352   25.6780 H   0  0  0  0  0  0  0  0  0  0  0  0
    7.0551    6.3683   25.6077 H   0  0  0  0  0  0  0  0  0  0  0  0
    9.8819   15.0814   21.0906 H   0  0  0  0  0  0  0  0  0  0  0  0
   11.4238   15.5725   20.3653 H   0  0  0  0  0  0  0  0  0  0  0  0
    7.8739    6.9675   23.3389 H   0  0  0  0  0  0  0  0  0  0  0  0
   10.1949   17.8729   23.1254 H   0  0  0  0  0  0  0  0  0  0  0  0
    9.4071   17.1269   21.7479 H   0  0  0  0  0  0  0  0  0  0  0  0
   10.1995   12.2031   21.7704 H   0  0  0  0  0  0  0  0  0  0  0  0
  1  2  2  0  0  0  0
  1  3  1  0  0  0  0
  2  4  1  0  0  0  0
  3  5  2  0  0  0  0
  4  9  2  0  0  0  0
  5  9  1  0  0  0  0
  6 10  1  0  0  0  0
  6 11  2  0  0  0  0
  7  8  1  0  0  0  0
  7 23  2  0  0  0  0
  8 10  2  0  0  0  0
  8 12  1  0  0  0  0
  9 11  1  0  0  0  0
 10 13  1  0  0  0  0
 11 24  1  0  0  0  0
 12 24  2  0  0  0  0
 12 25  1  0  0  0  0
 13 27  1  0  0  0  0
 13 28  2  0  0  0  0
 14 21  1  0  0  0  0
 14 26  1  0  0  0  0
 14 29  2  0  0  0  0
 15 16  1  0  0  0  0
 15 17  1  0  0  0  0
 16 18  1  0  0  0  0
 17 18  1  0  0  0  0
 18 21  1  0  0  0  0
 18 27  1  0  0  0  0
 19 22  1  0  0  0  0
 20 22  1  0  0  0  0
 22 25  1  0  0  0  0
 23 25  1  0  0  0  0
  1 30  1  0  0  0  0
  2 31  1  0  0  0  0
  3 32  1  0  0  0  0
  4 33  1  0  0  0  0
  5 34  1  0  0  0  0
  6 35  1  0  0  0  0
  7 36  1  0  0  0  0
 15 37  1  0  0  0  0
 15 38  1  0  0  0  0
 16 39  1  0  0  0  0
 16 40  1  0  0  0  0
 17 41  1  0  0  0  0
 17 42  1  0  0  0  0
 19 43  1  0  0  0  0
 19 44  1  0  0  0  0
 19 45  1  0  0  0  0
 20 46  1  0  0  0  0
 20 47  1  0  0  0  0
 20 48  1  0  0  0  0
 21 49  1  0  0  0  0
 21 50  1  0  0  0  0
 22 51  1  0  0  0  0
 26 52  1  0  0  0  0
 26 53  1  0  0  0  0
 27 54  1  0  0  0  0
M  END
> <Catalog ID>
Z1382640459

> <PlateID>
1041831-R-25

> <Well>
H05

> <MW (desalted)>
391.466

> <ClogP>
2.989

> <HBD>
2

> <TPSA>
102.900

> <RotBonds>
6

> <ROCS_ShapeQuery>
A71EV2A-x0451_0A_A71EV2A-x0310_0A_A71EV2A-x0416_0A_peptide

> <ROCS_TanimotoCombo>
0.583 

> <ROCS_ShapeTanimoto>
0.399 

> <ROCS_ColorTanimoto>
0.183 

> <ROCS_RefTversky>
0.352 

> <ROCS_RefColorTversky>
0.216 

> <ROCS_RefTverskyCombo>
0.568 

> <ROCS_FitTversky>
1.504 

> <ROCS_FitColorTversky>
0.549 

> <ROCS_FitTverskyCombo>
2.053 

> <ROCS_ColorScore>
-6.625

> <ROCS_Overlap>
2452.707

> <ROCS_Rank>
5                   

$$$$
untitled-dbase-1032_3621
  -OEChem-11132311063D

 48 51  0     0  0  0  0  0  0999 V2000
   12.4881   16.0773   20.2898 C   0  0  0  0  0  0  0  0  0  0  0  0
   13.6585   16.3732   20.9884 C   0  0  0  0  0  0  0  0  0  0  0  0
   10.4811    6.5754   21.6516 C   0  0  0  0  0  0  0  0  0  0  0  0
   11.6508   15.0538   20.7335 C   0  0  0  0  0  0  0  0  0  0  0  0
   13.9917   15.6454   22.1308 C   0  0  0  0  0  0  0  0  0  0  0  0
   10.8098    7.8232   22.2329 C   0  0  0  0  0  0  0  0  0  0  0  0
   10.0421   10.7692   23.0696 C   0  0  0  0  0  0  0  0  0  0  0  0
    7.7681   12.8151   25.2903 C   0  0  0  0  0  0  0  0  0  0  0  0
    9.1113    6.4709   21.7203 C   0  0  0  0  0  0  0  0  0  0  0  0
    8.5141   11.9249   24.4925 C   0  0  0  0  0  0  0  0  0  0  0  0
    9.6697   11.9555   23.7020 C   0  0  0  0  0  0  0  0  0  0  0  0
   11.9839   14.3260   21.8759 C   0  0  0  0  0  0  0  0  0  0  0  0
   13.1544   14.6218   22.5745 C   0  0  0  0  0  0  0  0  0  0  0  0
    9.2593    9.6343   23.2535 C   0  0  0  0  0  0  0  0  0  0  0  0
    9.6174    8.3925   22.6152 C   0  0  0  0  0  0  0  0  0  0  0  0
    7.8259   10.7257   24.5907 C   0  0  0  0  0  0  0  0  0  0  0  0
   10.4509   13.1676   23.5417 C   0  0  0  0  0  0  0  0  0  0  0  0
    4.3574   10.4265   25.3081 C   0  0  0  0  0  0  0  0  0  0  0  0
    5.7522    9.7909   27.3222 C   0  0  0  0  0  0  0  0  0  0  0  0
   14.3003   12.7583   23.5073 C   0  0  0  0  0  0  0  0  0  0  0  0
    5.7457   10.0253   25.8104 C   0  0  0  0  0  0  0  0  0  0  0  0
    6.6988   12.2386   25.8489 N   0  0  0  0  0  0  0  0  0  0  0  0
    8.1356    9.5550   24.0067 N   0  0  0  0  0  0  0  0  0  0  0  0
    6.7602   10.9697   25.4058 N   0  0  0  0  0  0  0  0  0  0  0  0
   11.1231   13.2882   22.3139 N   0  0  0  0  0  0  0  0  0  0  0  0
   10.5398   14.0134   24.4450 O   0  0  0  0  0  0  0  0  0  0  0  0
    8.5772    7.5746   22.3062 O   0  0  0  0  0  0  0  0  0  0  0  0
   13.4986   13.9227   23.6930 O   0  0  0  0  0  0  0  0  0  0  0  0
   12.2287   16.6445   19.4006 H   0  0  0  0  0  0  0  0  0  0  0  0
   14.3101   17.1706   20.6433 H   0  0  0  0  0  0  0  0  0  0  0  0
   11.1581    5.8438   21.2349 H   0  0  0  0  0  0  0  0  0  0  0  0
   10.7412   14.8326   20.1806 H   0  0  0  0  0  0  0  0  0  0  0  0
   14.9050   15.8814   22.6703 H   0  0  0  0  0  0  0  0  0  0  0  0
   11.7955    8.2499   22.3554 H   0  0  0  0  0  0  0  0  0  0  0  0
   10.9307   10.7382   22.4444 H   0  0  0  0  0  0  0  0  0  0  0  0
    7.9557   13.8609   25.4888 H   0  0  0  0  0  0  0  0  0  0  0  0
    8.4027    5.7157   21.4131 H   0  0  0  0  0  0  0  0  0  0  0  0
    4.0256   11.3769   25.7394 H   0  0  0  0  0  0  0  0  0  0  0  0
    3.6173    9.6641   25.5737 H   0  0  0  0  0  0  0  0  0  0  0  0
    4.3531   10.5352   24.2178 H   0  0  0  0  0  0  0  0  0  0  0  0
    5.5049   10.7121   27.8612 H   0  0  0  0  0  0  0  0  0  0  0  0
    6.7418    9.4606   27.6557 H   0  0  0  0  0  0  0  0  0  0  0  0
    5.0278    9.0255   27.6202 H   0  0  0  0  0  0  0  0  0  0  0  0
   14.5025   12.2959   24.4765 H   0  0  0  0  0  0  0  0  0  0  0  0
   15.2390   13.0349   23.0207 H   0  0  0  0  0  0  0  0  0  0  0  0
   13.7588   12.0511   22.8746 H   0  0  0  0  0  0  0  0  0  0  0  0
    5.9995    9.0700   25.3332 H   0  0  0  0  0  0  0  0  0  0  0  0
   10.9722   12.5311   21.6519 H   0  0  0  0  0  0  0  0  0  0  0  0
  1  2  2  0  0  0  0
  1  4  1  0  0  0  0
  2  5  1  0  0  0  0
  3  6  1  0  0  0  0
  3  9  2  0  0  0  0
  4 12  2  0  0  0  0
  5 13  2  0  0  0  0
  6 15  2  0  0  0  0
  7 11  1  0  0  0  0
  7 14  2  0  0  0  0
  8 10  1  0  0  0  0
  8 22  2  0  0  0  0
  9 27  1  0  0  0  0
 10 11  2  0  0  0  0
 10 16  1  0  0  0  0
 11 17  1  0  0  0  0
 12 13  1  0  0  0  0
 12 25  1  0  0  0  0
 13 28  1  0  0  0  0
 14 15  1  0  0  0  0
 14 23  1  0  0  0  0
 15 27  1  0  0  0  0
 16 23  2  0  0  0  0
 16 24  1  0  0  0  0
 17 25  1  0  0  0  0
 17 26  2  0  0  0  0
 18 21  1  0  0  0  0
 19 21  1  0  0  0  0
 20 28  1  0  0  0  0
 21 24  1  0  0  0  0
 22 24  1  0  0  0  0
  1 29  1  0  0  0  0
  2 30  1  0  0  0  0
  3 31  1  0  0  0  0
  4 32  1  0  0  0  0
  5 33  1  0  0  0  0
  6 34  1  0  0  0  0
  7 35  1  0  0  0  0
  8 36  1  0  0  0  0
  9 37  1  0  0  0  0
 18 38  1  0  0  0  0
 18 39  1  0  0  0  0
 18 40  1  0  0  0  0
 19 41  1  0  0  0  0
 19 42  1  0  0  0  0
 19 43  1  0  0  0  0
 20 44  1  0  0  0  0
 20 45  1  0  0  0  0
 20 46  1  0  0  0  0
 21 47  1  0  0  0  0
 25 48  1  0  0  0  0
M  END
> <Catalog ID>
Z216402546

> <PlateID>
1041831-R-13

> <Well>
H03

> <MW (desalted)>
376.409

> <ClogP>
3.417

> <HBD>
1

> <TPSA>
82.180

> <RotBonds>
5

> <ROCS_ShapeQuery>
A71EV2A-x0451_0A_A71EV2A-x0310_0A_A71EV2A-x0416_0A_peptide

> <ROCS_TanimotoCombo>
0.581 

> <ROCS_ShapeTanimoto>
0.378 

> <ROCS_ColorTanimoto>
0.203 

> <ROCS_RefTversky>
0.338 

> <ROCS_RefColorTversky>
0.235 

> <ROCS_RefTverskyCombo>
0.573 

> <ROCS_FitTversky>
1.461 

> <ROCS_FitColorTversky>
0.598 

> <ROCS_FitTverskyCombo>
2.058 

> <ROCS_ColorScore>
-7.204

> <ROCS_Overlap>
2353.264

> <ROCS_Rank>
6                   

$$$$
untitled-dbase-1685_432
  -OEChem-11132311063D

 45 48  0     0  0  0  0  0  0999 V2000
   10.8911    6.3105   22.5097 C   0  0  0  0  0  0  0  0  0  0  0  0
   12.2468   16.6787   21.6605 C   0  0  0  0  0  0  0  0  0  0  0  0
   12.9497   16.4797   20.4723 C   0  0  0  0  0  0  0  0  0  0  0  0
   11.0232    7.7168   22.6000 C   0  0  0  0  0  0  0  0  0  0  0  0
   10.1614   10.6058   23.3471 C   0  0  0  0  0  0  0  0  0  0  0  0
   12.1706   14.1941   20.3942 C   0  0  0  0  0  0  0  0  0  0  0  0
    9.6766    6.0037   23.0779 C   0  0  0  0  0  0  0  0  0  0  0  0
    8.4126   11.8804   24.3531 C   0  0  0  0  0  0  0  0  0  0  0  0
    9.6663   11.8526   23.7297 C   0  0  0  0  0  0  0  0  0  0  0  0
   11.4677   14.3931   21.5825 C   0  0  0  0  0  0  0  0  0  0  0  0
   11.5059   15.6354   22.2157 C   0  0  0  0  0  0  0  0  0  0  0  0
   12.9116   15.2374   19.8391 C   0  0  0  0  0  0  0  0  0  0  0  0
    9.3969    9.4717   23.6003 C   0  0  0  0  0  0  0  0  0  0  0  0
    9.8799    8.1691   23.2166 C   0  0  0  0  0  0  0  0  0  0  0  0
    7.5339   12.8400   24.8939 C   0  0  0  0  0  0  0  0  0  0  0  0
    7.7558   10.6750   24.5452 C   0  0  0  0  0  0  0  0  0  0  0  0
   10.4291   13.0619   23.4844 C   0  0  0  0  0  0  0  0  0  0  0  0
    7.7168   14.3007   24.9634 C   0  0  0  0  0  0  0  0  0  0  0  0
    5.5474   10.0576   25.5685 C   0  0  0  0  0  0  0  0  0  0  0  0
   10.9236   17.1519   23.9526 C   0  0  0  0  0  0  0  0  0  0  0  0
    8.1816    9.4476   24.1991 N   0  0  0  0  0  0  0  0  0  0  0  0
    6.4155   12.2985   25.3877 N   0  0  0  0  0  0  0  0  0  0  0  0
    6.5789   10.9824   25.1616 N   0  0  0  0  0  0  0  0  0  0  0  0
   10.7190   13.3233   22.1346 N   0  0  0  0  0  0  0  0  0  0  0  0
   10.8223   13.7874   24.4110 O   0  0  0  0  0  0  0  0  0  0  0  0
    9.0538    7.1311   23.5112 O   0  0  0  0  0  0  0  0  0  0  0  0
   10.8262   15.8508   23.3775 O   0  0  0  0  0  0  0  0  0  0  0  0
   13.7802   14.9923   18.3737 Cl  0  0  0  0  0  0  0  0  0  0  0  0
   11.5934    5.6086   22.0839 H   0  0  0  0  0  0  0  0  0  0  0  0
   12.2808   17.6489   22.1487 H   0  0  0  0  0  0  0  0  0  0  0  0
   13.5231   17.3017   20.0515 H   0  0  0  0  0  0  0  0  0  0  0  0
   11.8513    8.3206   22.2563 H   0  0  0  0  0  0  0  0  0  0  0  0
   11.1295   10.5287   22.8585 H   0  0  0  0  0  0  0  0  0  0  0  0
   12.1396   13.2241   19.9022 H   0  0  0  0  0  0  0  0  0  0  0  0
    9.1397    5.0808   23.2419 H   0  0  0  0  0  0  0  0  0  0  0  0
    7.3120   14.7973   24.0654 H   0  0  0  0  0  0  0  0  0  0  0  0
    7.2150   14.7416   25.8427 H   0  0  0  0  0  0  0  0  0  0  0  0
    8.7811   14.5831   25.0492 H   0  0  0  0  0  0  0  0  0  0  0  0
    5.7651    9.7381   26.5911 H   0  0  0  0  0  0  0  0  0  0  0  0
    4.5742   10.5543   25.5222 H   0  0  0  0  0  0  0  0  0  0  0  0
    5.5439    9.1992   24.8911 H   0  0  0  0  0  0  0  0  0  0  0  0
   10.3363   17.1889   24.8734 H   0  0  0  0  0  0  0  0  0  0  0  0
   10.5529   17.8943   23.2414 H   0  0  0  0  0  0  0  0  0  0  0  0
   11.9709   17.3615   24.1824 H   0  0  0  0  0  0  0  0  0  0  0  0
   10.3419   12.6569   21.4653 H   0  0  0  0  0  0  0  0  0  0  0  0
  1  4  1  0  0  0  0
  1  7  2  0  0  0  0
  2  3  1  0  0  0  0
  2 11  2  0  0  0  0
  3 12  2  0  0  0  0
  4 14  2  0  0  0  0
  5  9  1  0  0  0  0
  5 13  2  0  0  0  0
  6 10  2  0  0  0  0
  6 12  1  0  0  0  0
  7 26  1  0  0  0  0
  8  9  2  0  0  0  0
  8 15  1  0  0  0  0
  8 16  1  0  0  0  0
  9 17  1  0  0  0  0
 10 11  1  0  0  0  0
 10 24  1  0  0  0  0
 11 27  1  0  0  0  0
 12 28  1  0  0  0  0
 13 14  1  0  0  0  0
 13 21  1  0  0  0  0
 14 26  1  0  0  0  0
 15 18  1  0  0  0  0
 15 22  2  0  0  0  0
 16 21  2  0  0  0  0
 16 23  1  0  0  0  0
 17 24  1  0  0  0  0
 17 25  2  0  0  0  0
 19 23  1  0  0  0  0
 20 27  1  0  0  0  0
 22 23  1  0  0  0  0
  1 29  1  0  0  0  0
  2 30  1  0  0  0  0
  3 31  1  0  0  0  0
  4 32  1  0  0  0  0
  5 33  1  0  0  0  0
  6 34  1  0  0  0  0
  7 35  1  0  0  0  0
 18 36  1  0  0  0  0
 18 37  1  0  0  0  0
 18 38  1  0  0  0  0
 19 39  1  0  0  0  0
 19 40  1  0  0  0  0
 19 41  1  0  0  0  0
 20 42  1  0  0  0  0
 20 43  1  0  0  0  0
 20 44  1  0  0  0  0
 24 45  1  0  0  0  0
M  END
> <Catalog ID>
Z240155260

> <PlateID>
1041831-R-22

> <Well>
A06

> <MW (desalted)>
396.827

> <ClogP>
3.634

> <HBD>
1

> <TPSA>
82.180

> <RotBonds>
4

> <ROCS_ShapeQuery>
A71EV2A-x0451_0A_A71EV2A-x0310_0A_A71EV2A-x0416_0A_peptide

> <ROCS_TanimotoCombo>
0.580 

> <ROCS_ShapeTanimoto>
0.385 

> <ROCS_ColorTanimoto>
0.195 

> <ROCS_RefTversky>
0.342 

> <ROCS_RefColorTversky>
0.223 

> <ROCS_RefTverskyCombo>
0.564 

> <ROCS_FitTversky>
1.480 

> <ROCS_FitColorTversky>
0.614 

> <ROCS_FitTverskyCombo>
2.094 

> <ROCS_ColorScore>
-6.814

> <ROCS_Overlap>
2380.051

> <ROCS_Rank>
7                   

$$$$
untitled-dbase-438_959
  -OEChem-11132311063D

 47 50  0     1  0  0  0  0  0999 V2000
   13.6228   16.0567   20.7715 C   0  0  0  0  0  0  0  0  0  0  0  0
   11.7690   14.8985   19.7424 C   0  0  0  0  0  0  0  0  0  0  0  0
   14.1343   16.3594   19.5097 C   0  0  0  0  0  0  0  0  0  0  0  0
   12.2805   15.2013   18.4805 C   0  0  0  0  0  0  0  0  0  0  0  0
    5.8241   12.3054   26.9027 C   0  0  0  0  0  0  0  0  0  0  0  0
    4.8188   13.2836   26.7838 C   0  0  0  0  0  0  0  0  0  0  0  0
   12.4402   15.3262   20.8879 C   0  0  0  0  0  0  0  0  0  0  0  0
   13.4631   15.9317   18.3641 C   0  0  0  0  0  0  0  0  0  0  0  0
    6.9348   12.8843   26.3390 C   0  0  0  0  0  0  0  0  0  0  0  0
    8.2853   12.3223   26.1842 C   0  0  0  0  0  0  0  0  0  0  0  0
   10.5462   13.2385   23.3751 C   0  0  0  0  0  0  0  0  0  0  0  0
    7.8363    9.8842   23.7204 C   0  0  0  0  0  0  0  0  0  0  0  0
    9.3296    9.6887   24.0880 C   0  0  0  0  0  0  0  0  0  0  0  0
    8.3356   12.1594   22.8095 C   0  0  0  0  0  0  0  0  0  0  0  0
    9.8354   11.9403   23.1437 C   0  0  2  0  0  0  0  0  0  0  0  0
    7.6255   11.3923   23.9412 C   0  0  2  0  0  0  0  0  0  0  0  0
    9.7765   11.1151   24.4489 C   0  0  1  0  0  0  0  0  0  0  0  0
    7.3587   15.1230   25.2799 C   0  0  0  0  0  0  0  0  0  0  0  0
   11.8887   15.0007   22.2459 C   0  0  0  0  0  0  0  0  0  0  0  0
    5.2524   14.3993   26.1913 N   0  0  0  0  0  0  0  0  0  0  0  0
    6.5425   14.1258   25.9329 N   0  0  0  0  0  0  0  0  0  0  0  0
    8.5455   11.6269   25.0301 N   0  0  0  0  0  0  0  0  0  0  0  0
   11.1517   13.7574   22.2465 N   0  0  0  0  0  0  0  0  0  0  0  0
    9.0887   12.5065   27.0953 O   0  0  0  0  0  0  0  0  0  0  0  0
   10.5456   13.7365   24.4948 O   0  0  0  0  0  0  0  0  0  0  0  0
   13.9527   16.2247   17.1522 F   0  0  0  0  0  0  0  0  0  0  0  0
   14.1533   16.3935   21.6583 H   0  0  0  0  0  0  0  0  0  0  0  0
   10.8468   14.3291   19.8233 H   0  0  0  0  0  0  0  0  0  0  0  0
   15.0545   16.9286   19.4189 H   0  0  0  0  0  0  0  0  0  0  0  0
   11.7584   14.8681   17.5884 H   0  0  0  0  0  0  0  0  0  0  0  0
    5.7481   11.3196   27.3385 H   0  0  0  0  0  0  0  0  0  0  0  0
    3.7883   13.2304   27.1046 H   0  0  0  0  0  0  0  0  0  0  0  0
    7.6265    9.5717   22.6927 H   0  0  0  0  0  0  0  0  0  0  0  0
    7.2070    9.2963   24.3981 H   0  0  0  0  0  0  0  0  0  0  0  0
    9.4157    9.0203   24.9523 H   0  0  0  0  0  0  0  0  0  0  0  0
    9.9001    9.2591   23.2587 H   0  0  0  0  0  0  0  0  0  0  0  0
    8.0659   13.2217   22.8312 H   0  0  0  0  0  0  0  0  0  0  0  0
    8.0833   11.7595   21.8218 H   0  0  0  0  0  0  0  0  0  0  0  0
   10.3535   11.4090   22.3393 H   0  0  0  0  0  0  0  0  0  0  0  0
    6.5929   11.6933   24.1277 H   0  0  0  0  0  0  0  0  0  0  0  0
   10.6585   11.1767   25.0891 H   0  0  0  0  0  0  0  0  0  0  0  0
    7.2816   14.9681   24.2006 H   0  0  0  0  0  0  0  0  0  0  0  0
    7.0003   16.1204   25.5496 H   0  0  0  0  0  0  0  0  0  0  0  0
    8.3956   15.0138   25.6098 H   0  0  0  0  0  0  0  0  0  0  0  0
   12.6970   14.9140   22.9802 H   0  0  0  0  0  0  0  0  0  0  0  0
   11.2147   15.7896   22.5957 H   0  0  0  0  0  0  0  0  0  0  0  0
   11.0751   13.2403   21.3758 H   0  0  0  0  0  0  0  0  0  0  0  0
  1  3  1  0  0  0  0
  1  7  2  0  0  0  0
  2  4  2  0  0  0  0
  2  7  1  0  0  0  0
  3  8  2  0  0  0  0
  4  8  1  0  0  0  0
  5  6  1  0  0  0  0
  5  9  2  0  0  0  0
  6 20  2  0  0  0  0
  7 19  1  0  0  0  0
  8 26  1  0  0  0  0
  9 10  1  0  0  0  0
  9 21  1  0  0  0  0
 10 22  1  0  0  0  0
 10 24  2  0  0  0  0
 11 15  1  0  0  0  0
 11 23  1  0  0  0  0
 11 25  2  0  0  0  0
 12 13  1  0  0  0  0
 12 16  1  0  0  0  0
 13 17  1  0  0  0  0
 14 15  1  0  0  0  0
 14 16  1  0  0  0  0
 15 17  1  0  0  0  0
 16 22  1  0  0  0  0
 17 22  1  0  0  0  0
 18 21  1  0  0  0  0
 19 23  1  0  0  0  0
 20 21  1  0  0  0  0
  1 27  1  0  0  0  0
  2 28  1  0  0  0  0
  3 29  1  0  0  0  0
  4 30  1  0  0  0  0
  5 31  1  0  0  0  0
  6 32  1  0  0  0  0
 12 33  1  0  0  0  0
 12 34  1  0  0  0  0
 13 35  1  0  0  0  0
 13 36  1  0  0  0  0
 14 37  1  0  0  0  0
 14 38  1  0  0  0  0
 15 39  1  0  0  0  0
 16 40  1  0  0  0  0
 17 41  1  0  0  0  0
 18 42  1  0  0  0  0
 18 43  1  0  0  0  0
 18 44  1  0  0  0  0
 19 45  1  0  0  0  0
 19 46  1  0  0  0  0
 23 47  1  0  0  0  0
M  END
> <Catalog ID>
Z2178439234

> <PlateID>
1041831-R-06

> <Well>
D09

> <MW (desalted)>
356.394

> <ClogP>
0.895

> <HBD>
1

> <TPSA>
67.230

> <RotBonds>
4

> <ROCS_ShapeQuery>
A71EV2A-x0451_0A_A71EV2A-x0310_0A_A71EV2A-x0416_0A_peptide

> <ROCS_TanimotoCombo>
0.578 

> <ROCS_ShapeTanimoto>
0.336 

> <ROCS_ColorTanimoto>
0.243 

> <ROCS_RefTversky>
0.306 

> <ROCS_RefColorTversky>
0.280 

> <ROCS_RefTverskyCombo>
0.586 

> <ROCS_FitTversky>
1.410 

> <ROCS_FitColorTversky>
0.645 

> <ROCS_FitTverskyCombo>
2.056 

> <ROCS_ColorScore>
-8.612

> <ROCS_Overlap>
2126.966

> <ROCS_Rank>
8                   

$$$$
untitled-dbase-1379_2952
  -OEChem-11132311063D

 52 55  0     0  0  0  0  0  0999 V2000
   10.0925   10.8160   23.0595 C   0  0  0  0  0  0  0  0  0  0  0  0
   14.9587   15.5338   24.1879 C   0  0  0  0  0  0  0  0  0  0  0  0
    8.5266   11.9333   24.4718 C   0  0  0  0  0  0  0  0  0  0  0  0
    9.6816   11.9946   23.6823 C   0  0  0  0  0  0  0  0  0  0  0  0
    9.3460    9.6581   23.2513 C   0  0  0  0  0  0  0  0  0  0  0  0
   14.5803   14.2364   24.4630 C   0  0  0  0  0  0  0  0  0  0  0  0
    7.7515   12.8054   25.2618 C   0  0  0  0  0  0  0  0  0  0  0  0
    7.8768   10.7136   24.5785 C   0  0  0  0  0  0  0  0  0  0  0  0
   13.0793   14.7001   22.9327 C   0  0  0  0  0  0  0  0  0  0  0  0
   10.4302   13.2257   23.5107 C   0  0  0  0  0  0  0  0  0  0  0  0
    8.9631    7.1688   22.6763 C   0  0  0  0  0  0  0  0  0  0  0  0
   10.2630    7.2475   23.4140 C   0  0  0  0  0  0  0  0  0  0  0  0
    9.8083    8.4091   22.5728 C   0  0  0  0  0  0  0  0  0  0  0  0
   15.2234   13.3405   25.4446 C   0  0  0  0  0  0  0  0  0  0  0  0
    7.9756   14.2395   25.5174 C   0  0  0  0  0  0  0  0  0  0  0  0
    6.5081    8.8069   26.5666 C   0  0  0  0  0  0  0  0  0  0  0  0
    5.0937    9.3921   24.5575 C   0  0  0  0  0  0  0  0  0  0  0  0
    4.7227   10.5263   26.7359 C   0  0  0  0  0  0  0  0  0  0  0  0
   11.9213   14.5519   21.9887 C   0  0  0  0  0  0  0  0  0  0  0  0
    5.8177    9.9568   25.8001 C   0  0  0  0  0  0  0  0  0  0  0  0
    8.2245    9.5488   24.0040 N   0  0  0  0  0  0  0  0  0  0  0  0
   13.5026   13.7568   23.7445 N   0  0  0  0  0  0  0  0  0  0  0  0
    6.7003   12.1993   25.8237 N   0  0  0  0  0  0  0  0  0  0  0  0
    6.8028   10.9297   25.3905 N   0  0  0  0  0  0  0  0  0  0  0  0
   11.1149   13.3935   22.2997 N   0  0  0  0  0  0  0  0  0  0  0  0
   10.4689   14.0768   24.4193 O   0  0  0  0  0  0  0  0  0  0  0  0
   13.9315   16.1889   22.9807 S   0  0  0  0  0  0  0  0  0  0  0  0
   10.9819   10.8051   22.4352 H   0  0  0  0  0  0  0  0  0  0  0  0
   15.7626   16.1119   24.6213 H   0  0  0  0  0  0  0  0  0  0  0  0
    8.9157    6.5261   21.8051 H   0  0  0  0  0  0  0  0  0  0  0  0
    8.0509    7.1948   23.2601 H   0  0  0  0  0  0  0  0  0  0  0  0
   10.2244    7.3284   24.4939 H   0  0  0  0  0  0  0  0  0  0  0  0
   11.0917    6.6572   23.0415 H   0  0  0  0  0  0  0  0  0  0  0  0
   10.3299    8.5637   21.6387 H   0  0  0  0  0  0  0  0  0  0  0  0
   14.7574   13.4408   26.4384 H   0  0  0  0  0  0  0  0  0  0  0  0
   15.1521   12.2808   25.1461 H   0  0  0  0  0  0  0  0  0  0  0  0
   16.3002   13.5541   25.5559 H   0  0  0  0  0  0  0  0  0  0  0  0
    7.4645   14.8640   24.7654 H   0  0  0  0  0  0  0  0  0  0  0  0
    7.6076   14.5473   26.5120 H   0  0  0  0  0  0  0  0  0  0  0  0
    9.0478   14.5031   25.4965 H   0  0  0  0  0  0  0  0  0  0  0  0
    7.0302    9.1812   27.4547 H   0  0  0  0  0  0  0  0  0  0  0  0
    5.7948    8.0505   26.9110 H   0  0  0  0  0  0  0  0  0  0  0  0
    7.2451    8.2998   25.9331 H   0  0  0  0  0  0  0  0  0  0  0  0
    4.5879   10.1737   23.9808 H   0  0  0  0  0  0  0  0  0  0  0  0
    5.7995    8.9005   23.8780 H   0  0  0  0  0  0  0  0  0  0  0  0
    4.3365    8.6538   24.8461 H   0  0  0  0  0  0  0  0  0  0  0  0
    4.1855   11.3532   26.2558 H   0  0  0  0  0  0  0  0  0  0  0  0
    3.9756    9.7665   26.9930 H   0  0  0  0  0  0  0  0  0  0  0  0
    5.1504   10.9191   27.6656 H   0  0  0  0  0  0  0  0  0  0  0  0
   11.2738   15.4346   22.0304 H   0  0  0  0  0  0  0  0  0  0  0  0
   12.2675   14.4510   20.9548 H   0  0  0  0  0  0  0  0  0  0  0  0
   11.1029   12.6428   21.6171 H   0  0  0  0  0  0  0  0  0  0  0  0
  1  4  1  0  0  0  0
  1  5  2  0  0  0  0
  2  6  2  0  0  0  0
  2 27  1  0  0  0  0
  3  4  2  0  0  0  0
  3  7  1  0  0  0  0
  3  8  1  0  0  0  0
  4 10  1  0  0  0  0
  5 13  1  0  0  0  0
  5 21  1  0  0  0  0
  6 14  1  0  0  0  0
  6 22  1  0  0  0  0
  7 15  1  0  0  0  0
  7 23  2  0  0  0  0
  8 21  2  0  0  0  0
  8 24  1  0  0  0  0
  9 19  1  0  0  0  0
  9 22  2  0  0  0  0
  9 27  1  0  0  0  0
 10 25  1  0  0  0  0
 10 26  2  0  0  0  0
 11 12  1  0  0  0  0
 11 13  1  0  0  0  0
 12 13  1  0  0  0  0
 16 20  1  0  0  0  0
 17 20  1  0  0  0  0
 18 20  1  0  0  0  0
 19 25  1  0  0  0  0
 20 24  1  0  0  0  0
 23 24  1  0  0  0  0
  1 28  1  0  0  0  0
  2 29  1  0  0  0  0
 11 30  1  0  0  0  0
 11 31  1  0  0  0  0
 12 32  1  0  0  0  0
 12 33  1  0  0  0  0
 13 34  1  0  0  0  0
 14 35  1  0  0  0  0
 14 36  1  0  0  0  0
 14 37  1  0  0  0  0
 15 38  1  0  0  0  0
 15 39  1  0  0  0  0
 15 40  1  0  0  0  0
 16 41  1  0  0  0  0
 16 42  1  0  0  0  0
 16 43  1  0  0  0  0
 17 44  1  0  0  0  0
 17 45  1  0  0  0  0
 17 46  1  0  0  0  0
 18 47  1  0  0  0  0
 18 48  1  0  0  0  0
 18 49  1  0  0  0  0
 19 50  1  0  0  0  0
 19 51  1  0  0  0  0
 25 52  1  0  0  0  0
M  END
> <Catalog ID>
Z466627922

> <PlateID>
1041831-R-18

> <Well>
B10

> <MW (desalted)>
383.510

> <ClogP>
3.460

> <HBD>
1

> <TPSA>
72.700

> <RotBonds>
5

> <ROCS_ShapeQuery>
A71EV2A-x0451_0A_A71EV2A-x0310_0A_A71EV2A-x0416_0A_peptide

> <ROCS_TanimotoCombo>
0.578 

> <ROCS_ShapeTanimoto>
0.362 

> <ROCS_ColorTanimoto>
0.216 

> <ROCS_RefTversky>
0.324 

> <ROCS_RefColorTversky>
0.236 

> <ROCS_RefTverskyCombo>
0.560 

> <ROCS_FitTversky>
1.481 

> <ROCS_FitColorTversky>
0.711 

> <ROCS_FitTverskyCombo>
2.192 

> <ROCS_ColorScore>
-7.222

> <ROCS_Overlap>
2256.095

> <ROCS_Rank>
9                   

$$$$
untitled-dbase-3205_9980
  -OEChem-11132311063D

 46 49  0     1  0  0  0  0  0999 V2000
   13.2969   16.6161   19.1299 C   0  0  0  0  0  0  0  0  0  0  0  0
   11.9337   16.3227   19.3724 C   0  0  0  0  0  0  0  0  0  0  0  0
   14.0073   15.9750   20.1179 C   0  0  0  0  0  0  0  0  0  0  0  0
   11.9083   15.5229   20.4913 C   0  0  0  0  0  0  0  0  0  0  0  0
   11.1485   13.4035   23.2463 C   0  0  0  0  0  0  0  0  0  0  0  0
    7.1534    8.0438   22.7092 C   0  0  0  0  0  0  0  0  0  0  0  0
    8.2858    7.4109   23.5211 C   0  0  0  0  0  0  0  0  0  0  0  0
    7.5963    9.4688   22.3848 C   0  0  0  0  0  0  0  0  0  0  0  0
    9.3724    8.4770   23.6510 C   0  0  0  0  0  0  0  0  0  0  0  0
    8.3645   12.6567   25.2132 C   0  0  0  0  0  0  0  0  0  0  0  0
    6.9525   12.4255   24.6846 C   0  0  0  0  0  0  0  0  0  0  0  0
    9.1462   11.4054   24.8341 C   0  0  2  0  0  0  0  0  0  0  0  0
    9.4070   11.1168   23.3315 C   0  0  2  0  0  0  0  0  0  0  0  0
    8.0289   10.3449   24.8256 C   0  0  2  0  0  0  0  0  0  0  0  0
    8.6035    9.7904   23.4849 C   0  0  0  0  0  0  0  0  0  0  0  0
   10.7969   14.8740   21.2645 C   0  0  0  0  0  0  0  0  0  0  0  0
   11.6524   12.0265   23.5959 C   0  0  0  0  0  0  0  0  0  0  0  0
   11.2175   13.6360   21.8802 N   0  0  0  0  0  0  0  0  0  0  0  0
   10.8451   11.0231   22.9146 N   0  0  0  0  0  0  0  0  0  0  0  0
   10.7314   14.2024   24.0807 O   0  0  0  0  0  0  0  0  0  0  0  0
   13.1683   15.3062   20.9518 O   0  0  0  0  0  0  0  0  0  0  0  0
    6.7433   11.0137   24.8034 O   0  0  0  0  0  0  0  0  0  0  0  0
   13.7100   17.2197   18.3348 H   0  0  0  0  0  0  0  0  0  0  0  0
   11.0786   16.6547   18.8011 H   0  0  0  0  0  0  0  0  0  0  0  0
   15.0587   15.9001   20.3538 H   0  0  0  0  0  0  0  0  0  0  0  0
    6.9217    7.4638   21.7980 H   0  0  0  0  0  0  0  0  0  0  0  0
    6.2279    8.0642   23.3158 H   0  0  0  0  0  0  0  0  0  0  0  0
    7.9355    7.0538   24.5104 H   0  0  0  0  0  0  0  0  0  0  0  0
    8.6808    6.5213   22.9872 H   0  0  0  0  0  0  0  0  0  0  0  0
    8.0722    9.4783   21.4010 H   0  0  0  0  0  0  0  0  0  0  0  0
    6.7423   10.1455   22.3600 H   0  0  0  0  0  0  0  0  0  0  0  0
    9.7978    8.4096   24.6603 H   0  0  0  0  0  0  0  0  0  0  0  0
   10.1939    8.3182   22.9496 H   0  0  0  0  0  0  0  0  0  0  0  0
    8.8095   13.5736   24.8166 H   0  0  0  0  0  0  0  0  0  0  0  0
    8.3322   12.7433   26.3060 H   0  0  0  0  0  0  0  0  0  0  0  0
    6.1996   12.9667   25.2627 H   0  0  0  0  0  0  0  0  0  0  0  0
    6.8638   12.6986   23.6290 H   0  0  0  0  0  0  0  0  0  0  0  0
    9.9769   11.1763   25.5168 H   0  0  0  0  0  0  0  0  0  0  0  0
    8.8557   11.8792   22.6504 H   0  0  0  0  0  0  0  0  0  0  0  0
    8.0651    9.6501   25.6696 H   0  0  0  0  0  0  0  0  0  0  0  0
   10.4378   15.5398   22.0568 H   0  0  0  0  0  0  0  0  0  0  0  0
    9.9438   14.6518   20.6148 H   0  0  0  0  0  0  0  0  0  0  0  0
   12.6950   11.9246   23.2807 H   0  0  0  0  0  0  0  0  0  0  0  0
   11.5837   11.8696   24.6764 H   0  0  0  0  0  0  0  0  0  0  0  0
   11.5818   12.8993   21.2830 H   0  0  0  0  0  0  0  0  0  0  0  0
   10.9132   11.1659   21.9070 H   0  0  0  0  0  0  0  0  0  0  0  0
  1  2  1  0  0  0  0
  1  3  2  0  0  0  0
  2  4  2  0  0  0  0
  3 21  1  0  0  0  0
  4 16  1  0  0  0  0
  4 21  1  0  0  0  0
  5 17  1  0  0  0  0
  5 18  1  0  0  0  0
  5 20  2  0  0  0  0
  6  7  1  0  0  0  0
  6  8  1  0  0  0  0
  7  9  1  0  0  0  0
  8 15  1  0  0  0  0
  9 15  1  0  0  0  0
 10 11  1  0  0  0  0
 10 12  1  0  0  0  0
 11 22  1  0  0  0  0
 12 13  1  0  0  0  0
 12 14  1  0  0  0  0
 13 15  1  0  0  0  0
 13 19  1  0  0  0  0
 14 15  1  0  0  0  0
 14 22  1  0  0  0  0
 16 18  1  0  0  0  0
 17 19  1  0  0  0  0
  1 23  1  0  0  0  0
  2 24  1  0  0  0  0
  3 25  1  0  0  0  0
  6 26  1  0  0  0  0
  6 27  1  0  0  0  0
  7 28  1  0  0  0  0
  7 29  1  0  0  0  0
  8 30  1  0  0  0  0
  8 31  1  0  0  0  0
  9 32  1  0  0  0  0
  9 33  1  0  0  0  0
 10 34  1  0  0  0  0
 10 35  1  0  0  0  0
 11 36  1  0  0  0  0
 11 37  1  0  0  0  0
 12 38  1  0  0  0  0
 13 39  1  0  0  0  0
 14 40  1  0  0  0  0
 16 41  1  0  0  0  0
 16 42  1  0  0  0  0
 17 43  1  0  0  0  0
 17 44  1  0  0  0  0
 18 45  1  0  0  0  0
 19 46  1  0  0  0  0
M  END
> <Catalog ID>
Z1597717491

> <PlateID>
1041831-R-41

> <Well>
A06

> <MW (desalted)>
304.384

> <ClogP>
1.782

> <HBD>
2

> <TPSA>
63.500

> <RotBonds>
5

> <ROCS_ShapeQuery>
A71EV2A-x0451_0A_A71EV2A-x0310_0A_A71EV2A-x0416_0A_peptide

> <ROCS_TanimotoCombo>
0.575 

> <ROCS_ShapeTanimoto>
0.351 

> <ROCS_ColorTanimoto>
0.224 

> <ROCS_RefTversky>
0.308 

> <ROCS_RefColorTversky>
0.268 

> <ROCS_RefTverskyCombo>
0.576 

> <ROCS_FitTversky>
1.649 

> <ROCS_FitColorTversky>
0.575 

> <ROCS_FitTverskyCombo>
2.224 

> <ROCS_ColorScore>
-8.259

> <ROCS_Overlap>
2139.935

> <ROCS_Rank>
10                  

$$$$
untitled-dbase-542_121
  -OEChem-11132311063D

 45 48  0     1  0  0  0  0  0999 V2000
   10.1704   10.7264   23.2861 C   0  0  0  0  0  0  0  0  0  0  0  0
    8.3805   11.8907   24.3517 C   0  0  0  0  0  0  0  0  0  0  0  0
    9.6040   11.9413   23.6721 C   0  0  0  0  0  0  0  0  0  0  0  0
    9.5020    9.5454   23.5908 C   0  0  0  0  0  0  0  0  0  0  0  0
    7.4596   12.7947   24.9176 C   0  0  0  0  0  0  0  0  0  0  0  0
    7.8218   10.6451   24.5916 C   0  0  0  0  0  0  0  0  0  0  0  0
   13.9380   15.1516   23.9030 C   0  0  0  0  0  0  0  0  0  0  0  0
   12.2065   15.1531   22.5689 C   0  0  0  0  0  0  0  0  0  0  0  0
   15.0758   14.5694   24.5280 C   0  0  0  0  0  0  0  0  0  0  0  0
   15.4110   13.2970   24.2364 C   0  0  0  0  0  0  0  0  0  0  0  0
   14.6356   12.5006   23.2953 C   0  0  0  0  0  0  0  0  0  0  0  0
   13.5609   13.0494   22.7046 C   0  0  0  0  0  0  0  0  0  0  0  0
   10.2666   13.1976   23.3752 C   0  0  0  0  0  0  0  0  0  0  0  0
   10.1224    8.2507   23.1715 C   0  0  0  0  0  0  0  0  0  0  0  0
    7.5386   14.2659   24.9563 C   0  0  0  0  0  0  0  0  0  0  0  0
   10.1482   15.7840   21.2432 C   0  0  0  0  0  0  0  0  0  0  0  0
    5.7125    9.8897   25.7252 C   0  0  0  0  0  0  0  0  0  0  0  0
   11.1655   14.6930   21.5713 C   0  0  2  0  0  0  0  0  0  0  0  0
    8.3194    9.4452   24.2449 N   0  0  0  0  0  0  0  0  0  0  0  0
    6.4063   12.1836   25.4700 N   0  0  0  0  0  0  0  0  0  0  0  0
   13.3722   16.3374   23.9786 N   0  0  0  0  0  0  0  0  0  0  0  0
   12.2786   16.3370   23.1354 N   0  0  0  0  0  0  0  0  0  0  0  0
    6.6543   10.8786   25.2564 N   0  0  0  0  0  0  0  0  0  0  0  0
   13.2265   14.3616   23.0135 N   0  0  0  0  0  0  0  0  0  0  0  0
   10.4974   13.4946   22.0254 N   0  0  0  0  0  0  0  0  0  0  0  0
   10.6267   13.9577   24.2938 O   0  0  0  0  0  0  0  0  0  0  0  0
   11.1189   10.7043   22.7564 H   0  0  0  0  0  0  0  0  0  0  0  0
   15.6597   15.1548   25.2292 H   0  0  0  0  0  0  0  0  0  0  0  0
   16.2744   12.8309   24.6987 H   0  0  0  0  0  0  0  0  0  0  0  0
   14.9422   11.4816   23.0935 H   0  0  0  0  0  0  0  0  0  0  0  0
   12.9429   12.5107   21.9972 H   0  0  0  0  0  0  0  0  0  0  0  0
   10.7787    7.8725   23.9628 H   0  0  0  0  0  0  0  0  0  0  0  0
    9.3557    7.4962   22.9604 H   0  0  0  0  0  0  0  0  0  0  0  0
   10.7117    8.3745   22.2553 H   0  0  0  0  0  0  0  0  0  0  0  0
    7.0587   14.7152   24.0705 H   0  0  0  0  0  0  0  0  0  0  0  0
    7.0460   14.6856   25.8510 H   0  0  0  0  0  0  0  0  0  0  0  0
    8.5822   14.6257   24.9886 H   0  0  0  0  0  0  0  0  0  0  0  0
    9.6149   16.1096   22.1430 H   0  0  0  0  0  0  0  0  0  0  0  0
   10.6484   16.6577   20.8104 H   0  0  0  0  0  0  0  0  0  0  0  0
    9.4043   15.4449   20.5136 H   0  0  0  0  0  0  0  0  0  0  0  0
    5.9985    9.6066   26.7416 H   0  0  0  0  0  0  0  0  0  0  0  0
    4.7045   10.3136   25.7157 H   0  0  0  0  0  0  0  0  0  0  0  0
    5.7416    9.0203   25.0625 H   0  0  0  0  0  0  0  0  0  0  0  0
   11.6641   14.4103   20.6360 H   0  0  0  0  0  0  0  0  0  0  0  0
   10.2413   12.8129   21.3186 H   0  0  0  0  0  0  0  0  0  0  0  0
  1  3  1  0  0  0  0
  1  4  2  0  0  0  0
  2  3  2  0  0  0  0
  2  5  1  0  0  0  0
  2  6  1  0  0  0  0
  3 13  1  0  0  0  0
  4 14  1  0  0  0  0
  4 19  1  0  0  0  0
  5 15  1  0  0  0  0
  5 20  2  0  0  0  0
  6 19  2  0  0  0  0
  6 23  1  0  0  0  0
  7  9  1  0  0  0  0
  7 21  2  0  0  0  0
  7 24  1  0  0  0  0
  8 18  1  0  0  0  0
  8 22  2  0  0  0  0
  8 24  1  0  0  0  0
  9 10  2  0  0  0  0
 10 11  1  0  0  0  0
 11 12  2  0  0  0  0
 12 24  1  0  0  0  0
 13 25  1  0  0  0  0
 13 26  2  0  0  0  0
 16 18  1  0  0  0  0
 17 23  1  0  0  0  0
 18 25  1  0  0  0  0
 20 23  1  0  0  0  0
 21 22  1  0  0  0  0
  1 27  1  0  0  0  0
  9 28  1  0  0  0  0
 10 29  1  0  0  0  0
 11 30  1  0  0  0  0
 12 31  1  0  0  0  0
 14 32  1  0  0  0  0
 14 33  1  0  0  0  0
 14 34  1  0  0  0  0
 15 35  1  0  0  0  0
 15 36  1  0  0  0  0
 15 37  1  0  0  0  0
 16 38  1  0  0  0  0
 16 39  1  0  0  0  0
 16 40  1  0  0  0  0
 17 41  1  0  0  0  0
 17 42  1  0  0  0  0
 17 43  1  0  0  0  0
 18 44  1  0  0  0  0
 25 45  1  0  0  0  0
M  END
> <Catalog ID>
Z240562502

> <PlateID>
1041831-R-07

> <Well>
G03

> <MW (desalted)>
349.390

> <ClogP>
1.183

> <HBD>
1

> <TPSA>
90.000

> <RotBonds>
3

> <ROCS_ShapeQuery>
A71EV2A-x0451_0A_A71EV2A-x0310_0A_A71EV2A-x0416_0A_peptide

> <ROCS_TanimotoCombo>
0.572 

> <ROCS_ShapeTanimoto>
0.371 

> <ROCS_ColorTanimoto>
0.201 

> <ROCS_RefTversky>
0.330 

> <ROCS_RefColorTversky>
0.229 

> <ROCS_RefTverskyCombo>
0.560 

> <ROCS_FitTversky>
1.503 

> <ROCS_FitColorTversky>
0.616 

> <ROCS_FitTverskyCombo>
2.120 

> <ROCS_ColorScore>
-7.032

> <ROCS_Overlap>
2297.608

> <ROCS_Rank>
11                  

$$$$
untitled-dbase-245_151
  -OEChem-11132311063D

 41 43  0     1  0  0  0  0  0999 V2000
   13.8727   16.6530   18.9908 C   0  0  0  0  0  0  0  0  0  0  0  0
   13.1632   15.5332   18.6102 C   0  0  0  0  0  0  0  0  0  0  0  0
    7.5665   10.6407   24.8429 C   0  0  0  0  0  0  0  0  0  0  0  0
   12.7301   15.4833   20.7596 C   0  0  0  0  0  0  0  0  0  0  0  0
    9.1336   11.3261   23.4820 C   0  0  0  0  0  0  0  0  0  0  0  0
    6.4343   10.8132   25.6870 C   0  0  0  0  0  0  0  0  0  0  0  0
    5.9069   12.0439   25.8415 C   0  0  0  0  0  0  0  0  0  0  0  0
    6.4683   13.2047   25.1644 C   0  0  0  0  0  0  0  0  0  0  0  0
    7.5375   13.0429   24.3672 C   0  0  0  0  0  0  0  0  0  0  0  0
   10.6756   13.2897   23.0981 C   0  0  0  0  0  0  0  0  0  0  0  0
   13.0530   15.0086   17.2346 C   0  0  0  0  0  0  0  0  0  0  0  0
   14.2646   13.6216   22.7267 C   0  0  0  0  0  0  0  0  0  0  0  0
   11.2918   16.1730   22.6934 C   0  0  0  0  0  0  0  0  0  0  0  0
   13.2990   14.7299   23.1412 C   0  0  0  0  0  0  0  0  0  0  0  0
   12.1688   15.0387   22.1181 C   0  0  2  0  0  0  0  0  0  0  0  0
   12.5077   14.8610   19.6232 N   0  0  0  0  0  0  0  0  0  0  0  0
    8.2873    9.5947   24.4991 N   0  0  0  0  0  0  0  0  0  0  0  0
    9.2769   10.0290   23.6394 N   0  0  0  0  0  0  0  0  0  0  0  0
    8.0712   11.7694   24.2163 N   0  0  0  0  0  0  0  0  0  0  0  0
    9.9255   12.1852   22.6848 N   0  0  0  0  0  0  0  0  0  0  0  0
   11.3105   13.8640   22.0022 N   0  0  0  0  0  0  0  0  0  0  0  0
   10.7809   13.7156   24.2458 O   0  0  0  0  0  0  0  0  0  0  0  0
   13.7183   16.8842   20.6831 S   0  0  0  0  0  0  0  0  0  0  0  0
   14.4556   17.3267   18.3786 H   0  0  0  0  0  0  0  0  0  0  0  0
    6.0097    9.9547   26.1947 H   0  0  0  0  0  0  0  0  0  0  0  0
    5.0442   12.2019   26.4797 H   0  0  0  0  0  0  0  0  0  0  0  0
    6.0109   14.1740   25.3206 H   0  0  0  0  0  0  0  0  0  0  0  0
    8.0009   13.8660   23.8374 H   0  0  0  0  0  0  0  0  0  0  0  0
   13.8574   14.2865   17.0195 H   0  0  0  0  0  0  0  0  0  0  0  0
   12.0898   14.4989   17.0624 H   0  0  0  0  0  0  0  0  0  0  0  0
   13.1122   15.8114   16.4800 H   0  0  0  0  0  0  0  0  0  0  0  0
   14.7329   13.8786   21.7706 H   0  0  0  0  0  0  0  0  0  0  0  0
   15.0657   13.4868   23.4587 H   0  0  0  0  0  0  0  0  0  0  0  0
   13.7511   12.6649   22.5944 H   0  0  0  0  0  0  0  0  0  0  0  0
   10.8611   15.9134   23.6668 H   0  0  0  0  0  0  0  0  0  0  0  0
   10.4592   16.4070   22.0187 H   0  0  0  0  0  0  0  0  0  0  0  0
   11.8715   17.0953   22.8239 H   0  0  0  0  0  0  0  0  0  0  0  0
   12.8487   14.4407   24.1005 H   0  0  0  0  0  0  0  0  0  0  0  0
   13.8881   15.6332   23.3438 H   0  0  0  0  0  0  0  0  0  0  0  0
    9.9491   11.9685   21.6914 H   0  0  0  0  0  0  0  0  0  0  0  0
   11.1724   13.4529   21.0919 H   0  0  0  0  0  0  0  0  0  0  0  0
  1  2  2  0  0  0  0
  1 23  1  0  0  0  0
  2 11  1  0  0  0  0
  2 16  1  0  0  0  0
  3  6  1  0  0  0  0
  3 17  2  0  0  0  0
  3 19  1  0  0  0  0
  4 15  1  0  0  0  0
  4 16  2  0  0  0  0
  4 23  1  0  0  0  0
  5 18  2  0  0  0  0
  5 19  1  0  0  0  0
  5 20  1  0  0  0  0
  6  7  2  0  0  0  0
  7  8  1  0  0  0  0
  8  9  2  0  0  0  0
  9 19  1  0  0  0  0
 10 20  1  0  0  0  0
 10 21  1  0  0  0  0
 10 22  2  0  0  0  0
 12 14  1  0  0  0  0
 13 15  1  0  0  0  0
 14 15  1  0  0  0  0
 15 21  1  0  0  0  0
 17 18  1  0  0  0  0
  1 24  1  0  0  0  0
  6 25  1  0  0  0  0
  7 26  1  0  0  0  0
  8 27  1  0  0  0  0
  9 28  1  0  0  0  0
 11 29  1  0  0  0  0
 11 30  1  0  0  0  0
 11 31  1  0  0  0  0
 12 32  1  0  0  0  0
 12 33  1  0  0  0  0
 12 34  1  0  0  0  0
 13 35  1  0  0  0  0
 13 36  1  0  0  0  0
 13 37  1  0  0  0  0
 14 38  1  0  0  0  0
 14 39  1  0  0  0  0
 20 40  1  0  0  0  0
 21 41  1  0  0  0  0
M  END
> <Catalog ID>
Z1277705231

> <PlateID>
1041831-R-04

> <Well>
A06

> <MW (desalted)>
330.408

> <ClogP>
2.472

> <HBD>
2

> <TPSA>
84.210

> <RotBonds>
4

> <ROCS_ShapeQuery>
A71EV2A-x0451_0A_A71EV2A-x0310_0A_A71EV2A-x0416_0A_peptide

> <ROCS_TanimotoCombo>
0.572 

> <ROCS_ShapeTanimoto>
0.357 

> <ROCS_ColorTanimoto>
0.215 

> <ROCS_RefTversky>
0.314 

> <ROCS_RefColorTversky>
0.243 

> <ROCS_RefTverskyCombo>
0.557 

> <ROCS_FitTversky>
1.616 

> <ROCS_FitColorTversky>
0.653 

> <ROCS_FitTverskyCombo>
2.268 

> <ROCS_ColorScore>
-7.438

> <ROCS_Overlap>
2182.662

> <ROCS_Rank>
12                  

$$$$
untitled-dbase-1219_1034
  -OEChem-11132311063D

 55 58  0     1  0  0  0  0  0999 V2000
   12.9068   15.5522   19.8673 C   0  0  0  0  0  0  0  0  0  0  0  0
   10.7361   14.5259   19.7279 C   0  0  0  0  0  0  0  0  0  0  0  0
   10.0478   10.8169   22.9936 C   0  0  0  0  0  0  0  0  0  0  0  0
   12.7971   15.8417   18.5167 C   0  0  0  0  0  0  0  0  0  0  0  0
   10.7235   14.8616   18.3836 C   0  0  0  0  0  0  0  0  0  0  0  0
    8.5438   11.9337   24.4720 C   0  0  0  0  0  0  0  0  0  0  0  0
    9.6776   11.9898   23.6519 C   0  0  0  0  0  0  0  0  0  0  0  0
   11.8523   14.8815   20.4768 C   0  0  0  0  0  0  0  0  0  0  0  0
    9.2843    9.6698   23.1822 C   0  0  0  0  0  0  0  0  0  0  0  0
    7.8080   12.8035   25.3013 C   0  0  0  0  0  0  0  0  0  0  0  0
    7.8733   10.7246   24.5715 C   0  0  0  0  0  0  0  0  0  0  0  0
   10.4452   13.2097   23.4850 C   0  0  0  0  0  0  0  0  0  0  0  0
    8.8368    7.2010   22.5668 C   0  0  0  0  0  0  0  0  0  0  0  0
   10.1579    7.2392   23.2692 C   0  0  0  0  0  0  0  0  0  0  0  0
    9.7031    8.4269   22.4653 C   0  0  0  0  0  0  0  0  0  0  0  0
    8.0673   14.2273   25.5801 C   0  0  0  0  0  0  0  0  0  0  0  0
   13.3516   14.3237   22.4347 C   0  0  0  0  0  0  0  0  0  0  0  0
    6.5227    8.8026   26.5573 C   0  0  0  0  0  0  0  0  0  0  0  0
    5.0652    9.4573   24.6011 C   0  0  0  0  0  0  0  0  0  0  0  0
    4.7769   10.5518   26.8120 C   0  0  0  0  0  0  0  0  0  0  0  0
   11.9195   14.5392   21.9496 C   0  0  2  0  0  0  0  0  0  0  0  0
    5.8342    9.9815   25.8344 C   0  0  0  0  0  0  0  0  0  0  0  0
   11.7288   15.5125   17.7565 N   0  0  0  0  0  0  0  0  0  0  0  0
    8.1820    9.5659   23.9635 N   0  0  0  0  0  0  0  0  0  0  0  0
    6.7611   12.2058   25.8797 N   0  0  0  0  0  0  0  0  0  0  0  0
    6.8266   10.9439   25.4176 N   0  0  0  0  0  0  0  0  0  0  0  0
   11.0993   13.3901   22.2590 N   0  0  0  0  0  0  0  0  0  0  0  0
   10.5256   14.0404   24.4095 O   0  0  0  0  0  0  0  0  0  0  0  0
   13.7917   15.8425   20.4235 H   0  0  0  0  0  0  0  0  0  0  0  0
    9.8978   14.0026   20.1748 H   0  0  0  0  0  0  0  0  0  0  0  0
   10.9193   10.8024   22.3445 H   0  0  0  0  0  0  0  0  0  0  0  0
   13.5928   16.3623   17.9940 H   0  0  0  0  0  0  0  0  0  0  0  0
    9.8760   14.6066   17.7560 H   0  0  0  0  0  0  0  0  0  0  0  0
    8.7528    6.5779   21.6840 H   0  0  0  0  0  0  0  0  0  0  0  0
    7.9418    7.2319   23.1763 H   0  0  0  0  0  0  0  0  0  0  0  0
   10.1506    7.2978   24.3512 H   0  0  0  0  0  0  0  0  0  0  0  0
   10.9642    6.6412   22.8616 H   0  0  0  0  0  0  0  0  0  0  0  0
   10.2016    8.5913   21.5203 H   0  0  0  0  0  0  0  0  0  0  0  0
    7.5480   14.8772   24.8557 H   0  0  0  0  0  0  0  0  0  0  0  0
    7.7330   14.5209   26.5907 H   0  0  0  0  0  0  0  0  0  0  0  0
    9.1435   14.4708   25.5347 H   0  0  0  0  0  0  0  0  0  0  0  0
   13.8343   13.5059   21.8884 H   0  0  0  0  0  0  0  0  0  0  0  0
   13.9483   15.2306   22.2849 H   0  0  0  0  0  0  0  0  0  0  0  0
   13.3910   14.0855   23.5036 H   0  0  0  0  0  0  0  0  0  0  0  0
    7.0764    9.1480   27.4380 H   0  0  0  0  0  0  0  0  0  0  0  0
    5.8044    8.0528   26.9058 H   0  0  0  0  0  0  0  0  0  0  0  0
    7.2319    8.2951   25.8931 H   0  0  0  0  0  0  0  0  0  0  0  0
    4.5592   10.2605   24.0551 H   0  0  0  0  0  0  0  0  0  0  0  0
    5.7422    8.9668   23.8921 H   0  0  0  0  0  0  0  0  0  0  0  0
    4.3019    8.7276   24.8954 H   0  0  0  0  0  0  0  0  0  0  0  0
    4.2430   11.3988   26.3644 H   0  0  0  0  0  0  0  0  0  0  0  0
    4.0223    9.8011   27.0741 H   0  0  0  0  0  0  0  0  0  0  0  0
    5.2377   10.9166   27.7373 H   0  0  0  0  0  0  0  0  0  0  0  0
   11.4918   15.3656   22.5306 H   0  0  0  0  0  0  0  0  0  0  0  0
   11.0538   12.6544   21.5616 H   0  0  0  0  0  0  0  0  0  0  0  0
  1  4  1  0  0  0  0
  1  8  2  0  0  0  0
  2  5  2  0  0  0  0
  2  8  1  0  0  0  0
  3  7  1  0  0  0  0
  3  9  2  0  0  0  0
  4 23  2  0  0  0  0
  5 23  1  0  0  0  0
  6  7  2  0  0  0  0
  6 10  1  0  0  0  0
  6 11  1  0  0  0  0
  7 12  1  0  0  0  0
  8 21  1  0  0  0  0
  9 15  1  0  0  0  0
  9 24  1  0  0  0  0
 10 16  1  0  0  0  0
 10 25  2  0  0  0  0
 11 24  2  0  0  0  0
 11 26  1  0  0  0  0
 12 27  1  0  0  0  0
 12 28  2  0  0  0  0
 13 14  1  0  0  0  0
 13 15  1  0  0  0  0
 14 15  1  0  0  0  0
 17 21  1  0  0  0  0
 18 22  1  0  0  0  0
 19 22  1  0  0  0  0
 20 22  1  0  0  0  0
 21 27  1  0  0  0  0
 22 26  1  0  0  0  0
 25 26  1  0  0  0  0
  1 29  1  0  0  0  0
  2 30  1  0  0  0  0
  3 31  1  0  0  0  0
  4 32  1  0  0  0  0
  5 33  1  0  0  0  0
 13 34  1  0  0  0  0
 13 35  1  0  0  0  0
 14 36  1  0  0  0  0
 14 37  1  0  0  0  0
 15 38  1  0  0  0  0
 16 39  1  0  0  0  0
 16 40  1  0  0  0  0
 16 41  1  0  0  0  0
 17 42  1  0  0  0  0
 17 43  1  0  0  0  0
 17 44  1  0  0  0  0
 18 45  1  0  0  0  0
 18 46  1  0  0  0  0
 18 47  1  0  0  0  0
 19 48  1  0  0  0  0
 19 49  1  0  0  0  0
 19 50  1  0  0  0  0
 20 51  1  0  0  0  0
 20 52  1  0  0  0  0
 20 53  1  0  0  0  0
 21 54  1  0  0  0  0
 27 55  1  0  0  0  0
M  END
> <Catalog ID>
Z442340092

> <PlateID>
1041831-R-16

> <Well>
B10

> <MW (desalted)>
377.483

> <ClogP>
3.199

> <HBD>
1

> <TPSA>
72.700

> <RotBonds>
5

> <ROCS_ShapeQuery>
A71EV2A-x0451_0A_A71EV2A-x0310_0A_A71EV2A-x0416_0A_peptide

> <ROCS_TanimotoCombo>
0.571 

> <ROCS_ShapeTanimoto>
0.386 

> <ROCS_ColorTanimoto>
0.185 

> <ROCS_RefTversky>
0.342 

> <ROCS_RefColorTversky>
0.208 

> <ROCS_RefTverskyCombo>
0.550 

> <ROCS_FitTversky>
1.506 

> <ROCS_FitColorTversky>
0.625 

> <ROCS_FitTverskyCombo>
2.131 

> <ROCS_ColorScore>
-6.350

> <ROCS_Overlap>
2380.778

> <ROCS_Rank>
13                  

$$$$
untitled-dbase-3163_69
  -OEChem-11132311063D

 42 46  0     1  0  0  0  0  0999 V2000
   11.7525   14.1512   20.2441 C   0  0  0  0  0  0  0  0  0  0  0  0
   11.2281   13.0035   20.8393 C   0  0  0  0  0  0  0  0  0  0  0  0
   11.9949   15.2900   21.0128 C   0  0  0  0  0  0  0  0  0  0  0  0
   10.9540   12.9873   22.2072 C   0  0  0  0  0  0  0  0  0  0  0  0
   11.7088   15.2791   22.3782 C   0  0  0  0  0  0  0  0  0  0  0  0
   11.2089   14.1212   22.9792 C   0  0  0  0  0  0  0  0  0  0  0  0
    8.4764    8.0845   23.0972 C   0  0  0  0  0  0  0  0  0  0  0  0
    9.7193    9.0001   23.2297 C   0  0  0  0  0  0  0  0  0  0  0  0
    7.6595    9.3471   22.7263 C   0  0  0  0  0  0  0  0  0  0  0  0
    7.0077   12.4406   24.3610 C   0  0  0  0  0  0  0  0  0  0  0  0
    6.5062   11.6244   25.5474 C   0  0  0  0  0  0  0  0  0  0  0  0
   11.3099   16.4266   24.3557 C   0  0  0  0  0  0  0  0  0  0  0  0
   11.5489   15.1025   25.0546 C   0  0  0  0  0  0  0  0  0  0  0  0
    8.4923   12.0885   24.2612 C   0  0  2  0  0  0  0  0  0  0  0  0
    9.0463   11.5369   22.9155 C   0  0  2  0  0  0  0  0  0  0  0  0
    8.4967   10.6427   24.8348 C   0  0  2  0  0  0  0  0  0  0  0  0
    8.7483   10.1463   23.4229 C   0  0  0  0  0  0  0  0  0  0  0  0
   10.4366   11.8241   22.7855 N   0  0  0  0  0  0  0  0  0  0  0  0
   11.9491   16.4339   23.0761 O   0  0  0  0  0  0  0  0  0  0  0  0
   10.9390   14.0375   24.3203 O   0  0  0  0  0  0  0  0  0  0  0  0
    7.2166   10.3839   25.4537 O   0  0  0  0  0  0  0  0  0  0  0  0
   11.9686   14.1589   19.1795 H   0  0  0  0  0  0  0  0  0  0  0  0
   11.0396   12.1253   20.2268 H   0  0  0  0  0  0  0  0  0  0  0  0
   12.3958   16.1821   20.5395 H   0  0  0  0  0  0  0  0  0  0  0  0
    8.5342    7.3130   22.3252 H   0  0  0  0  0  0  0  0  0  0  0  0
    8.1676    7.6224   24.0422 H   0  0  0  0  0  0  0  0  0  0  0  0
   10.3881    8.7636   24.0638 H   0  0  0  0  0  0  0  0  0  0  0  0
   10.3135    9.0299   22.3078 H   0  0  0  0  0  0  0  0  0  0  0  0
    7.6004    9.5228   21.6465 H   0  0  0  0  0  0  0  0  0  0  0  0
    6.6518    9.3927   23.1439 H   0  0  0  0  0  0  0  0  0  0  0  0
    6.4579   12.2267   23.4466 H   0  0  0  0  0  0  0  0  0  0  0  0
    6.9093   13.5045   24.5874 H   0  0  0  0  0  0  0  0  0  0  0  0
    6.7183   12.1082   26.5035 H   0  0  0  0  0  0  0  0  0  0  0  0
    5.4348   11.4161   25.4750 H   0  0  0  0  0  0  0  0  0  0  0  0
   10.2396   16.6212   24.2131 H   0  0  0  0  0  0  0  0  0  0  0  0
   11.7322   17.2479   24.9430 H   0  0  0  0  0  0  0  0  0  0  0  0
   12.6196   14.8876   25.1593 H   0  0  0  0  0  0  0  0  0  0  0  0
   11.1045   15.1146   26.0548 H   0  0  0  0  0  0  0  0  0  0  0  0
    9.1504   12.7868   24.7922 H   0  0  0  0  0  0  0  0  0  0  0  0
    8.4959   11.8397   22.0320 H   0  0  0  0  0  0  0  0  0  0  0  0
    9.3076   10.4523   25.5525 H   0  0  0  0  0  0  0  0  0  0  0  0
   11.1218   11.1464   23.1339 H   0  0  0  0  0  0  0  0  0  0  0  0
  1  2  1  0  0  0  0
  1  3  2  0  0  0  0
  2  4  2  0  0  0  0
  3  5  1  0  0  0  0
  4  6  1  0  0  0  0
  4 18  1  0  0  0  0
  5  6  2  0  0  0  0
  5 19  1  0  0  0  0
  6 20  1  0  0  0  0
  7  8  1  0  0  0  0
  7  9  1  0  0  0  0
  8 17  1  0  0  0  0
  9 17  1  0  0  0  0
 10 11  1  0  0  0  0
 10 14  1  0  0  0  0
 11 21  1  0  0  0  0
 12 13  1  0  0  0  0
 12 19  1  0  0  0  0
 13 20  1  0  0  0  0
 14 15  1  0  0  0  0
 14 16  1  0  0  0  0
 15 17  1  0  0  0  0
 15 18  1  0  0  0  0
 16 17  1  0  0  0  0
 16 21  1  0  0  0  0
  1 22  1  0  0  0  0
  2 23  1  0  0  0  0
  3 24  1  0  0  0  0
  7 25  1  0  0  0  0
  7 26  1  0  0  0  0
  8 27  1  0  0  0  0
  8 28  1  0  0  0  0
  9 29  1  0  0  0  0
  9 30  1  0  0  0  0
 10 31  1  0  0  0  0
 10 32  1  0  0  0  0
 11 33  1  0  0  0  0
 11 34  1  0  0  0  0
 12 35  1  0  0  0  0
 12 36  1  0  0  0  0
 13 37  1  0  0  0  0
 13 38  1  0  0  0  0
 14 39  1  0  0  0  0
 15 40  1  0  0  0  0
 16 41  1  0  0  0  0
 18 42  1  0  0  0  0
M  END
> <Catalog ID>
Z1681874071

> <PlateID>
1041831-R-40

> <Well>
E04

> <MW (desalted)>
287.354

> <ClogP>
2.788

> <HBD>
1

> <TPSA>
39.720

> <RotBonds>
2

> <ROCS_ShapeQuery>
A71EV2A-x0451_0A_A71EV2A-x0310_0A_A71EV2A-x0416_0A_peptide

> <ROCS_TanimotoCombo>
0.570 

> <ROCS_ShapeTanimoto>
0.341 

> <ROCS_ColorTanimoto>
0.229 

> <ROCS_RefTversky>
0.302 

> <ROCS_RefColorTversky>
0.267 

> <ROCS_RefTverskyCombo>
0.569 

> <ROCS_FitTversky>
1.618 

> <ROCS_FitColorTversky>
0.611 

> <ROCS_FitTverskyCombo>
2.229 

> <ROCS_ColorScore>
-8.221

> <ROCS_Overlap>
2095.675

> <ROCS_Rank>
14                  

$$$$
untitled-dbase-130_14719
  -OEChem-11132311063D

 57 60  0     1  0  0  0  0  0999 V2000
    6.2322   13.1312   27.4299 C   0  0  0  0  0  0  0  0  0  0  0  0
    8.1521   12.7201   25.0476 C   0  0  0  0  0  0  0  0  0  0  0  0
    9.8154   10.1928   22.7816 C   0  0  0  0  0  0  0  0  0  0  0  0
    9.0876   11.0149   23.6647 C   0  0  0  0  0  0  0  0  0  0  0  0
    6.1823   12.1796   26.3833 C   0  0  0  0  0  0  0  0  0  0  0  0
    9.1326   12.3337   24.1336 C   0  0  0  0  0  0  0  0  0  0  0  0
    7.1949   11.7906   25.4405 C   0  0  0  0  0  0  0  0  0  0  0  0
    4.9926   13.1092   28.0256 C   0  0  0  0  0  0  0  0  0  0  0  0
    4.9159   11.6438   26.4144 C   0  0  0  0  0  0  0  0  0  0  0  0
    8.0784   10.1912   24.1386 C   0  0  0  0  0  0  0  0  0  0  0  0
   10.1776   13.2873   23.6800 C   0  0  0  0  0  0  0  0  0  0  0  0
   11.7716   14.8506   18.7798 C   0  0  0  0  0  0  0  0  0  0  0  0
   10.5640   14.7202   19.7059 C   0  0  0  0  0  0  0  0  0  0  0  0
   12.7909   15.7286   19.5113 C   0  0  0  0  0  0  0  0  0  0  0  0
   11.0722   15.1055   21.0973 C   0  0  2  0  0  0  0  0  0  0  0  0
   12.0961   16.1989   20.7858 C   0  0  2  0  0  0  0  0  0  0  0  0
    4.4039   13.8487   29.1511 C   0  0  0  0  0  0  0  0  0  0  0  0
    4.2240   10.6224   25.6119 C   0  0  0  0  0  0  0  0  0  0  0  0
    7.3813    7.3629   25.1674 C   0  0  0  0  0  0  0  0  0  0  0  0
    7.9261    6.6541   22.7995 C   0  0  0  0  0  0  0  0  0  0  0  0
   11.6976   13.9158   21.8225 C   0  0  0  0  0  0  0  0  0  0  0  0
    7.4584    7.7971   23.7024 C   0  0  0  0  0  0  0  0  0  0  0  0
    9.3176    8.9546   22.6973 N   0  0  0  0  0  0  0  0  0  0  0  0
    7.1098   10.5066   25.0160 N   0  0  0  0  0  0  0  0  0  0  0  0
    8.2633    8.9837   23.5325 N   0  0  0  0  0  0  0  0  0  0  0  0
   10.6763   13.0979   22.3899 N   0  0  0  0  0  0  0  0  0  0  0  0
   10.5622   14.1656   24.4476 O   0  0  0  0  0  0  0  0  0  0  0  0
    4.1844   12.2050   27.4126 O   0  0  0  0  0  0  0  0  0  0  0  0
   11.4246   17.4254   20.5074 O   0  0  0  0  0  0  0  0  0  0  0  0
    7.0664   13.7565   27.7160 H   0  0  0  0  0  0  0  0  0  0  0  0
    8.1421   13.7336   25.4414 H   0  0  0  0  0  0  0  0  0  0  0  0
   10.6882   10.4410   22.1945 H   0  0  0  0  0  0  0  0  0  0  0  0
   12.1889   13.8650   18.5439 H   0  0  0  0  0  0  0  0  0  0  0  0
   11.4867   15.3193   17.8304 H   0  0  0  0  0  0  0  0  0  0  0  0
    9.7298   15.3553   19.3828 H   0  0  0  0  0  0  0  0  0  0  0  0
   10.2053   13.6810   19.6969 H   0  0  0  0  0  0  0  0  0  0  0  0
   13.7124   15.1806   19.7367 H   0  0  0  0  0  0  0  0  0  0  0  0
   13.0791   16.5807   18.8826 H   0  0  0  0  0  0  0  0  0  0  0  0
   10.2667   15.4995   21.7063 H   0  0  0  0  0  0  0  0  0  0  0  0
   12.8021   16.3550   21.5869 H   0  0  0  0  0  0  0  0  0  0  0  0
    3.9175   14.7805   28.8115 H   0  0  0  0  0  0  0  0  0  0  0  0
    3.6415   13.2563   29.6901 H   0  0  0  0  0  0  0  0  0  0  0  0
    5.1578   14.1279   29.9105 H   0  0  0  0  0  0  0  0  0  0  0  0
    4.3595    9.6145   26.0411 H   0  0  0  0  0  0  0  0  0  0  0  0
    3.1371   10.8100   25.5433 H   0  0  0  0  0  0  0  0  0  0  0  0
    4.5901   10.5908   24.5696 H   0  0  0  0  0  0  0  0  0  0  0  0
    8.3628    7.0793   25.5619 H   0  0  0  0  0  0  0  0  0  0  0  0
    6.7161    6.4999   25.2781 H   0  0  0  0  0  0  0  0  0  0  0  0
    6.9908    8.1722   25.7944 H   0  0  0  0  0  0  0  0  0  0  0  0
    8.9424    6.3402   23.0619 H   0  0  0  0  0  0  0  0  0  0  0  0
    7.9309    6.9699   21.7508 H   0  0  0  0  0  0  0  0  0  0  0  0
    7.2750    5.7771   22.8801 H   0  0  0  0  0  0  0  0  0  0  0  0
   12.2738   13.3499   21.0897 H   0  0  0  0  0  0  0  0  0  0  0  0
   12.3457   14.3114   22.6052 H   0  0  0  0  0  0  0  0  0  0  0  0
    6.4404    8.0621   23.3889 H   0  0  0  0  0  0  0  0  0  0  0  0
   10.3407   12.2999   21.8436 H   0  0  0  0  0  0  0  0  0  0  0  0
   12.1006   18.0636   20.2212 H   0  0  0  0  0  0  0  0  0  0  0  0
  1  5  1  0  0  0  0
  1  8  2  0  0  0  0
  2  6  1  0  0  0  0
  2  7  2  0  0  0  0
  3  4  1  0  0  0  0
  3 23  2  0  0  0  0
  4  6  2  0  0  0  0
  4 10  1  0  0  0  0
  5  7  1  0  0  0  0
  5  9  2  0  0  0  0
  6 11  1  0  0  0  0
  7 24  1  0  0  0  0
  8 17  1  0  0  0  0
  8 28  1  0  0  0  0
  9 18  1  0  0  0  0
  9 28  1  0  0  0  0
 10 24  2  0  0  0  0
 10 25  1  0  0  0  0
 11 26  1  0  0  0  0
 11 27  2  0  0  0  0
 12 13  1  0  0  0  0
 12 14  1  0  0  0  0
 13 15  1  0  0  0  0
 14 16  1  0  0  0  0
 15 16  1  0  0  0  0
 15 21  1  0  0  0  0
 16 29  1  0  0  0  0
 19 22  1  0  0  0  0
 20 22  1  0  0  0  0
 21 26  1  0  0  0  0
 22 25  1  0  0  0  0
 23 25  1  0  0  0  0
  1 30  1  0  0  0  0
  2 31  1  0  0  0  0
  3 32  1  0  0  0  0
 12 33  1  0  0  0  0
 12 34  1  0  0  0  0
 13 35  1  0  0  0  0
 13 36  1  0  0  0  0
 14 37  1  0  0  0  0
 14 38  1  0  0  0  0
 15 39  1  0  0  0  0
 16 40  1  0  0  0  0
 17 41  1  0  0  0  0
 17 42  1  0  0  0  0
 17 43  1  0  0  0  0
 18 44  1  0  0  0  0
 18 45  1  0  0  0  0
 18 46  1  0  0  0  0
 19 47  1  0  0  0  0
 19 48  1  0  0  0  0
 19 49  1  0  0  0  0
 20 50  1  0  0  0  0
 20 51  1  0  0  0  0
 20 52  1  0  0  0  0
 21 53  1  0  0  0  0
 21 54  1  0  0  0  0
 22 55  1  0  0  0  0
 26 56  1  0  0  0  0
 29 57  1  0  0  0  0
M  END
> <Catalog ID>
Z1269774472

> <PlateID>
1041831-R-02

> <Well>
E11

> <MW (desalted)>
396.483

> <ClogP>
3.474

> <HBD>
2

> <TPSA>
93.180

> <RotBonds>
5

> <ROCS_ShapeQuery>
A71EV2A-x0451_0A_A71EV2A-x0310_0A_A71EV2A-x0416_0A_peptide

> <ROCS_TanimotoCombo>
0.569 

> <ROCS_ShapeTanimoto>
0.396 

> <ROCS_ColorTanimoto>
0.173 

> <ROCS_RefTversky>
0.350 

> <ROCS_RefColorTversky>
0.209 

> <ROCS_RefTverskyCombo>
0.560 

> <ROCS_FitTversky>
1.498 

> <ROCS_FitColorTversky>
0.495 

> <ROCS_FitTverskyCombo>
1.993 

> <ROCS_ColorScore>
-6.435

> <ROCS_Overlap>
2438.391

> <ROCS_Rank>
15                  

$$$$
untitled-dbase-260_144
  -OEChem-11132311063D

 46 49  0     1  0  0  0  0  0999 V2000
    7.8718   12.9180   24.6383 C   0  0  0  0  0  0  0  0  0  0  0  0
    6.8134   12.7646   25.5364 C   0  0  0  0  0  0  0  0  0  0  0  0
    7.1521   10.3768   25.5357 C   0  0  0  0  0  0  0  0  0  0  0  0
    8.6015   11.8047   24.1958 C   0  0  0  0  0  0  0  0  0  0  0  0
    8.2237   10.5320   24.6502 C   0  0  0  0  0  0  0  0  0  0  0  0
    6.4544   11.4958   25.9847 C   0  0  0  0  0  0  0  0  0  0  0  0
   10.0405    9.4137   23.4280 C   0  0  0  0  0  0  0  0  0  0  0  0
   10.4527   13.2048   23.2435 C   0  0  0  0  0  0  0  0  0  0  0  0
   10.6932   10.7713   23.2816 C   0  0  0  0  0  0  0  0  0  0  0  0
   12.6853   16.8622   18.7135 C   0  0  0  0  0  0  0  0  0  0  0  0
   14.1777   16.6695   18.9501 C   0  0  0  0  0  0  0  0  0  0  0  0
   11.9107   16.4980   19.9729 C   0  0  0  0  0  0  0  0  0  0  0  0
   13.0020   14.8246   22.7632 C   0  0  0  0  0  0  0  0  0  0  0  0
   14.4733   15.2459   19.4180 C   0  0  0  0  0  0  0  0  0  0  0  0
   14.1126   15.3204   21.8505 C   0  0  0  0  0  0  0  0  0  0  0  0
    9.6911   11.9168   23.1558 C   0  0  1  0  0  0  0  0  0  0  0  0
   12.2414   15.0724   20.4548 C   0  0  2  0  0  0  0  0  0  0  0  0
   11.7406   14.8574   21.8948 C   0  0  1  0  0  0  0  0  0  0  0  0
    8.8927    9.3839   24.1913 N   0  0  0  0  0  0  0  0  0  0  0  0
   13.6817   14.8000   20.5586 N   0  0  1  0  0  0  0  0  0  0  0  0
   10.9770   13.6436   22.0361 N   0  0  0  0  0  0  0  0  0  0  0  0
   10.5663    8.3996   22.9690 O   0  0  0  0  0  0  0  0  0  0  0  0
   10.5617   13.7698   24.3254 O   0  0  0  0  0  0  0  0  0  0  0  0
    5.4415   11.3522   26.8488 F   0  0  0  0  0  0  0  0  0  0  0  0
    8.1316   13.9164   24.2910 H   0  0  0  0  0  0  0  0  0  0  0  0
    6.2751   13.6389   25.8925 H   0  0  0  0  0  0  0  0  0  0  0  0
    6.8503    9.3889   25.8751 H   0  0  0  0  0  0  0  0  0  0  0  0
   11.3574   10.9329   24.1347 H   0  0  0  0  0  0  0  0  0  0  0  0
   11.3101   10.7198   22.3785 H   0  0  0  0  0  0  0  0  0  0  0  0
   12.4789   17.8951   18.4294 H   0  0  0  0  0  0  0  0  0  0  0  0
   12.3632   16.2208   17.8896 H   0  0  0  0  0  0  0  0  0  0  0  0
   14.7292   16.8800   18.0324 H   0  0  0  0  0  0  0  0  0  0  0  0
   14.5172   17.3801   19.7083 H   0  0  0  0  0  0  0  0  0  0  0  0
   12.1409   17.2269   20.7719 H   0  0  0  0  0  0  0  0  0  0  0  0
   10.8254   16.5847   19.7888 H   0  0  0  0  0  0  0  0  0  0  0  0
   13.2287   13.8117   23.1166 H   0  0  0  0  0  0  0  0  0  0  0  0
   12.8760   15.4688   23.6405 H   0  0  0  0  0  0  0  0  0  0  0  0
   14.3490   14.5385   18.5552 H   0  0  0  0  0  0  0  0  0  0  0  0
   15.5614   15.1763   19.6743 H   0  0  0  0  0  0  0  0  0  0  0  0
   14.1811   16.4055   21.8455 H   0  0  0  0  0  0  0  0  0  0  0  0
   15.0674   14.8968   22.1627 H   0  0  0  0  0  0  0  0  0  0  0  0
    9.2564   11.8661   22.1563 H   0  0  0  0  0  0  0  0  0  0  0  0
   11.7352   14.3508   19.7877 H   0  0  0  0  0  0  0  0  0  0  0  0
   11.0877   15.6741   22.2129 H   0  0  0  0  0  0  0  0  0  0  0  0
    8.5069    8.4797   24.4444 H   0  0  0  0  0  0  0  0  0  0  0  0
   10.8131   13.0765   21.2039 H   0  0  0  0  0  0  0  0  0  0  0  0
  1  2  1  0  0  0  0
  1  4  2  0  0  0  0
  2  6  2  0  0  0  0
  3  5  2  0  0  0  0
  3  6  1  0  0  0  0
  4  5  1  0  0  0  0
  4 16  1  0  0  0  0
  5 19  1  0  0  0  0
  6 24  1  0  0  0  0
  7  9  1  0  0  0  0
  7 19  1  0  0  0  0
  7 22  2  0  0  0  0
  8 16  1  0  0  0  0
  8 21  1  0  0  0  0
  8 23  2  0  0  0  0
  9 16  1  0  0  0  0
 10 11  1  0  0  0  0
 10 12  1  0  0  0  0
 11 14  1  0  0  0  0
 12 17  1  0  0  0  0
 13 15  1  0  0  0  0
 13 18  1  0  0  0  0
 14 20  1  0  0  0  0
 15 20  1  0  0  0  0
 17 18  1  0  0  0  0
 17 20  1  0  0  0  0
 18 21  1  0  0  0  0
  1 25  1  0  0  0  0
  2 26  1  0  0  0  0
  3 27  1  0  0  0  0
  9 28  1  0  0  0  0
  9 29  1  0  0  0  0
 10 30  1  0  0  0  0
 10 31  1  0  0  0  0
 11 32  1  0  0  0  0
 11 33  1  0  0  0  0
 12 34  1  0  0  0  0
 12 35  1  0  0  0  0
 13 36  1  0  0  0  0
 13 37  1  0  0  0  0
 14 38  1  0  0  0  0
 14 39  1  0  0  0  0
 15 40  1  0  0  0  0
 15 41  1  0  0  0  0
 16 42  1  0  0  0  0
 17 43  1  0  0  0  0
 18 44  1  0  0  0  0
 19 45  1  0  0  0  0
 21 46  1  0  0  0  0
M  END
> <Catalog ID>
Z423022504

> <PlateID>
1041831-R-04

> <Well>
B11

> <MW (desalted)>
331.385

> <ClogP>
1.785

> <HBD>
2

> <TPSA>
61.440

> <RotBonds>
2

> <ROCS_ShapeQuery>
A71EV2A-x0451_0A_A71EV2A-x0310_0A_A71EV2A-x0416_0A_peptide

> <ROCS_TanimotoCombo>
0.569 

> <ROCS_ShapeTanimoto>
0.373 

> <ROCS_ColorTanimoto>
0.195 

> <ROCS_RefTversky>
0.327 

> <ROCS_RefColorTversky>
0.218 

> <ROCS_RefTverskyCombo>
0.544 

> <ROCS_FitTversky>
1.619 

> <ROCS_FitColorTversky>
0.656 

> <ROCS_FitTverskyCombo>
2.275 

> <ROCS_ColorScore>
-6.660

> <ROCS_Overlap>
2270.412

> <ROCS_Rank>
16                  

$$$$
untitled-dbase-2877_6921
  -OEChem-11132311063D

 52 55  0     1  0  0  0  0  0999 V2000
   13.1084   15.2964   18.5611 C   0  0  0  0  0  0  0  0  0  0  0  0
   14.0077   15.6476   19.5460 C   0  0  0  0  0  0  0  0  0  0  0  0
   12.2572   15.2778   20.8145 C   0  0  0  0  0  0  0  0  0  0  0  0
    7.4863   12.5390   25.6770 C   0  0  0  0  0  0  0  0  0  0  0  0
   10.5352   13.2674   23.4121 C   0  0  0  0  0  0  0  0  0  0  0  0
    5.1936   13.4085   26.1592 C   0  0  0  0  0  0  0  0  0  0  0  0
    5.8556   11.0267   26.7870 C   0  0  0  0  0  0  0  0  0  0  0  0
    8.0410    9.7506   23.7738 C   0  0  0  0  0  0  0  0  0  0  0  0
    9.3389    9.8396   24.6195 C   0  0  0  0  0  0  0  0  0  0  0  0
    5.3226   13.8197   27.6252 C   0  0  0  0  0  0  0  0  0  0  0  0
    5.9945   11.4631   28.2443 C   0  0  0  0  0  0  0  0  0  0  0  0
    8.6930   11.8117   22.5161 C   0  0  0  0  0  0  0  0  0  0  0  0
    6.0334   12.1808   25.7969 C   0  0  0  0  0  0  0  0  0  0  0  0
   10.0104   11.8668   23.3354 C   0  0  2  0  0  0  0  0  0  0  0  0
    7.6913   11.2302   23.5309 C   0  0  2  0  0  0  0  0  0  0  0  0
    9.5689   11.3580   24.7239 C   0  0  1  0  0  0  0  0  0  0  0  0
    5.0974   12.6459   28.5605 C   0  0  0  0  0  0  0  0  0  0  0  0
   15.4185   16.0252   19.3305 C   0  0  0  0  0  0  0  0  0  0  0  0
   11.3863   15.1517   22.0310 C   0  0  0  0  0  0  0  0  0  0  0  0
   13.5213   15.6379   20.8387 N   0  0  0  0  0  0  0  0  0  0  0  0
    8.1909   11.8147   24.7535 N   0  0  0  0  0  0  0  0  0  0  0  0
   10.8640   13.8130   22.1859 N   0  0  0  0  0  0  0  0  0  0  0  0
    7.9750   13.4262   26.3770 O   0  0  0  0  0  0  0  0  0  0  0  0
   10.6342   13.8166   24.5031 O   0  0  0  0  0  0  0  0  0  0  0  0
    3.7984   12.2562   28.4869 F   0  0  0  0  0  0  0  0  0  0  0  0
    5.3079   13.0423   29.8405 F   0  0  0  0  0  0  0  0  0  0  0  0
   11.5895   14.9356   19.2711 S   0  0  0  0  0  0  0  0  0  0  0  0
   13.2625   15.2348   17.4930 H   0  0  0  0  0  0  0  0  0  0  0  0
    4.1404   13.1797   25.9528 H   0  0  0  0  0  0  0  0  0  0  0  0
    5.4614   14.2597   25.5220 H   0  0  0  0  0  0  0  0  0  0  0  0
    6.5781   10.2287   26.5793 H   0  0  0  0  0  0  0  0  0  0  0  0
    4.8570   10.5955   26.6427 H   0  0  0  0  0  0  0  0  0  0  0  0
    8.1987    9.1933   22.8451 H   0  0  0  0  0  0  0  0  0  0  0  0
    7.2551    9.2505   24.3510 H   0  0  0  0  0  0  0  0  0  0  0  0
    9.1691    9.4002   25.6091 H   0  0  0  0  0  0  0  0  0  0  0  0
   10.1718    9.3129   24.1435 H   0  0  0  0  0  0  0  0  0  0  0  0
    6.3135   14.2514   27.8096 H   0  0  0  0  0  0  0  0  0  0  0  0
    4.5945   14.6090   27.8451 H   0  0  0  0  0  0  0  0  0  0  0  0
    5.7328   10.6228   28.8977 H   0  0  0  0  0  0  0  0  0  0  0  0
    7.0364   11.7173   28.4710 H   0  0  0  0  0  0  0  0  0  0  0  0
    8.3779   12.8088   22.1870 H   0  0  0  0  0  0  0  0  0  0  0  0
    8.7982   11.1740   21.6321 H   0  0  0  0  0  0  0  0  0  0  0  0
    5.7345   11.8311   24.8011 H   0  0  0  0  0  0  0  0  0  0  0  0
   10.7859   11.2383   22.8847 H   0  0  0  0  0  0  0  0  0  0  0  0
    6.6403   11.4279   23.3123 H   0  0  0  0  0  0  0  0  0  0  0  0
   10.1873   11.6743   25.5654 H   0  0  0  0  0  0  0  0  0  0  0  0
   15.5194   17.1118   19.1756 H   0  0  0  0  0  0  0  0  0  0  0  0
   16.0563   15.7479   20.1869 H   0  0  0  0  0  0  0  0  0  0  0  0
   15.8522   15.5193   18.4510 H   0  0  0  0  0  0  0  0  0  0  0  0
   11.9499   15.4008   22.9367 H   0  0  0  0  0  0  0  0  0  0  0  0
   10.5354   15.8390   21.9781 H   0  0  0  0  0  0  0  0  0  0  0  0
   10.7325   13.2461   21.3536 H   0  0  0  0  0  0  0  0  0  0  0  0
  1  2  2  0  0  0  0
  1 27  1  0  0  0  0
  2 18  1  0  0  0  0
  2 20  1  0  0  0  0
  3 19  1  0  0  0  0
  3 20  2  0  0  0  0
  3 27  1  0  0  0  0
  4 13  1  0  0  0  0
  4 21  1  0  0  0  0
  4 23  2  0  0  0  0
  5 14  1  0  0  0  0
  5 22  1  0  0  0  0
  5 24  2  0  0  0  0
  6 10  1  0  0  0  0
  6 13  1  0  0  0  0
  7 11  1  0  0  0  0
  7 13  1  0  0  0  0
  8  9  1  0  0  0  0
  8 15  1  0  0  0  0
  9 16  1  0  0  0  0
 10 17  1  0  0  0  0
 11 17  1  0  0  0  0
 12 14  1  0  0  0  0
 12 15  1  0  0  0  0
 14 16  1  0  0  0  0
 15 21  1  0  0  0  0
 16 21  1  0  0  0  0
 17 25  1  0  0  0  0
 17 26  1  0  0  0  0
 19 22  1  0  0  0  0
  1 28  1  0  0  0  0
  6 29  1  0  0  0  0
  6 30  1  0  0  0  0
  7 31  1  0  0  0  0
  7 32  1  0  0  0  0
  8 33  1  0  0  0  0
  8 34  1  0  0  0  0
  9 35  1  0  0  0  0
  9 36  1  0  0  0  0
 10 37  1  0  0  0  0
 10 38  1  0  0  0  0
 11 39  1  0  0  0  0
 11 40  1  0  0  0  0
 12 41  1  0  0  0  0
 12 42  1  0  0  0  0
 13 43  1  0  0  0  0
 14 44  1  0  0  0  0
 15 45  1  0  0  0  0
 16 46  1  0  0  0  0
 18 47  1  0  0  0  0
 18 48  1  0  0  0  0
 18 49  1  0  0  0  0
 19 50  1  0  0  0  0
 19 51  1  0  0  0  0
 22 52  1  0  0  0  0
M  END
> <Catalog ID>
Z2178439367

> <PlateID>
1041831-R-36

> <Well>
H08

> <MW (desalted)>
397.483

> <ClogP>
0.968

> <HBD>
1

> <TPSA>
62.300

> <RotBonds>
4

> <ROCS_ShapeQuery>
A71EV2A-x0451_0A_A71EV2A-x0310_0A_A71EV2A-x0416_0A_peptide

> <ROCS_TanimotoCombo>
0.569 

> <ROCS_ShapeTanimoto>
0.354 

> <ROCS_ColorTanimoto>
0.215 

> <ROCS_RefTversky>
0.318 

> <ROCS_RefColorTversky>
0.254 

> <ROCS_RefTverskyCombo>
0.572 

> <ROCS_FitTversky>
1.460 

> <ROCS_FitColorTversky>
0.585 

> <ROCS_FitTverskyCombo>
2.045 

> <ROCS_ColorScore>
-7.799

> <ROCS_Overlap>
2213.072

> <ROCS_Rank>
17                  

$$$$
untitled-dbase-27_1847
  -OEChem-11132311063D

 43 46  0     1  0  0  0  0  0999 V2000
   11.3318   14.1449   21.6915 C   0  0  0  0  0  0  0  0  0  0  0  0
   11.2103   15.2312   24.1441 C   0  0  0  0  0  0  0  0  0  0  0  0
   11.8894   15.3739   21.9795 C   0  0  0  0  0  0  0  0  0  0  0  0
   10.7079   13.5105   22.7463 C   0  0  0  0  0  0  0  0  0  0  0  0
    6.6989   12.7789   25.2184 C   0  0  0  0  0  0  0  0  0  0  0  0
    8.1880   13.1020   25.3223 C   0  0  0  0  0  0  0  0  0  0  0  0
    9.1251   10.2429   23.5027 C   0  0  0  0  0  0  0  0  0  0  0  0
   13.9417   16.4069   21.0089 C   0  0  0  0  0  0  0  0  0  0  0  0
   11.8671   16.3082   19.6669 C   0  0  0  0  0  0  0  0  0  0  0  0
    6.4051   11.3847   25.7595 C   0  0  0  0  0  0  0  0  0  0  0  0
   14.7672   15.5223   20.0816 C   0  0  0  0  0  0  0  0  0  0  0  0
   12.4585   15.4170   18.5766 C   0  0  0  0  0  0  0  0  0  0  0  0
    9.0507   12.0065   24.7092 C   0  0  2  0  0  0  0  0  0  0  0  0
    8.9951   11.7485   23.1786 C   0  0  1  0  0  0  0  0  0  0  0  0
    8.5146   10.5570   24.8920 C   0  0  1  0  0  0  0  0  0  0  0  0
   11.8470   15.9490   23.1992 N   0  0  0  0  0  0  0  0  0  0  0  0
   10.6282   14.0266   23.9903 N   0  0  0  0  0  0  0  0  0  0  0  0
   12.5222   16.0399   20.9526 N   0  0  0  0  0  0  0  0  0  0  0  0
   10.1295   12.2615   22.4958 N   0  0  0  0  0  0  0  0  0  0  0  0
    7.0775   10.4102   24.9670 O   0  0  0  0  0  0  0  0  0  0  0  0
   14.2401   15.7133   18.3495 S   0  0  0  0  0  0  0  0  0  0  0  0
   11.3808   13.7064   20.7014 H   0  0  0  0  0  0  0  0  0  0  0  0
   11.1611   15.6695   25.1333 H   0  0  0  0  0  0  0  0  0  0  0  0
    6.1214   13.5259   25.7733 H   0  0  0  0  0  0  0  0  0  0  0  0
    6.3888   12.8334   24.1682 H   0  0  0  0  0  0  0  0  0  0  0  0
    8.4001   14.0649   24.8446 H   0  0  0  0  0  0  0  0  0  0  0  0
    8.4492   13.2102   26.3825 H   0  0  0  0  0  0  0  0  0  0  0  0
    8.5326    9.5794   22.8662 H   0  0  0  0  0  0  0  0  0  0  0  0
   10.1491    9.8542   23.5568 H   0  0  0  0  0  0  0  0  0  0  0  0
   14.3180   16.3302   22.0333 H   0  0  0  0  0  0  0  0  0  0  0  0
   14.0282   17.4601   20.7233 H   0  0  0  0  0  0  0  0  0  0  0  0
   12.0144   17.3662   19.4280 H   0  0  0  0  0  0  0  0  0  0  0  0
   10.7873   16.1492   19.7404 H   0  0  0  0  0  0  0  0  0  0  0  0
    6.7177   11.2812   26.8044 H   0  0  0  0  0  0  0  0  0  0  0  0
    5.3319   11.1782   25.7041 H   0  0  0  0  0  0  0  0  0  0  0  0
   15.8221   15.8082   20.1451 H   0  0  0  0  0  0  0  0  0  0  0  0
   14.7008   14.4667   20.3658 H   0  0  0  0  0  0  0  0  0  0  0  0
   12.2954   14.3561   18.7950 H   0  0  0  0  0  0  0  0  0  0  0  0
   11.9610   15.6285   17.6245 H   0  0  0  0  0  0  0  0  0  0  0  0
   10.0821   12.1090   25.0816 H   0  0  0  0  0  0  0  0  0  0  0  0
    8.0585   12.0193   22.6844 H   0  0  0  0  0  0  0  0  0  0  0  0
    8.9866   10.0132   25.7176 H   0  0  0  0  0  0  0  0  0  0  0  0
   10.5734   11.6950   21.7656 H   0  0  0  0  0  0  0  0  0  0  0  0
  1  3  1  0  0  0  0
  1  4  2  0  0  0  0
  2 16  1  0  0  0  0
  2 17  2  0  0  0  0
  3 16  2  0  0  0  0
  3 18  1  0  0  0  0
  4 17  1  0  0  0  0
  4 19  1  0  0  0  0
  5  6  1  0  0  0  0
  5 10  1  0  0  0  0
  6 13  1  0  0  0  0
  7 14  1  0  0  0  0
  7 15  1  0  0  0  0
  8 11  1  0  0  0  0
  8 18  1  0  0  0  0
  9 12  1  0  0  0  0
  9 18  1  0  0  0  0
 10 20  1  0  0  0  0
 11 21  1  0  0  0  0
 12 21  1  0  0  0  0
 13 14  1  0  0  0  0
 13 15  1  0  0  0  0
 14 19  1  0  0  0  0
 15 20  1  0  0  0  0
  1 22  1  0  0  0  0
  2 23  1  0  0  0  0
  5 24  1  0  0  0  0
  5 25  1  0  0  0  0
  6 26  1  0  0  0  0
  6 27  1  0  0  0  0
  7 28  1  0  0  0  0
  7 29  1  0  0  0  0
  8 30  1  0  0  0  0
  8 31  1  0  0  0  0
  9 32  1  0  0  0  0
  9 33  1  0  0  0  0
 10 34  1  0  0  0  0
 10 35  1  0  0  0  0
 11 36  1  0  0  0  0
 11 37  1  0  0  0  0
 12 38  1  0  0  0  0
 12 39  1  0  0  0  0
 13 40  1  0  0  0  0
 14 41  1  0  0  0  0
 15 42  1  0  0  0  0
 19 43  1  0  0  0  0
M  END
> <Catalog ID>
Z1874288996

> <PlateID>
1041831-R-01

> <Well>
C08

> <MW (desalted)>
306.426

> <ClogP>
1.892

> <HBD>
1

> <TPSA>
50.280

> <RotBonds>
3

> <ROCS_ShapeQuery>
A71EV2A-x0451_0A_A71EV2A-x0310_0A_A71EV2A-x0416_0A_peptide

> <ROCS_TanimotoCombo>
0.568 

> <ROCS_ShapeTanimoto>
0.321 

> <ROCS_ColorTanimoto>
0.247 

> <ROCS_RefTversky>
0.287 

> <ROCS_RefColorTversky>
0.259 

> <ROCS_RefTverskyCombo>
0.545 

> <ROCS_FitTversky>
1.593 

> <ROCS_FitColorTversky>
0.851 

> <ROCS_FitTverskyCombo>
2.444 

> <ROCS_ColorScore>
-7.893

> <ROCS_Overlap>
1989.906

> <ROCS_Rank>
18                  

$$$$
untitled-dbase-3249_167
  -OEChem-11132311063D

 46 49  0     1  0  0  0  0  0999 V2000
   12.2209   16.8047   20.5249 C   0  0  0  0  0  0  0  0  0  0  0  0
   13.4260   14.7369   20.1946 C   0  0  0  0  0  0  0  0  0  0  0  0
   12.8037   17.3286   19.3711 C   0  0  0  0  0  0  0  0  0  0  0  0
   14.0088   15.2608   19.0408 C   0  0  0  0  0  0  0  0  0  0  0  0
   12.5321   15.5088   20.9367 C   0  0  0  0  0  0  0  0  0  0  0  0
   13.6976   16.5567   18.6290 C   0  0  0  0  0  0  0  0  0  0  0  0
   11.9323   14.9696   22.1227 C   0  0  0  0  0  0  0  0  0  0  0  0
   11.5659   13.5023   23.5817 C   0  0  0  0  0  0  0  0  0  0  0  0
    7.7820   12.6500   25.0243 C   0  0  0  0  0  0  0  0  0  0  0  0
    6.6087   11.8499   25.5783 C   0  0  0  0  0  0  0  0  0  0  0  0
    8.9083   11.6270   24.8729 C   0  0  2  0  0  0  0  0  0  0  0  0
    9.5542   11.4270   23.4822 C   0  0  2  0  0  0  0  0  0  0  0  0
    8.1193   10.3152   24.6963 C   0  0  2  0  0  0  0  0  0  0  0  0
    8.6078   10.2087   23.2220 C   0  0  0  0  0  0  0  0  0  0  0  0
    7.5473   10.5104   22.1580 C   0  0  0  0  0  0  0  0  0  0  0  0
    9.2729    8.8598   22.9341 C   0  0  0  0  0  0  0  0  0  0  0  0
   11.5303   10.9380   22.1989 C   0  0  0  0  0  0  0  0  0  0  0  0
   11.7093   12.1681   24.2550 C   0  0  0  0  0  0  0  0  0  0  0  0
   11.0778   15.5041   22.9634 N   0  0  0  0  0  0  0  0  0  0  0  0
   10.8368   14.5389   23.9233 N   0  0  0  0  0  0  0  0  0  0  0  0
   10.9814   11.1148   23.5447 N   0  0  1  0  0  0  0  0  0  0  0  0
   12.2920   13.6975   22.4471 O   0  0  0  0  0  0  0  0  0  0  0  0
    6.7171   10.5744   24.9375 O   0  0  0  0  0  0  0  0  0  0  0  0
   14.2567   17.0595   17.5203 F   0  0  0  0  0  0  0  0  0  0  0  0
   11.5263   17.4195   21.0927 H   0  0  0  0  0  0  0  0  0  0  0  0
   13.6782   13.7247   20.5022 H   0  0  0  0  0  0  0  0  0  0  0  0
   12.5607   18.3371   19.0499 H   0  0  0  0  0  0  0  0  0  0  0  0
   14.7049   14.6599   18.4630 H   0  0  0  0  0  0  0  0  0  0  0  0
    7.5376   13.1528   24.0890 H   0  0  0  0  0  0  0  0  0  0  0  0
    8.0824   13.4058   25.7550 H   0  0  0  0  0  0  0  0  0  0  0  0
    6.6618   11.7322   26.6616 H   0  0  0  0  0  0  0  0  0  0  0  0
    5.6489   12.2941   25.3049 H   0  0  0  0  0  0  0  0  0  0  0  0
    9.6045   11.6199   25.7310 H   0  0  0  0  0  0  0  0  0  0  0  0
    9.3523   12.3089   22.7743 H   0  0  0  0  0  0  0  0  0  0  0  0
    8.4535    9.4992   25.3546 H   0  0  0  0  0  0  0  0  0  0  0  0
    6.9158    9.6368   22.0125 H   0  0  0  0  0  0  0  0  0  0  0  0
    8.0332   10.7627   21.2181 H   0  0  0  0  0  0  0  0  0  0  0  0
    6.9328   11.3480   22.4808 H   0  0  0  0  0  0  0  0  0  0  0  0
    8.5071    8.1067   22.7731 H   0  0  0  0  0  0  0  0  0  0  0  0
    9.8907    8.5741   23.7803 H   0  0  0  0  0  0  0  0  0  0  0  0
    9.8912    8.9447   22.0452 H   0  0  0  0  0  0  0  0  0  0  0  0
   12.6029   10.7043   22.2676 H   0  0  0  0  0  0  0  0  0  0  0  0
   11.0067   10.1122   21.6951 H   0  0  0  0  0  0  0  0  0  0  0  0
   11.3933   11.8649   21.6225 H   0  0  0  0  0  0  0  0  0  0  0  0
   12.7630   11.8733   24.3075 H   0  0  0  0  0  0  0  0  0  0  0  0
   11.3299   12.2032   25.2817 H   0  0  0  0  0  0  0  0  0  0  0  0
  1  3  1  0  0  0  0
  1  5  2  0  0  0  0
  2  4  2  0  0  0  0
  2  5  1  0  0  0  0
  3  6  2  0  0  0  0
  4  6  1  0  0  0  0
  5  7  1  0  0  0  0
  6 24  1  0  0  0  0
  7 19  2  0  0  0  0
  7 22  1  0  0  0  0
  8 18  1  0  0  0  0
  8 20  2  0  0  0  0
  8 22  1  0  0  0  0
  9 10  1  0  0  0  0
  9 11  1  0  0  0  0
 10 23  1  0  0  0  0
 11 12  1  0  0  0  0
 11 13  1  0  0  0  0
 12 14  1  0  0  0  0
 12 21  1  0  0  0  0
 13 14  1  0  0  0  0
 13 23  1  0  0  0  0
 14 15  1  0  0  0  0
 14 16  1  0  0  0  0
 17 21  1  0  0  0  0
 18 21  1  0  0  0  0
 19 20  1  0  0  0  0
  1 25  1  0  0  0  0
  2 26  1  0  0  0  0
  3 27  1  0  0  0  0
  4 28  1  0  0  0  0
  9 29  1  0  0  0  0
  9 30  1  0  0  0  0
 10 31  1  0  0  0  0
 10 32  1  0  0  0  0
 11 33  1  0  0  0  0
 12 34  1  0  0  0  0
 13 35  1  0  0  0  0
 15 36  1  0  0  0  0
 15 37  1  0  0  0  0
 15 38  1  0  0  0  0
 16 39  1  0  0  0  0
 16 40  1  0  0  0  0
 16 41  1  0  0  0  0
 17 42  1  0  0  0  0
 17 43  1  0  0  0  0
 17 44  1  0  0  0  0
 18 45  1  0  0  0  0
 18 46  1  0  0  0  0
M  END
> <Catalog ID>
Z1299484172

> <PlateID>
1041831-R-41

> <Well>
E10

> <MW (desalted)>
331.385

> <ClogP>
1.683

> <HBD>
0

> <TPSA>
51.390

> <RotBonds>
4

> <ROCS_ShapeQuery>
A71EV2A-x0451_0A_A71EV2A-x0310_0A_A71EV2A-x0416_0A_peptide

> <ROCS_TanimotoCombo>
0.568 

> <ROCS_ShapeTanimoto>
0.345 

> <ROCS_ColorTanimoto>
0.223 

> <ROCS_RefTversky>
0.309 

> <ROCS_RefColorTversky>
0.263 

> <ROCS_RefTverskyCombo>
0.572 

> <ROCS_FitTversky>
1.524 

> <ROCS_FitColorTversky>
0.592 

> <ROCS_FitTverskyCombo>
2.116 

> <ROCS_ColorScore>
-8.093

> <ROCS_Overlap>
2145.643

> <ROCS_Rank>
19                  

$$$$
untitled-dbase-1437_7284
  -OEChem-11132311063D

 50 53  0     0  0  0  0  0  0999 V2000
    5.8376   13.5774   26.7918 C   0  0  0  0  0  0  0  0  0  0  0  0
    8.1107   12.7859   24.9521 C   0  0  0  0  0  0  0  0  0  0  0  0
    9.8758   10.1570   22.8878 C   0  0  0  0  0  0  0  0  0  0  0  0
    9.1082   11.0188   23.6962 C   0  0  0  0  0  0  0  0  0  0  0  0
    6.0793   12.3067   26.2171 C   0  0  0  0  0  0  0  0  0  0  0  0
    9.1327   12.3582   24.1045 C   0  0  0  0  0  0  0  0  0  0  0  0
    7.1347   11.8750   25.3423 C   0  0  0  0  0  0  0  0  0  0  0  0
    4.6963   13.4438   27.5478 C   0  0  0  0  0  0  0  0  0  0  0  0
    5.0685   11.4873   26.6631 C   0  0  0  0  0  0  0  0  0  0  0  0
    8.0767   10.2173   24.1597 C   0  0  0  0  0  0  0  0  0  0  0  0
   10.1743   13.2686   23.6673 C   0  0  0  0  0  0  0  0  0  0  0  0
   12.1183   15.6618   20.0245 C   0  0  0  0  0  0  0  0  0  0  0  0
   10.9762   14.7991   19.5778 C   0  0  0  0  0  0  0  0  0  0  0  0
   11.2570   14.9682   21.0497 C   0  0  0  0  0  0  0  0  0  0  0  0
    3.9274   14.3777   28.3825 C   0  0  0  0  0  0  0  0  0  0  0  0
    4.7367   10.0704   26.4438 C   0  0  0  0  0  0  0  0  0  0  0  0
    7.3279    7.4395   25.2855 C   0  0  0  0  0  0  0  0  0  0  0  0
    7.9830    6.6214   22.9817 C   0  0  0  0  0  0  0  0  0  0  0  0
   11.8057   13.8332   21.8455 C   0  0  0  0  0  0  0  0  0  0  0  0
    7.4748    7.8049   23.8071 C   0  0  0  0  0  0  0  0  0  0  0  0
    9.3809    8.9158   22.8379 N   0  0  0  0  0  0  0  0  0  0  0  0
    7.0681   10.5724   24.9748 N   0  0  0  0  0  0  0  0  0  0  0  0
    8.2884    8.9829   23.6201 N   0  0  0  0  0  0  0  0  0  0  0  0
   10.7443   13.0306   22.4095 N   0  0  0  0  0  0  0  0  0  0  0  0
   10.5484   14.2040   24.3998 O   0  0  0  0  0  0  0  0  0  0  0  0
    4.2213   12.1728   27.4748 O   0  0  0  0  0  0  0  0  0  0  0  0
    6.4210   14.4795   26.6713 H   0  0  0  0  0  0  0  0  0  0  0  0
    8.0834   13.8168   25.2972 H   0  0  0  0  0  0  0  0  0  0  0  0
   10.7758   10.3783   22.3316 H   0  0  0  0  0  0  0  0  0  0  0  0
   13.1226   15.2932   19.8562 H   0  0  0  0  0  0  0  0  0  0  0  0
   12.0113   16.7346   19.9198 H   0  0  0  0  0  0  0  0  0  0  0  0
   10.0997   15.2906   19.1738 H   0  0  0  0  0  0  0  0  0  0  0  0
   11.2133   13.8506   19.1120 H   0  0  0  0  0  0  0  0  0  0  0  0
   10.5719   15.5778   21.6261 H   0  0  0  0  0  0  0  0  0  0  0  0
    3.1458   14.8933   27.7964 H   0  0  0  0  0  0  0  0  0  0  0  0
    3.4254   13.8706   29.2273 H   0  0  0  0  0  0  0  0  0  0  0  0
    4.5659   15.1572   28.8383 H   0  0  0  0  0  0  0  0  0  0  0  0
    5.2165    9.4239   27.1992 H   0  0  0  0  0  0  0  0  0  0  0  0
    3.6486    9.8836   26.4907 H   0  0  0  0  0  0  0  0  0  0  0  0
    5.0605    9.7142   25.4490 H   0  0  0  0  0  0  0  0  0  0  0  0
    8.2894    7.1755   25.7387 H   0  0  0  0  0  0  0  0  0  0  0  0
    6.6571    6.5820   25.4048 H   0  0  0  0  0  0  0  0  0  0  0  0
    6.9093    8.2769   25.8548 H   0  0  0  0  0  0  0  0  0  0  0  0
    8.9854    6.3209   23.3061 H   0  0  0  0  0  0  0  0  0  0  0  0
    8.0379    6.8879   21.9208 H   0  0  0  0  0  0  0  0  0  0  0  0
    7.3277    5.7485   23.0722 H   0  0  0  0  0  0  0  0  0  0  0  0
   12.4243   13.2017   21.1909 H   0  0  0  0  0  0  0  0  0  0  0  0
   12.4255   14.2334   22.6614 H   0  0  0  0  0  0  0  0  0  0  0  0
    6.4730    8.0540   23.4338 H   0  0  0  0  0  0  0  0  0  0  0  0
   10.4484   12.2179   21.8787 H   0  0  0  0  0  0  0  0  0  0  0  0
  1  5  1  0  0  0  0
  1  8  2  0  0  0  0
  2  6  1  0  0  0  0
  2  7  2  0  0  0  0
  3  4  1  0  0  0  0
  3 21  2  0  0  0  0
  4  6  2  0  0  0  0
  4 10  1  0  0  0  0
  5  7  1  0  0  0  0
  5  9  2  0  0  0  0
  6 11  1  0  0  0  0
  7 22  1  0  0  0  0
  8 15  1  0  0  0  0
  8 26  1  0  0  0  0
  9 16  1  0  0  0  0
  9 26  1  0  0  0  0
 10 22  2  0  0  0  0
 10 23  1  0  0  0  0
 11 24  1  0  0  0  0
 11 25  2  0  0  0  0
 12 13  1  0  0  0  0
 12 14  1  0  0  0  0
 13 14  1  0  0  0  0
 14 19  1  0  0  0  0
 17 20  1  0  0  0  0
 18 20  1  0  0  0  0
 19 24  1  0  0  0  0
 20 23  1  0  0  0  0
 21 23  1  0  0  0  0
  1 27  1  0  0  0  0
  2 28  1  0  0  0  0
  3 29  1  0  0  0  0
 12 30  1  0  0  0  0
 12 31  1  0  0  0  0
 13 32  1  0  0  0  0
 13 33  1  0  0  0  0
 14 34  1  0  0  0  0
 15 35  1  0  0  0  0
 15 36  1  0  0  0  0
 15 37  1  0  0  0  0
 16 38  1  0  0  0  0
 16 39  1  0  0  0  0
 16 40  1  0  0  0  0
 17 41  1  0  0  0  0
 17 42  1  0  0  0  0
 17 43  1  0  0  0  0
 18 44  1  0  0  0  0
 18 45  1  0  0  0  0
 18 46  1  0  0  0  0
 19 47  1  0  0  0  0
 19 48  1  0  0  0  0
 20 49  1  0  0  0  0
 24 50  1  0  0  0  0
M  END
> <Catalog ID>
Z288784212

> <PlateID>
1041831-R-18

> <Well>
H08

> <MW (desalted)>
352.430

> <ClogP>
3.753

> <HBD>
1

> <TPSA>
72.950

> <RotBonds>
5

> <ROCS_ShapeQuery>
A71EV2A-x0451_0A_A71EV2A-x0310_0A_A71EV2A-x0416_0A_peptide

> <ROCS_TanimotoCombo>
0.568 

> <ROCS_ShapeTanimoto>
0.387 

> <ROCS_ColorTanimoto>
0.180 

> <ROCS_RefTversky>
0.339 

> <ROCS_RefColorTversky>
0.204 

> <ROCS_RefTverskyCombo>
0.543 

> <ROCS_FitTversky>
1.573 

> <ROCS_FitColorTversky>
0.613 

> <ROCS_FitTverskyCombo>
2.187 

> <ROCS_ColorScore>
-6.227

> <ROCS_Overlap>
2360.864

> <ROCS_Rank>
20                  

$$$$
untitled-dbase-680_5149
  -OEChem-11132311063D

 45 48  0     1  0  0  0  0  0999 V2000
   10.9711   16.4788   16.9224 C   0  0  0  0  0  0  0  0  0  0  0  0
   11.6868   17.6398   16.6370 C   0  0  0  0  0  0  0  0  0  0  0  0
    9.5516    9.5224   23.4451 C   0  0  0  0  0  0  0  0  0  0  0  0
   11.3455   15.6497   17.9861 C   0  0  0  0  0  0  0  0  0  0  0  0
   10.2270   10.7240   23.2289 C   0  0  0  0  0  0  0  0  0  0  0  0
   12.7965   18.0090   17.4026 C   0  0  0  0  0  0  0  0  0  0  0  0
    8.3518    9.5123   24.1570 C   0  0  0  0  0  0  0  0  0  0  0  0
   14.1656   16.2225   20.2398 C   0  0  0  0  0  0  0  0  0  0  0  0
   12.4609   16.0015   18.7720 C   0  0  0  0  0  0  0  0  0  0  0  0
    9.6995   11.9206   23.7149 C   0  0  0  0  0  0  0  0  0  0  0  0
   13.1071   15.4139   19.8954 C   0  0  0  0  0  0  0  0  0  0  0  0
   13.1592   17.1707   18.4627 C   0  0  0  0  0  0  0  0  0  0  0  0
    7.8303   10.7067   24.6548 C   0  0  0  0  0  0  0  0  0  0  0  0
    8.4928   11.9132   24.4151 C   0  0  0  0  0  0  0  0  0  0  0  0
   10.4219   13.1609   23.4629 C   0  0  0  0  0  0  0  0  0  0  0  0
   12.9596   14.7402   23.0071 C   0  0  0  0  0  0  0  0  0  0  0  0
    6.4065   11.8259   26.1061 C   0  0  0  0  0  0  0  0  0  0  0  0
    6.6399   13.0447   25.2349 C   0  0  0  0  0  0  0  0  0  0  0  0
   12.7127   14.1335   20.5916 C   0  0  0  0  0  0  0  0  0  0  0  0
   11.9689   14.3746   21.9116 C   0  0  1  0  0  0  0  0  0  0  0  0
   14.1888   17.2796   19.3702 N   0  0  0  0  0  0  0  0  0  0  0  0
   11.1798   13.2242   22.2893 N   0  0  0  0  0  0  0  0  0  0  0  0
   10.3678   14.0965   24.2784 O   0  0  0  0  0  0  0  0  0  0  0  0
   13.5108   13.9036   23.7149 O   0  0  0  0  0  0  0  0  0  0  0  0
    6.6596   10.6301   25.3633 O   0  0  0  0  0  0  0  0  0  0  0  0
    8.0149   13.1221   24.8492 O   0  0  0  0  0  0  0  0  0  0  0  0
   13.1960   16.0673   23.1405 O   0  0  0  0  0  0  0  0  0  0  0  0
   10.1114   16.2129   16.3131 H   0  0  0  0  0  0  0  0  0  0  0  0
   11.3784   18.2691   15.8061 H   0  0  0  0  0  0  0  0  0  0  0  0
    9.9623    8.5930   23.0615 H   0  0  0  0  0  0  0  0  0  0  0  0
   10.7767   14.7484   18.1963 H   0  0  0  0  0  0  0  0  0  0  0  0
   11.1624   10.7144   22.6755 H   0  0  0  0  0  0  0  0  0  0  0  0
   13.3536   18.9124   17.1790 H   0  0  0  0  0  0  0  0  0  0  0  0
    7.8367    8.5709   24.3280 H   0  0  0  0  0  0  0  0  0  0  0  0
   14.9037   16.1422   21.0260 H   0  0  0  0  0  0  0  0  0  0  0  0
    7.0542   11.8320   26.9916 H   0  0  0  0  0  0  0  0  0  0  0  0
    5.3660   11.7938   26.4441 H   0  0  0  0  0  0  0  0  0  0  0  0
    6.0228   13.0177   24.3283 H   0  0  0  0  0  0  0  0  0  0  0  0
    6.3971   13.9583   25.7864 H   0  0  0  0  0  0  0  0  0  0  0  0
   13.6245   13.5470   20.7673 H   0  0  0  0  0  0  0  0  0  0  0  0
   12.0992   13.5192   19.9185 H   0  0  0  0  0  0  0  0  0  0  0  0
   11.2648   15.2104   21.8265 H   0  0  0  0  0  0  0  0  0  0  0  0
   14.8638   18.0316   19.3906 H   0  0  0  0  0  0  0  0  0  0  0  0
   11.2386   12.4072   21.6903 H   0  0  0  0  0  0  0  0  0  0  0  0
   12.6977   16.6390   22.5192 H   0  0  0  0  0  0  0  0  0  0  0  0
  1  2  2  0  0  0  0
  1  4  1  0  0  0  0
  2  6  1  0  0  0  0
  3  5  1  0  0  0  0
  3  7  2  0  0  0  0
  4  9  2  0  0  0  0
  5 10  2  0  0  0  0
  6 12  2  0  0  0  0
  7 13  1  0  0  0  0
  8 11  2  0  0  0  0
  8 21  1  0  0  0  0
  9 11  1  0  0  0  0
  9 12  1  0  0  0  0
 10 14  1  0  0  0  0
 10 15  1  0  0  0  0
 11 19  1  0  0  0  0
 12 21  1  0  0  0  0
 13 14  2  0  0  0  0
 13 25  1  0  0  0  0
 14 26  1  0  0  0  0
 15 22  1  0  0  0  0
 15 23  2  0  0  0  0
 16 20  1  0  0  0  0
 16 24  2  0  0  0  0
 16 27  1  0  0  0  0
 17 18  1  0  0  0  0
 17 25  1  0  0  0  0
 18 26  1  0  0  0  0
 19 20  1  0  0  0  0
 20 22  1  0  0  0  0
  1 28  1  0  0  0  0
  2 29  1  0  0  0  0
  3 30  1  0  0  0  0
  4 31  1  0  0  0  0
  5 32  1  0  0  0  0
  6 33  1  0  0  0  0
  7 34  1  0  0  0  0
  8 35  1  0  0  0  0
 17 36  1  0  0  0  0
 17 37  1  0  0  0  0
 18 38  1  0  0  0  0
 18 39  1  0  0  0  0
 19 40  1  0  0  0  0
 19 41  1  0  0  0  0
 20 42  1  0  0  0  0
 21 43  1  0  0  0  0
 22 44  1  0  0  0  0
 27 45  1  0  0  0  0
M  END
> <Catalog ID>
Z440624296

> <PlateID>
1041831-R-09

> <Well>
D11

> <MW (desalted)>
366.367

> <ClogP>
2.516

> <HBD>
3

> <TPSA>
100.650

> <RotBonds>
5

> <ROCS_ShapeQuery>
A71EV2A-x0451_0A_A71EV2A-x0310_0A_A71EV2A-x0416_0A_peptide

> <ROCS_TanimotoCombo>
0.568 

> <ROCS_ShapeTanimoto>
0.362 

> <ROCS_ColorTanimoto>
0.206 

> <ROCS_RefTversky>
0.325 

> <ROCS_RefColorTversky>
0.243 

> <ROCS_RefTverskyCombo>
0.568 

> <ROCS_FitTversky>
1.452 

> <ROCS_FitColorTversky>
0.574 

> <ROCS_FitTverskyCombo>
2.026 

> <ROCS_ColorScore>
-7.471

> <ROCS_Overlap>
2261.365

> <ROCS_Rank>
21                  

$$$$
untitled-dbase-2000_0
  -OEChem-11132311063D

 50 54  0     1  0  0  0  0  0999 V2000
   12.8616   15.5638   20.7262 C   0  0  0  0  0  0  0  0  0  0  0  0
   12.7018   14.8849   19.5518 C   0  0  0  0  0  0  0  0  0  0  0  0
   11.4749   14.0546   21.3949 C   0  0  0  0  0  0  0  0  0  0  0  0
   10.2805   13.3781   23.5020 C   0  0  0  0  0  0  0  0  0  0  0  0
    9.9128    8.0388   22.7651 C   0  0  0  0  0  0  0  0  0  0  0  0
   13.7935   16.6997   20.5905 C   0  0  0  0  0  0  0  0  0  0  0  0
   13.4850   15.4331   18.4282 C   0  0  0  0  0  0  0  0  0  0  0  0
   13.9376   16.8057   19.0336 C   0  0  0  0  0  0  0  0  0  0  0  0
    6.6937   11.5484   25.0589 C   0  0  0  0  0  0  0  0  0  0  0  0
    8.0115   12.4206   23.1117 C   0  0  0  0  0  0  0  0  0  0  0  0
    8.9789   12.5129   25.4281 C   0  0  0  0  0  0  0  0  0  0  0  0
    7.6365    9.9549   23.3677 C   0  0  0  0  0  0  0  0  0  0  0  0
    8.6032   10.0470   25.6838 C   0  0  0  0  0  0  0  0  0  0  0  0
    9.9257   10.9193   23.7342 C   0  0  0  0  0  0  0  0  0  0  0  0
    7.0106   11.3458   23.5679 C   0  0  1  0  0  0  0  0  0  0  0  0
    7.9812   11.4384   25.8926 C   0  0  2  0  0  0  0  0  0  0  0  0
    9.3095   12.3173   23.9356 C   0  0  0  0  0  0  0  0  0  0  0  0
    8.9360    9.8249   24.1927 C   0  0  0  0  0  0  0  0  0  0  0  0
   10.4861    6.6610   22.8007 C   0  0  0  0  0  0  0  0  0  0  0  0
   12.1663   15.1065   21.8043 N   0  0  0  0  0  0  0  0  0  0  0  0
   10.6009   13.2436   22.1571 N   0  0  0  0  0  0  0  0  0  0  0  0
    9.5157    8.5138   23.9997 N   0  0  0  0  0  0  0  0  0  0  0  0
   10.6867   14.2203   24.2961 O   0  0  0  0  0  0  0  0  0  0  0  0
    9.8355    8.6336   21.6964 O   0  0  0  0  0  0  0  0  0  0  0  0
   11.6474   13.5998   19.7234 S   0  0  0  0  0  0  0  0  0  0  0  0
   13.4008   17.6267   21.0166 H   0  0  0  0  0  0  0  0  0  0  0  0
   14.7588   16.4648   21.0496 H   0  0  0  0  0  0  0  0  0  0  0  0
   14.3552   14.8051   18.2122 H   0  0  0  0  0  0  0  0  0  0  0  0
   12.8978   15.5781   17.5178 H   0  0  0  0  0  0  0  0  0  0  0  0
   13.2645   17.5931   18.6685 H   0  0  0  0  0  0  0  0  0  0  0  0
   14.9538   17.0764   18.7301 H   0  0  0  0  0  0  0  0  0  0  0  0
    6.2309   12.5309   25.2130 H   0  0  0  0  0  0  0  0  0  0  0  0
    5.9663   10.7981   25.3925 H   0  0  0  0  0  0  0  0  0  0  0  0
    8.2280   12.3016   22.0419 H   0  0  0  0  0  0  0  0  0  0  0  0
    7.5637   13.4168   23.2246 H   0  0  0  0  0  0  0  0  0  0  0  0
    8.5573   13.5124   25.5981 H   0  0  0  0  0  0  0  0  0  0  0  0
    9.8940   12.4600   26.0326 H   0  0  0  0  0  0  0  0  0  0  0  0
    6.9160    9.1832   23.6686 H   0  0  0  0  0  0  0  0  0  0  0  0
    7.8452    9.7977   22.3014 H   0  0  0  0  0  0  0  0  0  0  0  0
    9.5113    9.9564   26.2941 H   0  0  0  0  0  0  0  0  0  0  0  0
    7.9035    9.2784   26.0373 H   0  0  0  0  0  0  0  0  0  0  0  0
   10.1886   10.7774   22.6766 H   0  0  0  0  0  0  0  0  0  0  0  0
   10.8655   10.8381   24.2978 H   0  0  0  0  0  0  0  0  0  0  0  0
    6.0894   11.4250   22.9800 H   0  0  0  0  0  0  0  0  0  0  0  0
    7.7485   11.5840   26.9534 H   0  0  0  0  0  0  0  0  0  0  0  0
    9.7186    5.8825   22.6621 H   0  0  0  0  0  0  0  0  0  0  0  0
   11.2216    6.4907   21.9982 H   0  0  0  0  0  0  0  0  0  0  0  0
   11.0072    6.3913   23.7331 H   0  0  0  0  0  0  0  0  0  0  0  0
   10.1628   12.4779   21.6493 H   0  0  0  0  0  0  0  0  0  0  0  0
    9.6364    7.9145   24.8100 H   0  0  0  0  0  0  0  0  0  0  0  0
  1  2  2  0  0  0  0
  1  6  1  0  0  0  0
  1 20  1  0  0  0  0
  2  7  1  0  0  0  0
  2 25  1  0  0  0  0
  3 20  2  0  0  0  0
  3 21  1  0  0  0  0
  3 25  1  0  0  0  0
  4 17  1  0  0  0  0
  4 21  1  0  0  0  0
  4 23  2  0  0  0  0
  5 19  1  0  0  0  0
  5 22  1  0  0  0  0
  5 24  2  0  0  0  0
  6  8  1  0  0  0  0
  7  8  1  0  0  0  0
  9 15  1  0  0  0  0
  9 16  1  0  0  0  0
 10 15  1  0  0  0  0
 10 17  1  0  0  0  0
 11 16  1  0  0  0  0
 11 17  1  0  0  0  0
 12 15  1  0  0  0  0
 12 18  1  0  0  0  0
 13 16  1  0  0  0  0
 13 18  1  0  0  0  0
 14 17  1  0  0  0  0
 14 18  1  0  0  0  0
 18 22  1  0  0  0  0
  6 26  1  0  0  0  0
  6 27  1  0  0  0  0
  7 28  1  0  0  0  0
  7 29  1  0  0  0  0
  8 30  1  0  0  0  0
  8 31  1  0  0  0  0
  9 32  1  0  0  0  0
  9 33  1  0  0  0  0
 10 34  1  0  0  0  0
 10 35  1  0  0  0  0
 11 36  1  0  0  0  0
 11 37  1  0  0  0  0
 12 38  1  0  0  0  0
 12 39  1  0  0  0  0
 13 40  1  0  0  0  0
 13 41  1  0  0  0  0
 14 42  1  0  0  0  0
 14 43  1  0  0  0  0
 15 44  1  0  0  0  0
 16 45  1  0  0  0  0
 19 46  1  0  0  0  0
 19 47  1  0  0  0  0
 19 48  1  0  0  0  0
 21 49  1  0  0  0  0
 22 50  1  0  0  0  0
M  END
> <Catalog ID>
Z109954778

> <PlateID>
1041831-R-25

> <Well>
H11

> <MW (desalted)>
359.486

> <ClogP>
2.512

> <HBD>
2

> <TPSA>
71.090

> <RotBonds>
3

> <ROCS_ShapeQuery>
A71EV2A-x0451_0A_A71EV2A-x0310_0A_A71EV2A-x0416_0A_peptide

> <ROCS_TanimotoCombo>
0.567 

> <ROCS_ShapeTanimoto>
0.344 

> <ROCS_ColorTanimoto>
0.223 

> <ROCS_RefTversky>
0.309 

> <ROCS_RefColorTversky>
0.267 

> <ROCS_RefTverskyCombo>
0.577 

> <ROCS_FitTversky>
1.486 

> <ROCS_FitColorTversky>
0.571 

> <ROCS_FitTverskyCombo>
2.058 

> <ROCS_ColorScore>
-8.235

> <ROCS_Overlap>
2151.783

> <ROCS_Rank>
22                  

$$$$
untitled-dbase-1360_895
  -OEChem-11132311063D

 49 52  0     1  0  0  0  0  0999 V2000
   10.1170   10.9653   22.8337 C   0  0  0  0  0  0  0  0  0  0  0  0
    8.6031   11.8895   24.4302 C   0  0  0  0  0  0  0  0  0  0  0  0
    9.7157   12.0615   23.5973 C   0  0  0  0  0  0  0  0  0  0  0  0
    9.4031    9.7760   22.9368 C   0  0  0  0  0  0  0  0  0  0  0  0
    7.8523   12.6546   25.3448 C   0  0  0  0  0  0  0  0  0  0  0  0
   11.7071   15.3906   19.5184 C   0  0  0  0  0  0  0  0  0  0  0  0
   12.3225   14.9089   20.6548 C   0  0  0  0  0  0  0  0  0  0  0  0
    7.9827   10.6500   24.4376 C   0  0  0  0  0  0  0  0  0  0  0  0
   13.6144   14.7777   18.6259 C   0  0  0  0  0  0  0  0  0  0  0  0
   10.4313   13.3215   23.5220 C   0  0  0  0  0  0  0  0  0  0  0  0
    9.0389    7.3526   22.1192 C   0  0  0  0  0  0  0  0  0  0  0  0
   10.3725    7.3845   22.7979 C   0  0  0  0  0  0  0  0  0  0  0  0
    9.8543    8.6170   22.1078 C   0  0  0  0  0  0  0  0  0  0  0  0
    8.0618   14.0588   25.7405 C   0  0  0  0  0  0  0  0  0  0  0  0
   10.3508   15.9715   19.4444 C   0  0  0  0  0  0  0  0  0  0  0  0
   14.6786   14.5380   17.6268 C   0  0  0  0  0  0  0  0  0  0  0  0
   12.9453   14.9539   23.1047 C   0  0  0  0  0  0  0  0  0  0  0  0
    6.0021    9.7194   25.6689 C   0  0  0  0  0  0  0  0  0  0  0  0
   11.8188   14.8362   22.0801 C   0  0  2  0  0  0  0  0  0  0  0  0
    8.3230    9.5610   23.7264 N   0  0  0  0  0  0  0  0  0  0  0  0
   12.4465   15.3166   18.3541 N   0  0  0  0  0  0  0  0  0  0  0  0
    6.8423   11.9676   25.8887 N   0  0  0  0  0  0  0  0  0  0  0  0
    6.9469   10.7535   25.3185 N   0  0  0  0  0  0  0  0  0  0  0  0
   11.0510   13.6325   22.3044 N   0  0  0  0  0  0  0  0  0  0  0  0
   10.4995   14.0728   24.5131 O   0  0  0  0  0  0  0  0  0  0  0  0
   13.8903   14.3358   20.2610 S   0  0  0  0  0  0  0  0  0  0  0  0
   10.9741   11.0417   22.1699 H   0  0  0  0  0  0  0  0  0  0  0  0
    8.9600    6.8043   21.1878 H   0  0  0  0  0  0  0  0  0  0  0  0
    8.1569    7.2949   22.7455 H   0  0  0  0  0  0  0  0  0  0  0  0
   10.3866    7.3502   23.8809 H   0  0  0  0  0  0  0  0  0  0  0  0
   11.1925    6.8569   22.3255 H   0  0  0  0  0  0  0  0  0  0  0  0
   10.3253    8.8816   21.1715 H   0  0  0  0  0  0  0  0  0  0  0  0
    7.5019   14.7465   25.0845 H   0  0  0  0  0  0  0  0  0  0  0  0
    7.7384   14.2512   26.7786 H   0  0  0  0  0  0  0  0  0  0  0  0
    9.1265   14.3489   25.6964 H   0  0  0  0  0  0  0  0  0  0  0  0
   10.3770   17.0607   19.6091 H   0  0  0  0  0  0  0  0  0  0  0  0
    9.8776   15.7910   18.4646 H   0  0  0  0  0  0  0  0  0  0  0  0
    9.6730   15.5338   20.1965 H   0  0  0  0  0  0  0  0  0  0  0  0
   15.3492   15.4080   17.5489 H   0  0  0  0  0  0  0  0  0  0  0  0
   15.2930   13.6598   17.8840 H   0  0  0  0  0  0  0  0  0  0  0  0
   14.2640   14.3402   16.6248 H   0  0  0  0  0  0  0  0  0  0  0  0
   13.6795   14.1508   22.9779 H   0  0  0  0  0  0  0  0  0  0  0  0
   13.4670   15.9112   22.9935 H   0  0  0  0  0  0  0  0  0  0  0  0
   12.5702   14.9095   24.1334 H   0  0  0  0  0  0  0  0  0  0  0  0
    6.4064    9.1682   26.5220 H   0  0  0  0  0  0  0  0  0  0  0  0
    5.0427   10.1755   25.9285 H   0  0  0  0  0  0  0  0  0  0  0  0
    5.8620    9.0529   24.8133 H   0  0  0  0  0  0  0  0  0  0  0  0
   11.1199   15.6630   22.2570 H   0  0  0  0  0  0  0  0  0  0  0  0
   11.0190   12.9577   21.5471 H   0  0  0  0  0  0  0  0  0  0  0  0
  1  3  1  0  0  0  0
  1  4  2  0  0  0  0
  2  3  2  0  0  0  0
  2  5  1  0  0  0  0
  2  8  1  0  0  0  0
  3 10  1  0  0  0  0
  4 13  1  0  0  0  0
  4 20  1  0  0  0  0
  5 14  1  0  0  0  0
  5 22  2  0  0  0  0
  6  7  2  0  0  0  0
  6 15  1  0  0  0  0
  6 21  1  0  0  0  0
  7 19  1  0  0  0  0
  7 26  1  0  0  0  0
  8 20  2  0  0  0  0
  8 23  1  0  0  0  0
  9 16  1  0  0  0  0
  9 21  2  0  0  0  0
  9 26  1  0  0  0  0
 10 24  1  0  0  0  0
 10 25  2  0  0  0  0
 11 12  1  0  0  0  0
 11 13  1  0  0  0  0
 12 13  1  0  0  0  0
 17 19  1  0  0  0  0
 18 23  1  0  0  0  0
 19 24  1  0  0  0  0
 22 23  1  0  0  0  0
  1 27  1  0  0  0  0
 11 28  1  0  0  0  0
 11 29  1  0  0  0  0
 12 30  1  0  0  0  0
 12 31  1  0  0  0  0
 13 32  1  0  0  0  0
 14 33  1  0  0  0  0
 14 34  1  0  0  0  0
 14 35  1  0  0  0  0
 15 36  1  0  0  0  0
 15 37  1  0  0  0  0
 15 38  1  0  0  0  0
 16 39  1  0  0  0  0
 16 40  1  0  0  0  0
 16 41  1  0  0  0  0
 17 42  1  0  0  0  0
 17 43  1  0  0  0  0
 17 44  1  0  0  0  0
 18 45  1  0  0  0  0
 18 46  1  0  0  0  0
 18 47  1  0  0  0  0
 19 48  1  0  0  0  0
 24 49  1  0  0  0  0
M  END
> <Catalog ID>
Z740618424

> <PlateID>
1041831-R-17

> <Well>
H11

> <MW (desalted)>
369.484

> <ClogP>
2.981

> <HBD>
1

> <TPSA>
72.700

> <RotBonds>
4

> <ROCS_ShapeQuery>
A71EV2A-x0451_0A_A71EV2A-x0310_0A_A71EV2A-x0416_0A_peptide

> <ROCS_TanimotoCombo>
0.567 

> <ROCS_ShapeTanimoto>
0.373 

> <ROCS_ColorTanimoto>
0.194 

> <ROCS_RefTversky>
0.330 

> <ROCS_RefColorTversky>
0.211 

> <ROCS_RefTverskyCombo>
0.541 

> <ROCS_FitTversky>
1.549 

> <ROCS_FitColorTversky>
0.701 

> <ROCS_FitTverskyCombo>
2.250 

> <ROCS_ColorScore>
-6.451

> <ROCS_Overlap>
2291.719

> <ROCS_Rank>
23                  

$$$$
untitled-dbase-960_225
  -OEChem-11132311063D

 54 58  0     1  0  0  0  0  0999 V2000
   11.3946    7.0263   21.0058 C   0  0  0  0  0  0  0  0  0  0  0  0
   11.4731    8.3761   21.4242 C   0  0  0  0  0  0  0  0  0  0  0  0
   10.5217   10.9632   22.8556 C   0  0  0  0  0  0  0  0  0  0  0  0
   10.2134    6.5372   21.5132 C   0  0  0  0  0  0  0  0  0  0  0  0
    8.7582   11.8805   24.1761 C   0  0  0  0  0  0  0  0  0  0  0  0
    9.9901   12.0597   23.5347 C   0  0  0  0  0  0  0  0  0  0  0  0
    9.8125    9.7667   22.8503 C   0  0  0  0  0  0  0  0  0  0  0  0
   10.3341    8.6157   22.1572 C   0  0  0  0  0  0  0  0  0  0  0  0
    7.8604   12.6428   24.9497 C   0  0  0  0  0  0  0  0  0  0  0  0
    8.1573   10.6342   24.0919 C   0  0  0  0  0  0  0  0  0  0  0  0
   10.7119   13.3578   23.5664 C   0  0  0  0  0  0  0  0  0  0  0  0
   13.7140   15.7606   18.3247 C   0  0  0  0  0  0  0  0  0  0  0  0
   12.8371   14.5179   18.5407 C   0  0  0  0  0  0  0  0  0  0  0  0
   11.7952   16.3710   19.5940 C   0  0  0  0  0  0  0  0  0  0  0  0
   13.8328   16.1423   20.8009 C   0  0  0  0  0  0  0  0  0  0  0  0
   13.2836   16.6911   19.4713 C   0  0  1  0  0  0  0  0  0  0  0  0
   12.0386   14.8755   19.8084 C   0  0  2  0  0  0  0  0  0  0  0  0
   13.0083   14.8545   21.0144 C   0  0  2  0  0  0  0  0  0  0  0  0
    7.9868   14.0527   25.3596 C   0  0  0  0  0  0  0  0  0  0  0  0
   13.2603   14.9095   23.5203 C   0  0  0  0  0  0  0  0  0  0  0  0
    6.0114    9.6894   24.9910 C   0  0  0  0  0  0  0  0  0  0  0  0
   12.2841   14.8475   22.3561 C   0  0  2  0  0  0  0  0  0  0  0  0
    8.6201    9.5446   23.4546 N   0  0  0  0  0  0  0  0  0  0  0  0
    6.7821   11.9480   25.3269 N   0  0  0  0  0  0  0  0  0  0  0  0
    6.9905   10.7316   24.7911 N   0  0  0  0  0  0  0  0  0  0  0  0
   11.4813   13.6062   22.4650 N   0  0  0  0  0  0  0  0  0  0  0  0
   10.5935   14.0863   24.5482 O   0  0  0  0  0  0  0  0  0  0  0  0
    9.5609    7.4998   22.2162 O   0  0  0  0  0  0  0  0  0  0  0  0
   12.1097    6.4787   20.4093 H   0  0  0  0  0  0  0  0  0  0  0  0
   12.2641    9.0823   21.2144 H   0  0  0  0  0  0  0  0  0  0  0  0
   11.4750   11.0493   22.3402 H   0  0  0  0  0  0  0  0  0  0  0  0
    9.7199    5.5775   21.4660 H   0  0  0  0  0  0  0  0  0  0  0  0
   14.7817   15.5217   18.3562 H   0  0  0  0  0  0  0  0  0  0  0  0
   13.4926   16.2121   17.3511 H   0  0  0  0  0  0  0  0  0  0  0  0
   12.1660   14.3774   17.6857 H   0  0  0  0  0  0  0  0  0  0  0  0
   13.4333   13.6076   18.6577 H   0  0  0  0  0  0  0  0  0  0  0  0
   11.3150   16.8658   20.4436 H   0  0  0  0  0  0  0  0  0  0  0  0
   11.2311   16.5889   18.6808 H   0  0  0  0  0  0  0  0  0  0  0  0
   14.9059   15.9314   20.7467 H   0  0  0  0  0  0  0  0  0  0  0  0
   13.6697   16.8649   21.6088 H   0  0  0  0  0  0  0  0  0  0  0  0
   13.5281   17.7410   19.2984 H   0  0  0  0  0  0  0  0  0  0  0  0
   11.1414   14.2670   19.9403 H   0  0  0  0  0  0  0  0  0  0  0  0
   13.6602   13.9733   20.9744 H   0  0  0  0  0  0  0  0  0  0  0  0
    7.5321   14.7277   24.6149 H   0  0  0  0  0  0  0  0  0  0  0  0
    7.4977   14.2494   26.3300 H   0  0  0  0  0  0  0  0  0  0  0  0
    9.0411   14.3567   25.4850 H   0  0  0  0  0  0  0  0  0  0  0  0
   13.9543   14.0624   23.4881 H   0  0  0  0  0  0  0  0  0  0  0  0
   12.7297   14.8767   24.4775 H   0  0  0  0  0  0  0  0  0  0  0  0
   13.8593   15.8266   23.4934 H   0  0  0  0  0  0  0  0  0  0  0  0
    6.2764    9.1482   25.9030 H   0  0  0  0  0  0  0  0  0  0  0  0
    5.0181   10.1366   25.0867 H   0  0  0  0  0  0  0  0  0  0  0  0
    6.0195    9.0160   24.1294 H   0  0  0  0  0  0  0  0  0  0  0  0
   11.6000   15.7005   22.4052 H   0  0  0  0  0  0  0  0  0  0  0  0
   11.5992   12.9573   21.7154 H   0  0  0  0  0  0  0  0  0  0  0  0
  1  2  1  0  0  0  0
  1  4  2  0  0  0  0
  2  8  2  0  0  0  0
  3  6  1  0  0  0  0
  3  7  2  0  0  0  0
  4 28  1  0  0  0  0
  5  6  2  0  0  0  0
  5  9  1  0  0  0  0
  5 10  1  0  0  0  0
  6 11  1  0  0  0  0
  7  8  1  0  0  0  0
  7 23  1  0  0  0  0
  8 28  1  0  0  0  0
  9 19  1  0  0  0  0
  9 24  2  0  0  0  0
 10 23  2  0  0  0  0
 10 25  1  0  0  0  0
 11 26  1  0  0  0  0
 11 27  2  0  0  0  0
 12 13  1  0  0  0  0
 12 16  1  0  0  0  0
 13 17  1  0  0  0  0
 14 16  1  0  0  0  0
 14 17  1  0  0  0  0
 15 16  1  0  0  0  0
 15 18  1  0  0  0  0
 17 18  1  0  0  0  0
 18 22  1  0  0  0  0
 20 22  1  0  0  0  0
 21 25  1  0  0  0  0
 22 26  1  0  0  0  0
 24 25  1  0  0  0  0
  1 29  1  0  0  0  0
  2 30  1  0  0  0  0
  3 31  1  0  0  0  0
  4 32  1  0  0  0  0
 12 33  1  0  0  0  0
 12 34  1  0  0  0  0
 13 35  1  0  0  0  0
 13 36  1  0  0  0  0
 14 37  1  0  0  0  0
 14 38  1  0  0  0  0
 15 39  1  0  0  0  0
 15 40  1  0  0  0  0
 16 41  1  0  0  0  0
 17 42  1  0  0  0  0
 18 43  1  0  0  0  0
 19 44  1  0  0  0  0
 19 45  1  0  0  0  0
 19 46  1  0  0  0  0
 20 47  1  0  0  0  0
 20 48  1  0  0  0  0
 20 49  1  0  0  0  0
 21 50  1  0  0  0  0
 21 51  1  0  0  0  0
 21 52  1  0  0  0  0
 22 53  1  0  0  0  0
 26 54  1  0  0  0  0
M  END
> <Catalog ID>
Z240187702

> <PlateID>
1041831-R-12

> <Well>
H11

> <MW (desalted)>
378.467

> <ClogP>
4.957

> <HBD>
1

> <TPSA>
72.950

> <RotBonds>
4

> <ROCS_ShapeQuery>
A71EV2A-x0451_0A_A71EV2A-x0310_0A_A71EV2A-x0416_0A_peptide

> <ROCS_TanimotoCombo>
0.567 

> <ROCS_ShapeTanimoto>
0.374 

> <ROCS_ColorTanimoto>
0.193 

> <ROCS_RefTversky>
0.335 

> <ROCS_RefColorTversky>
0.241 

> <ROCS_RefTverskyCombo>
0.576 

> <ROCS_FitTversky>
1.448 

> <ROCS_FitColorTversky>
0.489 

> <ROCS_FitTverskyCombo>
1.938 

> <ROCS_ColorScore>
-7.437

> <ROCS_Overlap>
2333.435

> <ROCS_Rank>
24                  

$$$$
untitled-dbase-754_3383
  -OEChem-11132311063D

 42 45  0     1  0  0  0  0  0999 V2000
   11.3768   17.5698   17.3038 C   0  0  0  0  0  0  0  0  0  0  0  0
   12.3890   18.5188   17.1751 C   0  0  0  0  0  0  0  0  0  0  0  0
    9.5084    9.4790   23.3972 C   0  0  0  0  0  0  0  0  0  0  0  0
   11.5047   16.5031   18.2008 C   0  0  0  0  0  0  0  0  0  0  0  0
   10.1558   10.7028   23.1524 C   0  0  0  0  0  0  0  0  0  0  0  0
   13.5584   18.4331   17.9361 C   0  0  0  0  0  0  0  0  0  0  0  0
    8.3474    9.4314   24.1727 C   0  0  0  0  0  0  0  0  0  0  0  0
   14.3743   15.8875   20.3796 C   0  0  0  0  0  0  0  0  0  0  0  0
   12.6747   16.3958   18.9787 C   0  0  0  0  0  0  0  0  0  0  0  0
    9.6496   11.8931   23.6801 C   0  0  0  0  0  0  0  0  0  0  0  0
   13.1313   15.4725   19.9606 C   0  0  0  0  0  0  0  0  0  0  0  0
   13.6725   17.3613   18.8287 C   0  0  0  0  0  0  0  0  0  0  0  0
    7.8683   10.6208   24.6820 C   0  0  0  0  0  0  0  0  0  0  0  0
    8.5020   11.8187   24.4424 C   0  0  0  0  0  0  0  0  0  0  0  0
   10.3332   13.1867   23.4222 C   0  0  0  0  0  0  0  0  0  0  0  0
   12.7829   14.8313   22.8897 C   0  0  0  0  0  0  0  0  0  0  0  0
    6.7633   12.1944   25.6743 C   0  0  0  0  0  0  0  0  0  0  0  0
   12.4104   14.2793   20.4487 C   0  0  0  0  0  0  0  0  0  0  0  0
   11.7491   14.4646   21.8352 C   0  0  1  0  0  0  0  0  0  0  0  0
   14.6921   17.0276   19.6915 N   0  0  0  0  0  0  0  0  0  0  0  0
   11.0166   13.2835   22.2182 N   0  0  0  0  0  0  0  0  0  0  0  0
   10.2794   14.0734   24.2703 O   0  0  0  0  0  0  0  0  0  0  0  0
   13.3940   13.9936   23.5450 O   0  0  0  0  0  0  0  0  0  0  0  0
    6.7581   10.7689   25.4548 O   0  0  0  0  0  0  0  0  0  0  0  0
    7.8677   12.8667   25.0350 O   0  0  0  0  0  0  0  0  0  0  0  0
   12.9863   16.1611   23.0488 O   0  0  0  0  0  0  0  0  0  0  0  0
   10.4766   17.6580   16.7015 H   0  0  0  0  0  0  0  0  0  0  0  0
   12.2687   19.3391   16.4721 H   0  0  0  0  0  0  0  0  0  0  0  0
    9.9155    8.5627   22.9783 H   0  0  0  0  0  0  0  0  0  0  0  0
   10.7063   15.7720   18.2902 H   0  0  0  0  0  0  0  0  0  0  0  0
   11.0584   10.7101   22.5457 H   0  0  0  0  0  0  0  0  0  0  0  0
   14.3462   19.1716   17.8345 H   0  0  0  0  0  0  0  0  0  0  0  0
    7.8453    8.4895   24.3622 H   0  0  0  0  0  0  0  0  0  0  0  0
   15.0610   15.4756   21.1063 H   0  0  0  0  0  0  0  0  0  0  0  0
    5.8269   12.6123   25.2871 H   0  0  0  0  0  0  0  0  0  0  0  0
    6.8138   12.3835   26.7527 H   0  0  0  0  0  0  0  0  0  0  0  0
   13.1053   13.4165   20.4945 H   0  0  0  0  0  0  0  0  0  0  0  0
   11.6327   13.9541   19.7264 H   0  0  0  0  0  0  0  0  0  0  0  0
   11.0171   15.2801   21.8092 H   0  0  0  0  0  0  0  0  0  0  0  0
   15.5508   17.5493   19.8003 H   0  0  0  0  0  0  0  0  0  0  0  0
   11.0673   12.4822   21.5949 H   0  0  0  0  0  0  0  0  0  0  0  0
   12.4403   16.7335   22.4697 H   0  0  0  0  0  0  0  0  0  0  0  0
  1  2  2  0  0  0  0
  1  4  1  0  0  0  0
  2  6  1  0  0  0  0
  3  5  1  0  0  0  0
  3  7  2  0  0  0  0
  4  9  2  0  0  0  0
  5 10  2  0  0  0  0
  6 12  2  0  0  0  0
  7 13  1  0  0  0  0
  8 11  2  0  0  0  0
  8 20  1  0  0  0  0
  9 11  1  0  0  0  0
  9 12  1  0  0  0  0
 10 14  1  0  0  0  0
 10 15  1  0  0  0  0
 11 18  1  0  0  0  0
 12 20  1  0  0  0  0
 13 14  2  0  0  0  0
 13 24  1  0  0  0  0
 14 25  1  0  0  0  0
 15 21  1  0  0  0  0
 15 22  2  0  0  0  0
 16 19  1  0  0  0  0
 16 23  2  0  0  0  0
 16 26  1  0  0  0  0
 17 24  1  0  0  0  0
 17 25  1  0  0  0  0
 18 19  1  0  0  0  0
 19 21  1  0  0  0  0
  1 27  1  0  0  0  0
  2 28  1  0  0  0  0
  3 29  1  0  0  0  0
  4 30  1  0  0  0  0
  5 31  1  0  0  0  0
  6 32  1  0  0  0  0
  7 33  1  0  0  0  0
  8 34  1  0  0  0  0
 17 35  1  0  0  0  0
 17 36  1  0  0  0  0
 18 37  1  0  0  0  0
 18 38  1  0  0  0  0
 19 39  1  0  0  0  0
 20 40  1  0  0  0  0
 21 41  1  0  0  0  0
 26 42  1  0  0  0  0
M  END
> <Catalog ID>
Z1444491919

> <PlateID>
1041831-R-10

> <Well>
D05

> <MW (desalted)>
352.341

> <ClogP>
2.557

> <HBD>
3

> <TPSA>
100.650

> <RotBonds>
5

> <ROCS_ShapeQuery>
A71EV2A-x0451_0A_A71EV2A-x0310_0A_A71EV2A-x0416_0A_peptide

> <ROCS_TanimotoCombo>
0.566 

> <ROCS_ShapeTanimoto>
0.354 

> <ROCS_ColorTanimoto>
0.212 

> <ROCS_RefTversky>
0.319 

> <ROCS_RefColorTversky>
0.249 

> <ROCS_RefTverskyCombo>
0.567 

> <ROCS_FitTversky>
1.459 

> <ROCS_FitColorTversky>
0.586 

> <ROCS_FitTverskyCombo>
2.046 

> <ROCS_ColorScore>
-7.649

> <ROCS_Overlap>
2216.055

> <ROCS_Rank>
25                  

$$$$
untitled-dbase-2497_4855
  -OEChem-11132311063D

 39 41  0     1  0  0  0  0  0999 V2000
    7.9101   12.8513   24.2837 C   0  0  0  0  0  0  0  0  0  0  0  0
    6.9028   12.8874   25.2547 C   0  0  0  0  0  0  0  0  0  0  0  0
   13.1657   16.4936   18.1865 C   0  0  0  0  0  0  0  0  0  0  0  0
    7.1105   10.4966   25.6359 C   0  0  0  0  0  0  0  0  0  0  0  0
    9.7429    9.8699   23.2289 C   0  0  0  0  0  0  0  0  0  0  0  0
   14.2974   16.4216   18.9685 C   0  0  0  0  0  0  0  0  0  0  0  0
    8.5294   11.6223   23.9813 C   0  0  0  0  0  0  0  0  0  0  0  0
   12.0404   15.8875   18.8163 C   0  0  0  0  0  0  0  0  0  0  0  0
    9.5561   11.2248   23.0797 C   0  0  0  0  0  0  0  0  0  0  0  0
    8.1161   10.4756   24.6629 C   0  0  0  0  0  0  0  0  0  0  0  0
    6.5107   11.7270   25.9192 C   0  0  0  0  0  0  0  0  0  0  0  0
   12.3551   15.3751   20.0558 C   0  0  0  0  0  0  0  0  0  0  0  0
   11.4831   14.6706   21.0307 C   0  0  0  0  0  0  0  0  0  0  0  0
   10.8101   13.8429   23.9075 C   0  0  0  0  0  0  0  0  0  0  0  0
   10.6942   15.8233   18.1975 C   0  0  0  0  0  0  0  0  0  0  0  0
   10.2943   12.1004   22.1469 C   0  0  0  0  0  0  0  0  0  0  0  0
   11.3954   12.9540   22.8200 C   0  0  1  0  0  0  0  0  0  0  0  0
    8.8697    9.4270   24.1858 N   0  0  0  0  0  0  0  0  0  0  0  0
   12.1103   13.7358   21.8424 N   0  0  0  0  0  0  0  0  0  0  0  0
   10.2822   14.9268   21.0561 O   0  0  0  0  0  0  0  0  0  0  0  0
   10.3850   14.9726   23.6891 O   0  0  0  0  0  0  0  0  0  0  0  0
   10.7859   13.2889   25.1433 O   0  0  0  0  0  0  0  0  0  0  0  0
    5.5433   11.7906   26.8446 F   0  0  0  0  0  0  0  0  0  0  0  0
   14.0012   15.6256   20.4555 S   0  0  0  0  0  0  0  0  0  0  0  0
    8.2039   13.7646   23.7741 H   0  0  0  0  0  0  0  0  0  0  0  0
    6.4222   13.8327   25.4926 H   0  0  0  0  0  0  0  0  0  0  0  0
   13.1512   16.9602   17.2096 H   0  0  0  0  0  0  0  0  0  0  0  0
    6.8046    9.5941   26.1540 H   0  0  0  0  0  0  0  0  0  0  0  0
   10.4179    9.1802   22.7414 H   0  0  0  0  0  0  0  0  0  0  0  0
   15.2839   16.7982   18.7378 H   0  0  0  0  0  0  0  0  0  0  0  0
   10.5822   14.9061   17.6010 H   0  0  0  0  0  0  0  0  0  0  0  0
    9.8967   15.8363   18.9561 H   0  0  0  0  0  0  0  0  0  0  0  0
   10.5086   16.6844   17.5371 H   0  0  0  0  0  0  0  0  0  0  0  0
    9.5841   12.7750   21.6273 H   0  0  0  0  0  0  0  0  0  0  0  0
   10.7542   11.5157   21.3229 H   0  0  0  0  0  0  0  0  0  0  0  0
   12.1430   12.3125   23.3007 H   0  0  0  0  0  0  0  0  0  0  0  0
    8.7898    8.4689   24.4975 H   0  0  0  0  0  0  0  0  0  0  0  0
   13.0989   13.5345   21.7182 H   0  0  0  0  0  0  0  0  0  0  0  0
   11.1530   12.3813   25.1952 H   0  0  0  0  0  0  0  0  0  0  0  0
  1  2  1  0  0  0  0
  1  7  2  0  0  0  0
  2 11  2  0  0  0  0
  3  6  2  0  0  0  0
  3  8  1  0  0  0  0
  4 10  2  0  0  0  0
  4 11  1  0  0  0  0
  5  9  2  0  0  0  0
  5 18  1  0  0  0  0
  6 24  1  0  0  0  0
  7  9  1  0  0  0  0
  7 10  1  0  0  0  0
  8 12  2  0  0  0  0
  8 15  1  0  0  0  0
  9 16  1  0  0  0  0
 10 18  1  0  0  0  0
 11 23  1  0  0  0  0
 12 13  1  0  0  0  0
 12 24  1  0  0  0  0
 13 19  1  0  0  0  0
 13 20  2  0  0  0  0
 14 17  1  0  0  0  0
 14 21  2  0  0  0  0
 14 22  1  0  0  0  0
 16 17  1  0  0  0  0
 17 19  1  0  0  0  0
  1 25  1  0  0  0  0
  2 26  1  0  0  0  0
  3 27  1  0  0  0  0
  4 28  1  0  0  0  0
  5 29  1  0  0  0  0
  6 30  1  0  0  0  0
 15 31  1  0  0  0  0
 15 32  1  0  0  0  0
 15 33  1  0  0  0  0
 16 34  1  0  0  0  0
 16 35  1  0  0  0  0
 17 36  1  0  0  0  0
 18 37  1  0  0  0  0
 19 38  1  0  0  0  0
 22 39  1  0  0  0  0
M  END
> <Catalog ID>
Z1603708044

> <PlateID>
1041831-R-32

> <Well>
B08

> <MW (desalted)>
346.376

> <ClogP>
2.679

> <HBD>
3

> <TPSA>
82.190

> <RotBonds>
5

> <ROCS_ShapeQuery>
A71EV2A-x0451_0A_A71EV2A-x0310_0A_A71EV2A-x0416_0A_peptide

> <ROCS_TanimotoCombo>
0.565 

> <ROCS_ShapeTanimoto>
0.379 

> <ROCS_ColorTanimoto>
0.186 

> <ROCS_RefTversky>
0.330 

> <ROCS_RefColorTversky>
0.209 

> <ROCS_RefTverskyCombo>
0.538 

> <ROCS_FitTversky>
1.653 

> <ROCS_FitColorTversky>
0.627 

> <ROCS_FitTverskyCombo>
2.280 

> <ROCS_ColorScore>
-6.377

> <ROCS_Overlap>
2292.308

> <ROCS_Rank>
26                  

$$$$
untitled-dbase-999_231
  -OEChem-11132311063D

 44 47  0     0  0  0  0  0  0999 V2000
    4.5585   13.3747   28.4655 C   0  0  0  0  0  0  0  0  0  0  0  0
    4.6368   13.9888   27.2156 C   0  0  0  0  0  0  0  0  0  0  0  0
    5.3743   12.2816   28.7579 C   0  0  0  0  0  0  0  0  0  0  0  0
   13.4875   15.2283   21.5442 C   0  0  0  0  0  0  0  0  0  0  0  0
    5.5308   13.5099   26.2580 C   0  0  0  0  0  0  0  0  0  0  0  0
    6.2683   11.8027   27.8003 C   0  0  0  0  0  0  0  0  0  0  0  0
   13.3406   15.3216   20.1647 C   0  0  0  0  0  0  0  0  0  0  0  0
   12.5550   14.5164   22.2904 C   0  0  0  0  0  0  0  0  0  0  0  0
    9.7912   10.4631   22.7804 C   0  0  0  0  0  0  0  0  0  0  0  0
    6.3466   12.4168   26.5503 C   0  0  0  0  0  0  0  0  0  0  0  0
    8.3080    9.1186   23.5056 C   0  0  0  0  0  0  0  0  0  0  0  0
   12.2526   14.6900   19.5841 C   0  0  0  0  0  0  0  0  0  0  0  0
   11.5020   13.9210   21.6147 C   0  0  0  0  0  0  0  0  0  0  0  0
    8.0920   10.2976   24.1847 C   0  0  0  0  0  0  0  0  0  0  0  0
    8.3097   12.9139   25.0920 C   0  0  0  0  0  0  0  0  0  0  0  0
    7.2813   11.9161   25.5490 C   0  0  0  0  0  0  0  0  0  0  0  0
    9.1710   12.4706   24.1629 C   0  0  0  0  0  0  0  0  0  0  0  0
    7.5586    7.9069   23.6502 C   0  0  0  0  0  0  0  0  0  0  0  0
   10.1794   13.4288   23.6992 C   0  0  0  0  0  0  0  0  0  0  0  0
   12.0636   14.7689   18.1059 C   0  0  0  0  0  0  0  0  0  0  0  0
    9.3617    9.2288   22.6375 N   0  0  0  0  0  0  0  0  0  0  0  0
   11.3262   13.9896   20.2761 N   0  0  0  0  0  0  0  0  0  0  0  0
    7.1915   10.6856   25.1262 N   0  0  0  0  0  0  0  0  0  0  0  0
    9.0598   11.1636   23.7069 N   0  0  0  0  0  0  0  0  0  0  0  0
    7.9217    6.7978   22.8726 N   0  0  0  0  0  0  0  0  0  0  0  0
   10.5588   13.1966   22.3837 N   0  0  0  0  0  0  0  0  0  0  0  0
    6.5826    7.8116   24.4339 O   0  0  0  0  0  0  0  0  0  0  0  0
   10.5840   14.3073   24.4601 O   0  0  0  0  0  0  0  0  0  0  0  0
    3.8624   13.7476   29.2111 H   0  0  0  0  0  0  0  0  0  0  0  0
    4.0013   14.8397   26.9881 H   0  0  0  0  0  0  0  0  0  0  0  0
    5.3136   11.8037   29.7312 H   0  0  0  0  0  0  0  0  0  0  0  0
   14.3268   15.7097   22.0370 H   0  0  0  0  0  0  0  0  0  0  0  0
    5.5836   13.9960   25.2872 H   0  0  0  0  0  0  0  0  0  0  0  0
    6.8991   10.9503   28.0391 H   0  0  0  0  0  0  0  0  0  0  0  0
   14.0609   15.8750   19.5718 H   0  0  0  0  0  0  0  0  0  0  0  0
   12.6622   14.4392   23.3676 H   0  0  0  0  0  0  0  0  0  0  0  0
   10.6223   10.8972   22.2416 H   0  0  0  0  0  0  0  0  0  0  0  0
    8.3155   13.9135   25.5088 H   0  0  0  0  0  0  0  0  0  0  0  0
   12.5743   13.9340   17.6114 H   0  0  0  0  0  0  0  0  0  0  0  0
   10.9998   14.7345   17.8387 H   0  0  0  0  0  0  0  0  0  0  0  0
   12.4625   15.7090   17.7039 H   0  0  0  0  0  0  0  0  0  0  0  0
    8.7027    6.8840   22.2312 H   0  0  0  0  0  0  0  0  0  0  0  0
    7.4300    5.9118   22.9295 H   0  0  0  0  0  0  0  0  0  0  0  0
   10.1166   12.4178   21.8994 H   0  0  0  0  0  0  0  0  0  0  0  0
  1  2  2  0  0  0  0
  1  3  1  0  0  0  0
  2  5  1  0  0  0  0
  3  6  2  0  0  0  0
  4  7  1  0  0  0  0
  4  8  2  0  0  0  0
  5 10  2  0  0  0  0
  6 10  1  0  0  0  0
  7 12  2  0  0  0  0
  8 13  1  0  0  0  0
  9 21  2  0  0  0  0
  9 24  1  0  0  0  0
 10 16  1  0  0  0  0
 11 14  2  0  0  0  0
 11 18  1  0  0  0  0
 11 21  1  0  0  0  0
 12 20  1  0  0  0  0
 12 22  1  0  0  0  0
 13 22  2  0  0  0  0
 13 26  1  0  0  0  0
 14 23  1  0  0  0  0
 14 24  1  0  0  0  0
 15 16  1  0  0  0  0
 15 17  2  0  0  0  0
 16 23  2  0  0  0  0
 17 19  1  0  0  0  0
 17 24  1  0  0  0  0
 18 25  1  0  0  0  0
 18 27  2  0  0  0  0
 19 26  1  0  0  0  0
 19 28  2  0  0  0  0
  1 29  1  0  0  0  0
  2 30  1  0  0  0  0
  3 31  1  0  0  0  0
  4 32  1  0  0  0  0
  5 33  1  0  0  0  0
  6 34  1  0  0  0  0
  7 35  1  0  0  0  0
  8 36  1  0  0  0  0
  9 37  1  0  0  0  0
 15 38  1  0  0  0  0
 20 39  1  0  0  0  0
 20 40  1  0  0  0  0
 20 41  1  0  0  0  0
 25 42  1  0  0  0  0
 25 43  1  0  0  0  0
 26 44  1  0  0  0  0
M  END
> <Catalog ID>
Z244508794

> <PlateID>
1041831-R-13

> <Well>
D10

> <MW (desalted)>
372.380

> <ClogP>
2.909

> <HBD>
2

> <TPSA>
115.270

> <RotBonds>
4

> <ROCS_ShapeQuery>
A71EV2A-x0451_0A_A71EV2A-x0310_0A_A71EV2A-x0416_0A_peptide

> <ROCS_TanimotoCombo>
0.565 

> <ROCS_ShapeTanimoto>
0.402 

> <ROCS_ColorTanimoto>
0.162 

> <ROCS_RefTversky>
0.353 

> <ROCS_RefColorTversky>
0.199 

> <ROCS_RefTverskyCombo>
0.552 

> <ROCS_FitTversky>
1.523 

> <ROCS_FitColorTversky>
0.470 

> <ROCS_FitTverskyCombo>
1.993 

> <ROCS_ColorScore>
-6.113

> <ROCS_Overlap>
2459.713

> <ROCS_Rank>
27                  

$$$$
untitled-dbase-2526_1187
  -OEChem-11132311063D

 39 41  0     1  0  0  0  0  0999 V2000
    7.8598   12.8502   24.5072 C   0  0  0  0  0  0  0  0  0  0  0  0
    7.0110   12.8595   25.6201 C   0  0  0  0  0  0  0  0  0  0  0  0
   14.0882   16.7869   18.9691 C   0  0  0  0  0  0  0  0  0  0  0  0
    7.2853   10.4634   25.9161 C   0  0  0  0  0  0  0  0  0  0  0  0
    9.5256    9.9044   23.1259 C   0  0  0  0  0  0  0  0  0  0  0  0
   13.0496   16.0824   18.4060 C   0  0  0  0  0  0  0  0  0  0  0  0
    8.4318   11.6322   24.0893 C   0  0  0  0  0  0  0  0  0  0  0  0
   14.1514   16.3790   20.3229 C   0  0  0  0  0  0  0  0  0  0  0  0
    9.3119   11.2605   23.0346 C   0  0  0  0  0  0  0  0  0  0  0  0
    8.1320   10.4692   24.8019 C   0  0  0  0  0  0  0  0  0  0  0  0
    6.7296   11.6833   26.3122 C   0  0  0  0  0  0  0  0  0  0  0  0
   13.1469   15.4545   20.4907 C   0  0  0  0  0  0  0  0  0  0  0  0
   12.7098   14.6730   21.6761 C   0  0  0  0  0  0  0  0  0  0  0  0
   10.6645   13.8716   23.7167 C   0  0  0  0  0  0  0  0  0  0  0  0
   15.1053   16.8552   21.3415 C   0  0  0  0  0  0  0  0  0  0  0  0
    9.8961   12.1599   22.0191 C   0  0  0  0  0  0  0  0  0  0  0  0
   11.0825   13.0087   22.5351 C   0  0  1  0  0  0  0  0  0  0  0  0
    8.8096    9.4360   24.1948 N   0  0  0  0  0  0  0  0  0  0  0  0
   11.6373   13.8150   21.4768 N   0  0  0  0  0  0  0  0  0  0  0  0
   13.2879   14.8346   22.7477 O   0  0  0  0  0  0  0  0  0  0  0  0
   10.7565   13.4981   24.8815 O   0  0  0  0  0  0  0  0  0  0  0  0
   12.4705   15.2681   19.3269 O   0  0  0  0  0  0  0  0  0  0  0  0
   10.1860   15.0950   23.3865 O   0  0  0  0  0  0  0  0  0  0  0  0
    5.9133   11.7212   27.3746 F   0  0  0  0  0  0  0  0  0  0  0  0
    8.0687   13.7756   23.9779 H   0  0  0  0  0  0  0  0  0  0  0  0
    6.5676   13.7961   25.9473 H   0  0  0  0  0  0  0  0  0  0  0  0
   14.7191   17.5042   18.4632 H   0  0  0  0  0  0  0  0  0  0  0  0
    7.0658    9.5485   26.4559 H   0  0  0  0  0  0  0  0  0  0  0  0
   10.1222    9.2296   22.5278 H   0  0  0  0  0  0  0  0  0  0  0  0
   12.6186   16.0495   17.4158 H   0  0  0  0  0  0  0  0  0  0  0  0
   14.7124   17.7372   21.8744 H   0  0  0  0  0  0  0  0  0  0  0  0
   15.3278   16.0809   22.0963 H   0  0  0  0  0  0  0  0  0  0  0  0
   16.0774   17.1371   20.9005 H   0  0  0  0  0  0  0  0  0  0  0  0
    9.1122   12.8390   21.6270 H   0  0  0  0  0  0  0  0  0  0  0  0
   10.2286   11.5951   21.1231 H   0  0  0  0  0  0  0  0  0  0  0  0
   11.8973   12.3637   22.8837 H   0  0  0  0  0  0  0  0  0  0  0  0
    8.7823    8.4715   24.4952 H   0  0  0  0  0  0  0  0  0  0  0  0
   11.1708   13.7833   20.5743 H   0  0  0  0  0  0  0  0  0  0  0  0
   10.1596   15.2811   22.4244 H   0  0  0  0  0  0  0  0  0  0  0  0
  1  2  1  0  0  0  0
  1  7  2  0  0  0  0
  2 11  2  0  0  0  0
  3  6  2  0  0  0  0
  3  8  1  0  0  0  0
  4 10  2  0  0  0  0
  4 11  1  0  0  0  0
  5  9  2  0  0  0  0
  5 18  1  0  0  0  0
  6 22  1  0  0  0  0
  7  9  1  0  0  0  0
  7 10  1  0  0  0  0
  8 12  2  0  0  0  0
  8 15  1  0  0  0  0
  9 16  1  0  0  0  0
 10 18  1  0  0  0  0
 11 24  1  0  0  0  0
 12 13  1  0  0  0  0
 12 22  1  0  0  0  0
 13 19  1  0  0  0  0
 13 20  2  0  0  0  0
 14 17  1  0  0  0  0
 14 21  2  0  0  0  0
 14 23  1  0  0  0  0
 16 17  1  0  0  0  0
 17 19  1  0  0  0  0
  1 25  1  0  0  0  0
  2 26  1  0  0  0  0
  3 27  1  0  0  0  0
  4 28  1  0  0  0  0
  5 29  1  0  0  0  0
  6 30  1  0  0  0  0
 15 31  1  0  0  0  0
 15 32  1  0  0  0  0
 15 33  1  0  0  0  0
 16 34  1  0  0  0  0
 16 35  1  0  0  0  0
 17 36  1  0  0  0  0
 18 37  1  0  0  0  0
 19 38  1  0  0  0  0
 23 39  1  0  0  0  0
M  END
> <Catalog ID>
Z1603708981

> <PlateID>
1041831-R-32

> <Well>
E07

> <MW (desalted)>
330.310

> <ClogP>
2.017

> <HBD>
3

> <TPSA>
95.330

> <RotBonds>
5

> <ROCS_ShapeQuery>
A71EV2A-x0451_0A_A71EV2A-x0310_0A_A71EV2A-x0416_0A_peptide

> <ROCS_TanimotoCombo>
0.564 

> <ROCS_ShapeTanimoto>
0.367 

> <ROCS_ColorTanimoto>
0.197 

> <ROCS_RefTversky>
0.323 

> <ROCS_RefColorTversky>
0.225 

> <ROCS_RefTverskyCombo>
0.547 

> <ROCS_FitTversky>
1.592 

> <ROCS_FitColorTversky>
0.619 

> <ROCS_FitTverskyCombo>
2.210 

> <ROCS_ColorScore>
-6.879

> <ROCS_Overlap>
2244.304

> <ROCS_Rank>
28                  

$$$$
untitled-dbase-2193_3082
  -OEChem-11132311063D

 58 61  0     1  0  0  0  0  0999 V2000
    4.7358   13.1400   25.4079 C   0  0  0  0  0  0  0  0  0  0  0  0
    7.8860   12.9466   24.6777 C   0  0  0  0  0  0  0  0  0  0  0  0
   10.1818   10.4557   23.0006 C   0  0  0  0  0  0  0  0  0  0  0  0
    9.2283   11.2551   23.6617 C   0  0  0  0  0  0  0  0  0  0  0  0
    5.8029   12.2796   25.7605 C   0  0  0  0  0  0  0  0  0  0  0  0
    9.0406   12.6078   23.9720 C   0  0  0  0  0  0  0  0  0  0  0  0
    6.9940   11.9397   25.0316 C   0  0  0  0  0  0  0  0  0  0  0  0
    3.8546   13.1081   26.4636 C   0  0  0  0  0  0  0  0  0  0  0  0
    5.4978   11.7834   27.0066 C   0  0  0  0  0  0  0  0  0  0  0  0
    8.2599   10.3535   24.0748 C   0  0  0  0  0  0  0  0  0  0  0  0
   10.0161   13.6344   23.5725 C   0  0  0  0  0  0  0  0  0  0  0  0
   11.4838   14.1184   20.2212 C   0  0  0  0  0  0  0  0  0  0  0  0
   11.5608   14.2477   21.7348 C   0  0  0  0  0  0  0  0  0  0  0  0
    9.3272   13.6003   21.1149 C   0  0  0  0  0  0  0  0  0  0  0  0
    9.9907   14.2709   19.9113 C   0  0  1  0  0  0  0  0  0  0  0  0
    2.5671   13.7689   26.7197 C   0  0  0  0  0  0  0  0  0  0  0  0
    6.1756   10.8548   27.9253 C   0  0  0  0  0  0  0  0  0  0  0  0
    6.6495    7.8327   23.1322 C   0  0  0  0  0  0  0  0  0  0  0  0
    7.8797    7.4998   25.3190 C   0  0  0  0  0  0  0  0  0  0  0  0
    9.4680   17.8477   20.9155 C   0  0  0  0  0  0  0  0  0  0  0  0
    9.5787   15.7359   19.7801 C   0  0  0  0  0  0  0  0  0  0  0  0
    8.0060    7.8664   23.8391 C   0  0  0  0  0  0  0  0  0  0  0  0
    9.8541    9.1594   22.9910 N   0  0  0  0  0  0  0  0  0  0  0  0
    7.1312   10.6203   24.7549 N   0  0  0  0  0  0  0  0  0  0  0  0
    8.6820    9.1282   23.6508 N   0  0  0  0  0  0  0  0  0  0  0  0
   10.2689   13.7866   22.2176 N   0  0  0  0  0  0  0  0  0  0  0  0
    9.8398   16.4306   20.9991 N   0  0  0  0  0  0  0  0  0  0  0  0
   10.5359   14.2982   24.4674 O   0  0  0  0  0  0  0  0  0  0  0  0
    4.3118   12.2836   27.4423 O   0  0  0  0  0  0  0  0  0  0  0  0
    4.6211   13.7128   24.4983 H   0  0  0  0  0  0  0  0  0  0  0  0
    7.6925   13.9834   24.9423 H   0  0  0  0  0  0  0  0  0  0  0  0
   11.1031   10.7603   22.5244 H   0  0  0  0  0  0  0  0  0  0  0  0
   12.0664   14.9220   19.7456 H   0  0  0  0  0  0  0  0  0  0  0  0
   11.8837   13.1590   19.8666 H   0  0  0  0  0  0  0  0  0  0  0  0
   12.3278   13.5872   22.1554 H   0  0  0  0  0  0  0  0  0  0  0  0
   11.7590   15.2710   22.0696 H   0  0  0  0  0  0  0  0  0  0  0  0
    8.3840   14.0868   21.3974 H   0  0  0  0  0  0  0  0  0  0  0  0
    9.1343   12.5340   20.9450 H   0  0  0  0  0  0  0  0  0  0  0  0
    9.7429   13.7388   19.0050 H   0  0  0  0  0  0  0  0  0  0  0  0
    1.7210   13.1595   26.3550 H   0  0  0  0  0  0  0  0  0  0  0  0
    2.3982   13.9569   27.7962 H   0  0  0  0  0  0  0  0  0  0  0  0
    2.4973   14.7574   26.2288 H   0  0  0  0  0  0  0  0  0  0  0  0
    6.8534   11.3919   28.6115 H   0  0  0  0  0  0  0  0  0  0  0  0
    5.4610   10.2836   28.5451 H   0  0  0  0  0  0  0  0  0  0  0  0
    6.7779   10.1000   27.3878 H   0  0  0  0  0  0  0  0  0  0  0  0
    5.9553    8.5726   23.5448 H   0  0  0  0  0  0  0  0  0  0  0  0
    6.1856    6.8462   23.2372 H   0  0  0  0  0  0  0  0  0  0  0  0
    6.7616    8.0406   22.0623 H   0  0  0  0  0  0  0  0  0  0  0  0
    7.2588    8.2295   25.8503 H   0  0  0  0  0  0  0  0  0  0  0  0
    8.8652    7.4845   25.7966 H   0  0  0  0  0  0  0  0  0  0  0  0
    7.4268    6.5124   25.4583 H   0  0  0  0  0  0  0  0  0  0  0  0
   10.0173   18.3233   20.0896 H   0  0  0  0  0  0  0  0  0  0  0  0
    8.3866   17.9327   20.7335 H   0  0  0  0  0  0  0  0  0  0  0  0
    9.7213   18.3494   21.8611 H   0  0  0  0  0  0  0  0  0  0  0  0
   10.1590   16.1719   18.9651 H   0  0  0  0  0  0  0  0  0  0  0  0
    8.5117   15.7612   19.5519 H   0  0  0  0  0  0  0  0  0  0  0  0
    8.6358    7.1006   23.3681 H   0  0  0  0  0  0  0  0  0  0  0  0
    9.3125   16.0117   21.7781 H   0  0  0  0  0  0  0  0  0  0  0  0
  1  5  1  0  0  0  0
  1  8  2  0  0  0  0
  2  6  1  0  0  0  0
  2  7  2  0  0  0  0
  3  4  1  0  0  0  0
  3 23  2  0  0  0  0
  4  6  2  0  0  0  0
  4 10  1  0  0  0  0
  5  7  1  0  0  0  0
  5  9  2  0  0  0  0
  6 11  1  0  0  0  0
  7 24  1  0  0  0  0
  8 16  1  0  0  0  0
  8 29  1  0  0  0  0
  9 17  1  0  0  0  0
  9 29  1  0  0  0  0
 10 24  2  0  0  0  0
 10 25  1  0  0  0  0
 11 26  1  0  0  0  0
 11 28  2  0  0  0  0
 12 13  1  0  0  0  0
 12 15  1  0  0  0  0
 13 26  1  0  0  0  0
 14 15  1  0  0  0  0
 14 26  1  0  0  0  0
 15 21  1  0  0  0  0
 18 22  1  0  0  0  0
 19 22  1  0  0  0  0
 20 27  1  0  0  0  0
 21 27  1  0  0  0  0
 22 25  1  0  0  0  0
 23 25  1  0  0  0  0
  1 30  1  0  0  0  0
  2 31  1  0  0  0  0
  3 32  1  0  0  0  0
 12 33  1  0  0  0  0
 12 34  1  0  0  0  0
 13 35  1  0  0  0  0
 13 36  1  0  0  0  0
 14 37  1  0  0  0  0
 14 38  1  0  0  0  0
 15 39  1  0  0  0  0
 16 40  1  0  0  0  0
 16 41  1  0  0  0  0
 16 42  1  0  0  0  0
 17 43  1  0  0  0  0
 17 44  1  0  0  0  0
 17 45  1  0  0  0  0
 18 46  1  0  0  0  0
 18 47  1  0  0  0  0
 18 48  1  0  0  0  0
 19 49  1  0  0  0  0
 19 50  1  0  0  0  0
 19 51  1  0  0  0  0
 20 52  1  0  0  0  0
 20 53  1  0  0  0  0
 20 54  1  0  0  0  0
 21 55  1  0  0  0  0
 21 56  1  0  0  0  0
 22 57  1  0  0  0  0
 27 58  1  0  0  0  0
M  END
> <Catalog ID>
Z2327134470

> <PlateID>
1041831-R-28

> <Well>
D04

> <MW (desalted)>
395.498

> <ClogP>
1.543

> <HBD>
1

> <TPSA>
76.190

> <RotBonds>
5

> <ROCS_ShapeQuery>
A71EV2A-x0451_0A_A71EV2A-x0310_0A_A71EV2A-x0416_0A_peptide

> <ROCS_TanimotoCombo>
0.564 

> <ROCS_ShapeTanimoto>
0.373 

> <ROCS_ColorTanimoto>
0.191 

> <ROCS_RefTversky>
0.335 

> <ROCS_RefColorTversky>
0.223 

> <ROCS_RefTverskyCombo>
0.558 

> <ROCS_FitTversky>
1.431 

> <ROCS_FitColorTversky>
0.568 

> <ROCS_FitTverskyCombo>
1.999 

> <ROCS_ColorScore>
-6.850

> <ROCS_Overlap>
2332.942

> <ROCS_Rank>
29                  

$$$$
untitled-dbase-3047_2657
  -OEChem-11132311063D

 36 38  0     1  0  0  0  0  0999 V2000
    7.9189   12.8502   24.2658 C   0  0  0  0  0  0  0  0  0  0  0  0
    6.8991   12.8880   25.2236 C   0  0  0  0  0  0  0  0  0  0  0  0
   13.8152   15.5987   20.2695 C   0  0  0  0  0  0  0  0  0  0  0  0
    7.0999   10.4974   25.6096 C   0  0  0  0  0  0  0  0  0  0  0  0
    9.7629    9.8664   23.2376 C   0  0  0  0  0  0  0  0  0  0  0  0
   14.3649   16.2782   19.2048 C   0  0  0  0  0  0  0  0  0  0  0  0
   11.9572   15.8777   18.9011 C   0  0  0  0  0  0  0  0  0  0  0  0
    8.5411   11.6204   23.9725 C   0  0  0  0  0  0  0  0  0  0  0  0
   12.4204   15.3665   20.0936 C   0  0  0  0  0  0  0  0  0  0  0  0
    9.5791   11.2213   23.0847 C   0  0  0  0  0  0  0  0  0  0  0  0
    8.1181   10.4747   24.6498 C   0  0  0  0  0  0  0  0  0  0  0  0
    6.4975   11.7285   25.8840 C   0  0  0  0  0  0  0  0  0  0  0  0
   11.5353   14.6636   21.0578 C   0  0  0  0  0  0  0  0  0  0  0  0
   10.8243   13.8392   23.9263 C   0  0  0  0  0  0  0  0  0  0  0  0
   10.3301   12.0954   22.1608 C   0  0  0  0  0  0  0  0  0  0  0  0
   11.4230   12.9488   22.8474 C   0  0  1  0  0  0  0  0  0  0  0  0
    8.8770    9.4250   24.1835 N   0  0  0  0  0  0  0  0  0  0  0  0
   12.1511   13.7291   21.8784 N   0  0  0  0  0  0  0  0  0  0  0  0
   10.3344   14.9209   21.0673 O   0  0  0  0  0  0  0  0  0  0  0  0
   10.4029   14.9690   23.7014 O   0  0  0  0  0  0  0  0  0  0  0  0
   10.7837   13.2864   25.1623 O   0  0  0  0  0  0  0  0  0  0  0  0
    5.5182   11.7937   26.7967 F   0  0  0  0  0  0  0  0  0  0  0  0
   13.2015   16.6335   17.9995 S   0  0  0  0  0  0  0  0  0  0  0  0
    8.2200   13.7627   23.7592 H   0  0  0  0  0  0  0  0  0  0  0  0
    6.4162   13.8338   25.4543 H   0  0  0  0  0  0  0  0  0  0  0  0
   14.3908   15.2857   21.1316 H   0  0  0  0  0  0  0  0  0  0  0  0
    6.7867    9.5955   26.1245 H   0  0  0  0  0  0  0  0  0  0  0  0
   10.4437    9.1757   22.7596 H   0  0  0  0  0  0  0  0  0  0  0  0
   15.3940   16.5835   19.0783 H   0  0  0  0  0  0  0  0  0  0  0  0
   10.9496   15.8469   18.5100 H   0  0  0  0  0  0  0  0  0  0  0  0
    9.6272   12.7701   21.6314 H   0  0  0  0  0  0  0  0  0  0  0  0
   10.8001   11.5096   21.3434 H   0  0  0  0  0  0  0  0  0  0  0  0
   12.1638   12.3071   23.3383 H   0  0  0  0  0  0  0  0  0  0  0  0
    8.7924    8.4673   24.4950 H   0  0  0  0  0  0  0  0  0  0  0  0
   13.1411   13.5269   21.7673 H   0  0  0  0  0  0  0  0  0  0  0  0
   11.1493   12.3785   25.2197 H   0  0  0  0  0  0  0  0  0  0  0  0
  1  2  1  0  0  0  0
  1  8  2  0  0  0  0
  2 12  2  0  0  0  0
  3  6  2  0  0  0  0
  3  9  1  0  0  0  0
  4 11  2  0  0  0  0
  4 12  1  0  0  0  0
  5 10  2  0  0  0  0
  5 17  1  0  0  0  0
  6 23  1  0  0  0  0
  7  9  2  0  0  0  0
  7 23  1  0  0  0  0
  8 10  1  0  0  0  0
  8 11  1  0  0  0  0
  9 13  1  0  0  0  0
 10 15  1  0  0  0  0
 11 17  1  0  0  0  0
 12 22  1  0  0  0  0
 13 18  1  0  0  0  0
 13 19  2  0  0  0  0
 14 16  1  0  0  0  0
 14 20  2  0  0  0  0
 14 21  1  0  0  0  0
 15 16  1  0  0  0  0
 16 18  1  0  0  0  0
  1 24  1  0  0  0  0
  2 25  1  0  0  0  0
  3 26  1  0  0  0  0
  4 27  1  0  0  0  0
  5 28  1  0  0  0  0
  6 29  1  0  0  0  0
  7 30  1  0  0  0  0
 15 31  1  0  0  0  0
 15 32  1  0  0  0  0
 16 33  1  0  0  0  0
 17 34  1  0  0  0  0
 18 35  1  0  0  0  0
 21 36  1  0  0  0  0
M  END
> <Catalog ID>
Z1603709568

> <PlateID>
1041831-R-39

> <Well>
A08

> <MW (desalted)>
332.349

> <ClogP>
2.520

> <HBD>
3

> <TPSA>
82.190

> <RotBonds>
5

> <ROCS_ShapeQuery>
A71EV2A-x0451_0A_A71EV2A-x0310_0A_A71EV2A-x0416_0A_peptide

> <ROCS_TanimotoCombo>
0.564 

> <ROCS_ShapeTanimoto>
0.379 

> <ROCS_ColorTanimoto>
0.184 

> <ROCS_RefTversky>
0.328 

> <ROCS_RefColorTversky>
0.207 

> <ROCS_RefTverskyCombo>
0.536 

> <ROCS_FitTversky>
1.694 

> <ROCS_FitColorTversky>
0.624 

> <ROCS_FitTverskyCombo>
2.317 

> <ROCS_ColorScore>
-6.337

> <ROCS_Overlap>
2281.255

> <ROCS_Rank>
30                  

$$$$
untitled-dbase-1038_134
  -OEChem-11132311063D

 44 47  0     0  0  0  0  0  0999 V2000
   10.4191    6.6473   21.4984 C   0  0  0  0  0  0  0  0  0  0  0  0
   13.4151   16.1449   22.1424 C   0  0  0  0  0  0  0  0  0  0  0  0
   12.6005   15.1041   22.5882 C   0  0  0  0  0  0  0  0  0  0  0  0
   10.7612    7.8968   22.0685 C   0  0  0  0  0  0  0  0  0  0  0  0
    9.9949   10.8214   22.9768 C   0  0  0  0  0  0  0  0  0  0  0  0
   12.6333   15.7895   19.8842 C   0  0  0  0  0  0  0  0  0  0  0  0
    9.0585    6.5169   21.6525 C   0  0  0  0  0  0  0  0  0  0  0  0
    8.5370   11.9395   24.4997 C   0  0  0  0  0  0  0  0  0  0  0  0
    9.6408   11.9966   23.6396 C   0  0  0  0  0  0  0  0  0  0  0  0
   13.4315   16.4876   20.7903 C   0  0  0  0  0  0  0  0  0  0  0  0
   11.8024   14.4060   21.6821 C   0  0  0  0  0  0  0  0  0  0  0  0
   11.8187   14.7486   20.3300 C   0  0  0  0  0  0  0  0  0  0  0  0
    9.2457    9.6710   23.2002 C   0  0  0  0  0  0  0  0  0  0  0  0
    9.5853    8.4409   22.5300 C   0  0  0  0  0  0  0  0  0  0  0  0
    7.8256   12.8106   25.3485 C   0  0  0  0  0  0  0  0  0  0  0  0
    7.8781   10.7271   24.6312 C   0  0  0  0  0  0  0  0  0  0  0  0
   10.3932   13.2200   23.4359 C   0  0  0  0  0  0  0  0  0  0  0  0
   14.3029   17.6003   20.3143 C   0  0  0  0  0  0  0  0  0  0  0  0
    8.0833   14.2388   25.6050 C   0  0  0  0  0  0  0  0  0  0  0  0
    5.8895    9.9809   25.9707 C   0  0  0  0  0  0  0  0  0  0  0  0
    8.1724    9.5660   24.0206 N   0  0  0  0  0  0  0  0  0  0  0  0
    6.8035   12.2108   25.9677 N   0  0  0  0  0  0  0  0  0  0  0  0
    6.8606   10.9461   25.5123 N   0  0  0  0  0  0  0  0  0  0  0  0
   10.9853   13.3545   22.1688 N   0  0  0  0  0  0  0  0  0  0  0  0
   10.5269   14.0641   24.3354 O   0  0  0  0  0  0  0  0  0  0  0  0
    8.5426    7.6061   22.2803 O   0  0  0  0  0  0  0  0  0  0  0  0
   10.8463   13.9099   19.1741 Cl  0  0  0  0  0  0  0  0  0  0  0  0
   11.0815    5.9315   21.0336 H   0  0  0  0  0  0  0  0  0  0  0  0
   14.0336   16.6831   22.8557 H   0  0  0  0  0  0  0  0  0  0  0  0
   12.5965   14.8473   23.6446 H   0  0  0  0  0  0  0  0  0  0  0  0
   11.7447    8.3408   22.1322 H   0  0  0  0  0  0  0  0  0  0  0  0
   10.8433   10.8117   22.2971 H   0  0  0  0  0  0  0  0  0  0  0  0
   12.6519   16.0623   18.8312 H   0  0  0  0  0  0  0  0  0  0  0  0
    8.3457    5.7509   21.3842 H   0  0  0  0  0  0  0  0  0  0  0  0
   15.2914   17.2175   20.0323 H   0  0  0  0  0  0  0  0  0  0  0  0
   13.8643   18.1056   19.4440 H   0  0  0  0  0  0  0  0  0  0  0  0
   14.4344   18.3641   21.0919 H   0  0  0  0  0  0  0  0  0  0  0  0
    7.5319   14.8782   24.8951 H   0  0  0  0  0  0  0  0  0  0  0  0
    7.7847   14.5389   26.6249 H   0  0  0  0  0  0  0  0  0  0  0  0
    9.1551   14.4905   25.5172 H   0  0  0  0  0  0  0  0  0  0  0  0
    6.2900    9.4987   26.8662 H   0  0  0  0  0  0  0  0  0  0  0  0
    4.9493   10.4906   26.1990 H   0  0  0  0  0  0  0  0  0  0  0  0
    5.7144    9.2425   25.1833 H   0  0  0  0  0  0  0  0  0  0  0  0
   10.8038   12.5976   21.5143 H   0  0  0  0  0  0  0  0  0  0  0  0
  1  4  1  0  0  0  0
  1  7  2  0  0  0  0
  2  3  1  0  0  0  0
  2 10  2  0  0  0  0
  3 11  2  0  0  0  0
  4 14  2  0  0  0  0
  5  9  1  0  0  0  0
  5 13  2  0  0  0  0
  6 10  1  0  0  0  0
  6 12  2  0  0  0  0
  7 26  1  0  0  0  0
  8  9  2  0  0  0  0
  8 15  1  0  0  0  0
  8 16  1  0  0  0  0
  9 17  1  0  0  0  0
 10 18  1  0  0  0  0
 11 12  1  0  0  0  0
 11 24  1  0  0  0  0
 12 27  1  0  0  0  0
 13 14  1  0  0  0  0
 13 21  1  0  0  0  0
 14 26  1  0  0  0  0
 15 19  1  0  0  0  0
 15 22  2  0  0  0  0
 16 21  2  0  0  0  0
 16 23  1  0  0  0  0
 17 24  1  0  0  0  0
 17 25  2  0  0  0  0
 20 23  1  0  0  0  0
 22 23  1  0  0  0  0
  1 28  1  0  0  0  0
  2 29  1  0  0  0  0
  3 30  1  0  0  0  0
  4 31  1  0  0  0  0
  5 32  1  0  0  0  0
  6 33  1  0  0  0  0
  7 34  1  0  0  0  0
 18 35  1  0  0  0  0
 18 36  1  0  0  0  0
 18 37  1  0  0  0  0
 19 38  1  0  0  0  0
 19 39  1  0  0  0  0
 19 40  1  0  0  0  0
 20 41  1  0  0  0  0
 20 42  1  0  0  0  0
 20 43  1  0  0  0  0
 24 44  1  0  0  0  0
M  END
> <Catalog ID>
Z240172688

> <PlateID>
1041831-R-13

> <Well>
H09

> <MW (desalted)>
380.828

> <ClogP>
3.910

> <HBD>
1

> <TPSA>
72.950

> <RotBonds>
3

> <ROCS_ShapeQuery>
A71EV2A-x0451_0A_A71EV2A-x0310_0A_A71EV2A-x0416_0A_peptide

> <ROCS_TanimotoCombo>
0.563 

> <ROCS_ShapeTanimoto>
0.379 

> <ROCS_ColorTanimoto>
0.185 

> <ROCS_RefTversky>
0.336 

> <ROCS_RefColorTversky>
0.208 

> <ROCS_RefTverskyCombo>
0.544 

> <ROCS_FitTversky>
1.498 

> <ROCS_FitColorTversky>
0.625 

> <ROCS_FitTverskyCombo>
2.122 

> <ROCS_ColorScore>
-6.347

> <ROCS_Overlap>
2340.401

> <ROCS_Rank>
31                  

$$$$
untitled-dbase-243_491
  -OEChem-11132311063D

 47 50  0     1  0  0  0  0  0999 V2000
    6.8382   12.7760   26.1214 C   0  0  0  0  0  0  0  0  0  0  0  0
    6.2869   11.5007   26.1282 C   0  0  0  0  0  0  0  0  0  0  0  0
    7.9395   13.0441   25.3136 C   0  0  0  0  0  0  0  0  0  0  0  0
    6.8377   10.4970   25.3276 C   0  0  0  0  0  0  0  0  0  0  0  0
   10.1253   11.2584   22.9022 C   0  0  0  0  0  0  0  0  0  0  0  0
    8.4933   12.0343   24.5084 C   0  0  0  0  0  0  0  0  0  0  0  0
    9.6018   12.2767   23.6858 C   0  0  0  0  0  0  0  0  0  0  0  0
    7.9387   10.7373   24.5101 C   0  0  0  0  0  0  0  0  0  0  0  0
    9.5150   10.0225   22.9708 C   0  0  0  0  0  0  0  0  0  0  0  0
   11.9063   14.8530   22.2089 C   0  0  0  0  0  0  0  0  0  0  0  0
   13.7246   15.6570   18.3762 C   0  0  0  0  0  0  0  0  0  0  0  0
   14.5647   15.8479   19.6413 C   0  0  0  0  0  0  0  0  0  0  0  0
   11.8817   14.5963   19.7264 C   0  0  0  0  0  0  0  0  0  0  0  0
   12.7524   14.7415   20.9782 C   0  0  1  0  0  0  0  0  0  0  0  0
   12.3007   15.8184   18.9082 C   0  0  1  0  0  0  0  0  0  0  0  0
   13.4900   16.0564   20.7069 C   0  0  2  0  0  0  0  0  0  0  0  0
   11.1978    9.2411   21.3222 C   0  0  0  0  0  0  0  0  0  0  0  0
    9.4713    7.6626   22.2031 C   0  0  0  0  0  0  0  0  0  0  0  0
   10.2640   13.6221   23.6126 C   0  0  0  0  0  0  0  0  0  0  0  0
    8.4446    9.7471   23.7508 N   0  0  0  0  0  0  0  0  0  0  0  0
   11.1487   13.7283   22.4746 N   0  0  0  0  0  0  0  0  0  0  0  0
   10.0537    8.9858   22.1690 N   0  0  0  0  0  0  0  0  0  0  0  0
   11.9375   15.8829   22.8723 O   0  0  0  0  0  0  0  0  0  0  0  0
   12.4998   16.7985   19.9510 O   0  0  0  0  0  0  0  0  0  0  0  0
    6.4132   13.5594   26.7415 H   0  0  0  0  0  0  0  0  0  0  0  0
    5.4276   11.2816   26.7553 H   0  0  0  0  0  0  0  0  0  0  0  0
    8.3512   14.0504   25.3268 H   0  0  0  0  0  0  0  0  0  0  0  0
    6.3880    9.5059   25.3510 H   0  0  0  0  0  0  0  0  0  0  0  0
   10.9833   11.4319   22.2600 H   0  0  0  0  0  0  0  0  0  0  0  0
   13.9609   16.4505   17.6584 H   0  0  0  0  0  0  0  0  0  0  0  0
   13.8929   14.6912   17.8908 H   0  0  0  0  0  0  0  0  0  0  0  0
   15.2218   14.9994   19.8527 H   0  0  0  0  0  0  0  0  0  0  0  0
   15.1825   16.7468   19.5365 H   0  0  0  0  0  0  0  0  0  0  0  0
   12.0654   13.6590   19.1918 H   0  0  0  0  0  0  0  0  0  0  0  0
   10.8146   14.6482   19.9716 H   0  0  0  0  0  0  0  0  0  0  0  0
   13.4341   13.8962   21.1162 H   0  0  0  0  0  0  0  0  0  0  0  0
   11.5694   16.1400   18.1635 H   0  0  0  0  0  0  0  0  0  0  0  0
   13.8219   16.6064   21.5910 H   0  0  0  0  0  0  0  0  0  0  0  0
   11.4670    8.3217   20.7816 H   0  0  0  0  0  0  0  0  0  0  0  0
   10.9494   10.0320   20.5991 H   0  0  0  0  0  0  0  0  0  0  0  0
   12.0474    9.5643   21.9416 H   0  0  0  0  0  0  0  0  0  0  0  0
   10.0226    7.0010   21.5187 H   0  0  0  0  0  0  0  0  0  0  0  0
    9.5300    7.2626   23.2261 H   0  0  0  0  0  0  0  0  0  0  0  0
    8.4180    7.7175   21.8908 H   0  0  0  0  0  0  0  0  0  0  0  0
    9.5149   14.4174   23.5328 H   0  0  0  0  0  0  0  0  0  0  0  0
   10.8532   13.8197   24.5143 H   0  0  0  0  0  0  0  0  0  0  0  0
   11.2168   12.9385   21.8398 H   0  0  0  0  0  0  0  0  0  0  0  0
  1  2  2  0  0  0  0
  1  3  1  0  0  0  0
  2  4  1  0  0  0  0
  3  6  2  0  0  0  0
  4  8  2  0  0  0  0
  5  7  2  0  0  0  0
  5  9  1  0  0  0  0
  6  7  1  0  0  0  0
  6  8  1  0  0  0  0
  7 19  1  0  0  0  0
  8 20  1  0  0  0  0
  9 20  2  0  0  0  0
  9 22  1  0  0  0  0
 10 14  1  0  0  0  0
 10 21  1  0  0  0  0
 10 23  2  0  0  0  0
 11 12  1  0  0  0  0
 11 15  1  0  0  0  0
 12 16  1  0  0  0  0
 13 14  1  0  0  0  0
 13 15  1  0  0  0  0
 14 16  1  0  0  0  0
 15 24  1  0  0  0  0
 16 24  1  0  0  0  0
 17 22  1  0  0  0  0
 18 22  1  0  0  0  0
 19 21  1  0  0  0  0
  1 25  1  0  0  0  0
  2 26  1  0  0  0  0
  3 27  1  0  0  0  0
  4 28  1  0  0  0  0
  5 29  1  0  0  0  0
 11 30  1  0  0  0  0
 11 31  1  0  0  0  0
 12 32  1  0  0  0  0
 12 33  1  0  0  0  0
 13 34  1  0  0  0  0
 13 35  1  0  0  0  0
 14 36  1  0  0  0  0
 15 37  1  0  0  0  0
 16 38  1  0  0  0  0
 17 39  1  0  0  0  0
 17 40  1  0  0  0  0
 17 41  1  0  0  0  0
 18 42  1  0  0  0  0
 18 43  1  0  0  0  0
 18 44  1  0  0  0  0
 19 45  1  0  0  0  0
 19 46  1  0  0  0  0
 21 47  1  0  0  0  0
M  END
> <Catalog ID>
Z1286777582

> <PlateID>
1041831-R-04

> <Well>
A04

> <MW (desalted)>
325.405

> <ClogP>
1.988

> <HBD>
1

> <TPSA>
54.460

> <RotBonds>
4

> <ROCS_ShapeQuery>
A71EV2A-x0451_0A_A71EV2A-x0310_0A_A71EV2A-x0416_0A_peptide

> <ROCS_TanimotoCombo>
0.563 

> <ROCS_ShapeTanimoto>
0.369 

> <ROCS_ColorTanimoto>
0.195 

> <ROCS_RefTversky>
0.324 

> <ROCS_RefColorTversky>
0.234 

> <ROCS_RefTverskyCombo>
0.558 

> <ROCS_FitTversky>
1.589 

> <ROCS_FitColorTversky>
0.538 

> <ROCS_FitTverskyCombo>
2.128 

> <ROCS_ColorScore>
-7.178

> <ROCS_Overlap>
2253.840

> <ROCS_Rank>
32                  

$$$$
untitled-dbase-988_260
  -OEChem-11132311063D

 44 47  0     0  0  0  0  0  0999 V2000
    4.5627   13.3890   28.4577 C   0  0  0  0  0  0  0  0  0  0  0  0
    5.1175   14.2599   27.5200 C   0  0  0  0  0  0  0  0  0  0  0  0
    4.9016   12.0360   28.4391 C   0  0  0  0  0  0  0  0  0  0  0  0
    6.0110   13.7778   26.5635 C   0  0  0  0  0  0  0  0  0  0  0  0
    5.7951   11.5539   27.4826 C   0  0  0  0  0  0  0  0  0  0  0  0
   12.5948   15.9762   21.1423 C   0  0  0  0  0  0  0  0  0  0  0  0
   11.6697   15.2586   21.8924 C   0  0  0  0  0  0  0  0  0  0  0  0
   13.0864   13.9843   19.9393 C   0  0  0  0  0  0  0  0  0  0  0  0
    9.7924   10.4590   22.7793 C   0  0  0  0  0  0  0  0  0  0  0  0
    6.3498   12.4248   26.5448 C   0  0  0  0  0  0  0  0  0  0  0  0
   13.3208   15.3343   20.1452 C   0  0  0  0  0  0  0  0  0  0  0  0
    8.3069    9.1181   23.5065 C   0  0  0  0  0  0  0  0  0  0  0  0
   11.5092   13.9121   21.6082 C   0  0  0  0  0  0  0  0  0  0  0  0
    8.0926   10.2986   24.1834 C   0  0  0  0  0  0  0  0  0  0  0  0
    8.3142   12.9162   25.0862 C   0  0  0  0  0  0  0  0  0  0  0  0
    7.2840   11.9209   25.5447 C   0  0  0  0  0  0  0  0  0  0  0  0
    9.1751   12.4698   24.1582 C   0  0  0  0  0  0  0  0  0  0  0  0
    7.5555    7.9079   23.6529 C   0  0  0  0  0  0  0  0  0  0  0  0
   10.1851   13.4257   23.6930 C   0  0  0  0  0  0  0  0  0  0  0  0
   14.3166   16.0753   19.3257 C   0  0  0  0  0  0  0  0  0  0  0  0
   12.1962   13.2540   20.6476 N   0  0  0  0  0  0  0  0  0  0  0  0
    9.3610    9.2251   22.6385 N   0  0  0  0  0  0  0  0  0  0  0  0
    7.1924   10.6898   25.1240 N   0  0  0  0  0  0  0  0  0  0  0  0
    9.0618   11.1623   23.7044 N   0  0  0  0  0  0  0  0  0  0  0  0
    7.9171    6.7968   22.8774 N   0  0  0  0  0  0  0  0  0  0  0  0
   10.5645   13.1905   22.3781 N   0  0  0  0  0  0  0  0  0  0  0  0
    6.5791    7.8155   24.4365 O   0  0  0  0  0  0  0  0  0  0  0  0
   10.5909   14.3048   24.4526 O   0  0  0  0  0  0  0  0  0  0  0  0
    3.8670   13.7643   29.2024 H   0  0  0  0  0  0  0  0  0  0  0  0
    4.8534   15.3133   27.5346 H   0  0  0  0  0  0  0  0  0  0  0  0
    4.4699   11.3579   29.1694 H   0  0  0  0  0  0  0  0  0  0  0  0
    6.4374   14.4653   25.8375 H   0  0  0  0  0  0  0  0  0  0  0  0
    6.0518   10.4977   27.4774 H   0  0  0  0  0  0  0  0  0  0  0  0
   12.7442   17.0339   21.3408 H   0  0  0  0  0  0  0  0  0  0  0  0
   11.0987   15.7521   22.6722 H   0  0  0  0  0  0  0  0  0  0  0  0
   13.6232   13.4306   19.1752 H   0  0  0  0  0  0  0  0  0  0  0  0
   10.6244   10.8908   22.2400 H   0  0  0  0  0  0  0  0  0  0  0  0
    8.3214   13.9165   25.5012 H   0  0  0  0  0  0  0  0  0  0  0  0
   15.3085   16.0368   19.7957 H   0  0  0  0  0  0  0  0  0  0  0  0
   14.3982   15.6542   18.3136 H   0  0  0  0  0  0  0  0  0  0  0  0
   14.0330   17.1305   19.2050 H   0  0  0  0  0  0  0  0  0  0  0  0
    8.6984    6.8807   22.2361 H   0  0  0  0  0  0  0  0  0  0  0  0
    7.4239    5.9118   22.9357 H   0  0  0  0  0  0  0  0  0  0  0  0
   10.1213   12.4116   21.8950 H   0  0  0  0  0  0  0  0  0  0  0  0
  1  2  2  0  0  0  0
  1  3  1  0  0  0  0
  2  4  1  0  0  0  0
  3  5  2  0  0  0  0
  4 10  2  0  0  0  0
  5 10  1  0  0  0  0
  6  7  1  0  0  0  0
  6 11  2  0  0  0  0
  7 13  2  0  0  0  0
  8 11  1  0  0  0  0
  8 21  2  0  0  0  0
  9 22  2  0  0  0  0
  9 24  1  0  0  0  0
 10 16  1  0  0  0  0
 11 20  1  0  0  0  0
 12 14  2  0  0  0  0
 12 18  1  0  0  0  0
 12 22  1  0  0  0  0
 13 21  1  0  0  0  0
 13 26  1  0  0  0  0
 14 23  1  0  0  0  0
 14 24  1  0  0  0  0
 15 16  1  0  0  0  0
 15 17  2  0  0  0  0
 16 23  2  0  0  0  0
 17 19  1  0  0  0  0
 17 24  1  0  0  0  0
 18 25  1  0  0  0  0
 18 27  2  0  0  0  0
 19 26  1  0  0  0  0
 19 28  2  0  0  0  0
  1 29  1  0  0  0  0
  2 30  1  0  0  0  0
  3 31  1  0  0  0  0
  4 32  1  0  0  0  0
  5 33  1  0  0  0  0
  6 34  1  0  0  0  0
  7 35  1  0  0  0  0
  8 36  1  0  0  0  0
  9 37  1  0  0  0  0
 15 38  1  0  0  0  0
 20 39  1  0  0  0  0
 20 40  1  0  0  0  0
 20 41  1  0  0  0  0
 25 42  1  0  0  0  0
 25 43  1  0  0  0  0
 26 44  1  0  0  0  0
M  END
> <Catalog ID>
Z244347700

> <PlateID>
1041831-R-13

> <Well>
C09

> <MW (desalted)>
372.380

> <ClogP>
2.909

> <HBD>
2

> <TPSA>
115.270

> <RotBonds>
4

> <ROCS_ShapeQuery>
A71EV2A-x0451_0A_A71EV2A-x0310_0A_A71EV2A-x0416_0A_peptide

> <ROCS_TanimotoCombo>
0.562 

> <ROCS_ShapeTanimoto>
0.400 

> <ROCS_ColorTanimoto>
0.163 

> <ROCS_RefTversky>
0.352 

> <ROCS_RefColorTversky>
0.199 

> <ROCS_RefTverskyCombo>
0.551 

> <ROCS_FitTversky>
1.517 

> <ROCS_FitColorTversky>
0.470 

> <ROCS_FitTverskyCombo>
1.987 

> <ROCS_ColorScore>
-6.114

> <ROCS_Overlap>
2449.395

> <ROCS_Rank>
33                  

$$$$
untitled-dbase-446_6
  -OEChem-11132311063D

 49 52  0     1  0  0  0  0  0999 V2000
    9.9529   10.7305   23.0165 C   0  0  0  0  0  0  0  0  0  0  0  0
    7.8985   13.0159   25.2175 C   0  0  0  0  0  0  0  0  0  0  0  0
    8.5644   12.0416   24.4475 C   0  0  0  0  0  0  0  0  0  0  0  0
    9.6479   11.9773   23.5626 C   0  0  0  0  0  0  0  0  0  0  0  0
    9.1777    9.6320   23.3729 C   0  0  0  0  0  0  0  0  0  0  0  0
    7.8755   10.8694   24.7171 C   0  0  0  0  0  0  0  0  0  0  0  0
   10.4435   13.1829   23.2154 C   0  0  0  0  0  0  0  0  0  0  0  0
   13.8453   16.7444   21.4629 C   0  0  0  0  0  0  0  0  0  0  0  0
   12.5940   17.3636   20.8456 C   0  0  0  0  0  0  0  0  0  0  0  0
   14.5480   15.7627   20.5284 C   0  0  0  0  0  0  0  0  0  0  0  0
   10.9601   15.3677   20.8352 C   0  0  0  0  0  0  0  0  0  0  0  0
   12.9106   13.7689   20.5162 C   0  0  0  0  0  0  0  0  0  0  0  0
   11.7502   16.3943   19.9963 C   0  0  2  0  0  0  0  0  0  0  0  0
   13.6004   14.8790   19.6952 C   0  0  1  0  0  0  0  0  0  0  0  0
   11.8289   14.2794   21.4749 C   0  0  0  0  0  0  0  0  0  0  0  0
    9.5173    8.3022   22.7791 C   0  0  0  0  0  0  0  0  0  0  0  0
    5.9012   10.3237   26.1694 C   0  0  0  0  0  0  0  0  0  0  0  0
   13.0652   16.4921   17.9346 C   0  0  0  0  0  0  0  0  0  0  0  0
    6.8756   12.5135   25.9169 N   0  0  0  0  0  0  0  0  0  0  0  0
    8.1223    9.6437   24.2228 N   0  0  0  0  0  0  0  0  0  0  0  0
    6.8863   11.2078   25.5927 N   0  0  0  0  0  0  0  0  0  0  0  0
   12.5531   15.6529   19.0128 N   0  0  0  0  0  0  0  0  0  0  0  0
   11.0079   13.1892   21.9504 N   0  0  0  0  0  0  0  0  0  0  0  0
   10.5742   14.0760   24.0484 O   0  0  0  0  0  0  0  0  0  0  0  0
   10.7829   10.6209   22.3239 H   0  0  0  0  0  0  0  0  0  0  0  0
    8.1134   14.0719   25.3004 H   0  0  0  0  0  0  0  0  0  0  0  0
   14.5454   17.5427   21.7461 H   0  0  0  0  0  0  0  0  0  0  0  0
   13.5932   16.2497   22.4068 H   0  0  0  0  0  0  0  0  0  0  0  0
   11.9788   17.8135   21.6346 H   0  0  0  0  0  0  0  0  0  0  0  0
   12.9132   18.1943   20.2000 H   0  0  0  0  0  0  0  0  0  0  0  0
   15.1700   16.3457   19.8342 H   0  0  0  0  0  0  0  0  0  0  0  0
   15.2423   15.1390   21.1049 H   0  0  0  0  0  0  0  0  0  0  0  0
   10.3922   15.8890   21.6158 H   0  0  0  0  0  0  0  0  0  0  0  0
   10.2125   14.8947   20.1848 H   0  0  0  0  0  0  0  0  0  0  0  0
   12.4612   13.0519   19.8165 H   0  0  0  0  0  0  0  0  0  0  0  0
   13.6641   13.2057   21.0808 H   0  0  0  0  0  0  0  0  0  0  0  0
   10.9995   16.9955   19.4657 H   0  0  0  0  0  0  0  0  0  0  0  0
   14.2131   14.3642   18.9427 H   0  0  0  0  0  0  0  0  0  0  0  0
   12.2991   14.6734   22.3751 H   0  0  0  0  0  0  0  0  0  0  0  0
   10.2355    7.7757   23.4171 H   0  0  0  0  0  0  0  0  0  0  0  0
    8.6221    7.6790   22.6694 H   0  0  0  0  0  0  0  0  0  0  0  0
    9.9531    8.4164   21.7795 H   0  0  0  0  0  0  0  0  0  0  0  0
    6.3106    9.9244   27.1011 H   0  0  0  0  0  0  0  0  0  0  0  0
    4.9810   10.8814   26.3643 H   0  0  0  0  0  0  0  0  0  0  0  0
    5.6869    9.5137   25.4666 H   0  0  0  0  0  0  0  0  0  0  0  0
   13.6538   15.8767   17.2383 H   0  0  0  0  0  0  0  0  0  0  0  0
   12.2231   16.9512   17.3960 H   0  0  0  0  0  0  0  0  0  0  0  0
   13.7046   17.2814   18.3566 H   0  0  0  0  0  0  0  0  0  0  0  0
   10.9088   12.3866   21.3383 H   0  0  0  0  0  0  0  0  0  0  0  0
  1  4  1  0  0  0  0
  1  5  2  0  0  0  0
  2  3  1  0  0  0  0
  2 19  2  0  0  0  0
  3  4  2  0  0  0  0
  3  6  1  0  0  0  0
  4  7  1  0  0  0  0
  5 16  1  0  0  0  0
  5 20  1  0  0  0  0
  6 20  2  0  0  0  0
  6 21  1  0  0  0  0
  7 23  1  0  0  0  0
  7 24  2  0  0  0  0
  8  9  1  0  0  0  0
  8 10  1  0  0  0  0
  9 13  1  0  0  0  0
 10 14  1  0  0  0  0
 11 13  1  0  0  0  0
 11 15  1  0  0  0  0
 12 14  1  0  0  0  0
 12 15  1  0  0  0  0
 13 22  1  0  0  0  0
 14 22  1  0  0  0  0
 15 23  1  0  0  0  0
 17 21  1  0  0  0  0
 18 22  1  0  0  0  0
 19 21  1  0  0  0  0
  1 25  1  0  0  0  0
  2 26  1  0  0  0  0
  8 27  1  0  0  0  0
  8 28  1  0  0  0  0
  9 29  1  0  0  0  0
  9 30  1  0  0  0  0
 10 31  1  0  0  0  0
 10 32  1  0  0  0  0
 11 33  1  0  0  0  0
 11 34  1  0  0  0  0
 12 35  1  0  0  0  0
 12 36  1  0  0  0  0
 13 37  1  0  0  0  0
 14 38  1  0  0  0  0
 15 39  1  0  0  0  0
 16 40  1  0  0  0  0
 16 41  1  0  0  0  0
 16 42  1  0  0  0  0
 17 43  1  0  0  0  0
 17 44  1  0  0  0  0
 17 45  1  0  0  0  0
 18 46  1  0  0  0  0
 18 47  1  0  0  0  0
 18 48  1  0  0  0  0
 23 49  1  0  0  0  0
M  END
> <Catalog ID>
Z1333907815

> <PlateID>
1041831-R-06

> <Well>
E07

> <MW (desalted)>
327.424

> <ClogP>
1.400

> <HBD>
1

> <TPSA>
63.050

> <RotBonds>
2

> <ROCS_ShapeQuery>
A71EV2A-x0451_0A_A71EV2A-x0310_0A_A71EV2A-x0416_0A_peptide

> <ROCS_TanimotoCombo>
0.561 

> <ROCS_ShapeTanimoto>
0.366 

> <ROCS_ColorTanimoto>
0.195 

> <ROCS_RefTversky>
0.323 

> <ROCS_RefColorTversky>
0.219 

> <ROCS_RefTverskyCombo>
0.541 

> <ROCS_FitTversky>
1.589 

> <ROCS_FitColorTversky>
0.642 

> <ROCS_FitTverskyCombo>
2.231 

> <ROCS_ColorScore>
-6.692

> <ROCS_Overlap>
2241.946

> <ROCS_Rank>
34                  

$$$$
untitled-dbase-1165_655
  -OEChem-11132311063D

 43 47  0     0  0  0  0  0  0999 V2000
   11.5235    7.6687   20.8163 C   0  0  0  0  0  0  0  0  0  0  0  0
   12.1103    8.7489   21.4754 C   0  0  0  0  0  0  0  0  0  0  0  0
   10.1650    7.4020   20.9869 C   0  0  0  0  0  0  0  0  0  0  0  0
   11.3386    9.5624   22.3052 C   0  0  0  0  0  0  0  0  0  0  0  0
    9.3934    8.2154   21.8167 C   0  0  0  0  0  0  0  0  0  0  0  0
   11.7888   14.4276   20.7889 C   0  0  0  0  0  0  0  0  0  0  0  0
    8.4193   11.7991   24.4146 C   0  0  0  0  0  0  0  0  0  0  0  0
    9.9802    9.2956   22.4759 C   0  0  0  0  0  0  0  0  0  0  0  0
    7.6845   10.6322   24.6213 C   0  0  0  0  0  0  0  0  0  0  0  0
   12.7109   14.2283   21.8036 C   0  0  0  0  0  0  0  0  0  0  0  0
    9.4154   11.4498   23.5523 C   0  0  0  0  0  0  0  0  0  0  0  0
   13.6653   15.5043   20.4341 C   0  0  0  0  0  0  0  0  0  0  0  0
   12.1532   15.8637   18.7178 C   0  0  0  0  0  0  0  0  0  0  0  0
   13.1919   16.6014   18.2900 C   0  0  0  0  0  0  0  0  0  0  0  0
   11.1116   13.3120   23.5373 C   0  0  0  0  0  0  0  0  0  0  0  0
    7.8787   12.9414   25.1665 C   0  0  0  0  0  0  0  0  0  0  0  0
    6.5495   10.8216   25.5389 C   0  0  0  0  0  0  0  0  0  0  0  0
    6.8731   12.2333   26.1413 C   0  0  0  0  0  0  0  0  0  0  0  0
   12.5485   13.3928   23.0463 C   0  0  0  0  0  0  0  0  0  0  0  0
    8.1402    9.5793   23.9573 N   0  0  0  0  0  0  0  0  0  0  0  0
   13.8913   14.9105   21.5729 N   0  0  0  0  0  0  0  0  0  0  0  0
   12.4302   15.2547   19.9184 N   0  0  0  0  0  0  0  0  0  0  0  0
    9.2085   10.1103   23.3064 N   0  0  0  0  0  0  0  0  0  0  0  0
   10.4305   12.1848   23.0023 N   0  0  0  0  0  0  0  0  0  0  0  0
   10.6328   14.1423   24.3031 O   0  0  0  0  0  0  0  0  0  0  0  0
   14.5765   16.5576   19.3963 S   0  0  0  0  0  0  0  0  0  0  0  0
   12.1235    7.0362   20.1688 H   0  0  0  0  0  0  0  0  0  0  0  0
   13.1677    8.9576   21.3417 H   0  0  0  0  0  0  0  0  0  0  0  0
    9.7086    6.5614   20.4722 H   0  0  0  0  0  0  0  0  0  0  0  0
   11.8083   10.4016   22.8125 H   0  0  0  0  0  0  0  0  0  0  0  0
    8.3355    7.9966   21.9402 H   0  0  0  0  0  0  0  0  0  0  0  0
   10.7829   14.0654   20.6276 H   0  0  0  0  0  0  0  0  0  0  0  0
   11.2019   15.7288   18.2259 H   0  0  0  0  0  0  0  0  0  0  0  0
   13.2159   17.1722   17.3725 H   0  0  0  0  0  0  0  0  0  0  0  0
    8.6442   13.4913   25.7204 H   0  0  0  0  0  0  0  0  0  0  0  0
    7.3445   13.6277   24.5019 H   0  0  0  0  0  0  0  0  0  0  0  0
    5.6036   10.8496   24.9889 H   0  0  0  0  0  0  0  0  0  0  0  0
    6.4959   10.0610   26.3222 H   0  0  0  0  0  0  0  0  0  0  0  0
    7.3609   12.0981   27.1159 H   0  0  0  0  0  0  0  0  0  0  0  0
    5.9698   12.8287   26.3075 H   0  0  0  0  0  0  0  0  0  0  0  0
   12.9127   12.3752   22.8561 H   0  0  0  0  0  0  0  0  0  0  0  0
   13.1732   13.8042   23.8493 H   0  0  0  0  0  0  0  0  0  0  0  0
   10.7475   11.8759   22.0627 H   0  0  0  0  0  0  0  0  0  0  0  0
  1  2  2  0  0  0  0
  1  3  1  0  0  0  0
  2  4  1  0  0  0  0
  3  5  2  0  0  0  0
  4  8  2  0  0  0  0
  5  8  1  0  0  0  0
  6 10  2  0  0  0  0
  6 22  1  0  0  0  0
  7  9  1  0  0  0  0
  7 11  2  0  0  0  0
  7 16  1  0  0  0  0
  8 23  1  0  0  0  0
  9 17  1  0  0  0  0
  9 20  2  0  0  0  0
 10 19  1  0  0  0  0
 10 21  1  0  0  0  0
 11 23  1  0  0  0  0
 11 24  1  0  0  0  0
 12 21  2  0  0  0  0
 12 22  1  0  0  0  0
 12 26  1  0  0  0  0
 13 14  2  0  0  0  0
 13 22  1  0  0  0  0
 14 26  1  0  0  0  0
 15 19  1  0  0  0  0
 15 24  1  0  0  0  0
 15 25  2  0  0  0  0
 16 18  1  0  0  0  0
 17 18  1  0  0  0  0
 20 23  1  0  0  0  0
  1 27  1  0  0  0  0
  2 28  1  0  0  0  0
  3 29  1  0  0  0  0
  4 30  1  0  0  0  0
  5 31  1  0  0  0  0
  6 32  1  0  0  0  0
 13 33  1  0  0  0  0
 14 34  1  0  0  0  0
 16 35  1  0  0  0  0
 16 36  1  0  0  0  0
 17 37  1  0  0  0  0
 17 38  1  0  0  0  0
 18 39  1  0  0  0  0
 18 40  1  0  0  0  0
 19 41  1  0  0  0  0
 19 42  1  0  0  0  0
 24 43  1  0  0  0  0
M  END
> <Catalog ID>
Z203772372

> <PlateID>
1041831-R-15

> <Well>
E06

> <MW (desalted)>
363.436

> <ClogP>
3.198

> <HBD>
1

> <TPSA>
64.220

> <RotBonds>
4

> <ROCS_ShapeQuery>
A71EV2A-x0451_0A_A71EV2A-x0310_0A_A71EV2A-x0416_0A_peptide

> <ROCS_TanimotoCombo>
0.561 

> <ROCS_ShapeTanimoto>
0.356 

> <ROCS_ColorTanimoto>
0.205 

> <ROCS_RefTversky>
0.320 

> <ROCS_RefColorTversky>
0.233 

> <ROCS_RefTverskyCombo>
0.552 

> <ROCS_FitTversky>
1.462 

> <ROCS_FitColorTversky>
0.637 

> <ROCS_FitTverskyCombo>
2.099 

> <ROCS_ColorScore>
-7.123

> <ROCS_Overlap>
2224.458

> <ROCS_Rank>
35                  

$$$$
untitled-dbase-863_6134
  -OEChem-11132311063D

 47 49  0     0  0  0  0  0  0999 V2000
   12.4725   17.3374   24.6198 C   0  0  0  0  0  0  0  0  0  0  0  0
   13.3693   16.6662   25.4509 C   0  0  0  0  0  0  0  0  0  0  0  0
   11.9628   16.7031   23.4868 C   0  0  0  0  0  0  0  0  0  0  0  0
   13.7566   15.3607   25.1490 C   0  0  0  0  0  0  0  0  0  0  0  0
   10.2095   10.8986   23.1079 C   0  0  0  0  0  0  0  0  0  0  0  0
    7.6517   12.7914   25.1484 C   0  0  0  0  0  0  0  0  0  0  0  0
    8.5162   11.9498   24.4205 C   0  0  0  0  0  0  0  0  0  0  0  0
    9.6922   12.0663   23.6691 C   0  0  0  0  0  0  0  0  0  0  0  0
   12.3501   15.3975   23.1849 C   0  0  0  0  0  0  0  0  0  0  0  0
   13.2470   14.7263   24.0160 C   0  0  0  0  0  0  0  0  0  0  0  0
    9.5415    9.6972   23.3197 C   0  0  0  0  0  0  0  0  0  0  0  0
    7.9521   10.6906   24.5530 C   0  0  0  0  0  0  0  0  0  0  0  0
   10.3503   13.3451   23.4784 C   0  0  0  0  0  0  0  0  0  0  0  0
   10.1084    8.4542   22.7115 C   0  0  0  0  0  0  0  0  0  0  0  0
    5.3176    9.0779   24.5402 C   0  0  0  0  0  0  0  0  0  0  0  0
    4.8164   10.3826   26.6504 C   0  0  0  0  0  0  0  0  0  0  0  0
   14.5559   12.8406   24.6381 C   0  0  0  0  0  0  0  0  0  0  0  0
   11.7918   14.7306   21.9612 C   0  0  0  0  0  0  0  0  0  0  0  0
    5.9095    9.8307   25.7334 C   0  0  0  0  0  0  0  0  0  0  0  0
    6.6267   12.1313   25.6975 N   0  0  0  0  0  0  0  0  0  0  0  0
    8.4036    9.5340   24.0372 N   0  0  0  0  0  0  0  0  0  0  0  0
    6.8361   10.8574   25.3186 N   0  0  0  0  0  0  0  0  0  0  0  0
   11.0652   13.5244   22.2865 N   0  0  0  0  0  0  0  0  0  0  0  0
   10.2899   14.2273   24.3557 O   0  0  0  0  0  0  0  0  0  0  0  0
   13.6362   13.4511   23.7351 O   0  0  0  0  0  0  0  0  0  0  0  0
   12.1710   18.3544   24.8541 H   0  0  0  0  0  0  0  0  0  0  0  0
   13.7665   17.1608   26.3323 H   0  0  0  0  0  0  0  0  0  0  0  0
   11.2658   17.2352   22.8448 H   0  0  0  0  0  0  0  0  0  0  0  0
   14.4556   14.8429   25.8002 H   0  0  0  0  0  0  0  0  0  0  0  0
   11.1196   10.9289   22.5151 H   0  0  0  0  0  0  0  0  0  0  0  0
    7.7230   13.8587   25.3037 H   0  0  0  0  0  0  0  0  0  0  0  0
   10.8097    7.9794   23.4064 H   0  0  0  0  0  0  0  0  0  0  0  0
    9.3157    7.7372   22.4680 H   0  0  0  0  0  0  0  0  0  0  0  0
   10.6369    8.6779   21.7773 H   0  0  0  0  0  0  0  0  0  0  0  0
    4.7201    9.7343   23.8986 H   0  0  0  0  0  0  0  0  0  0  0  0
    4.6678    8.2653   24.8822 H   0  0  0  0  0  0  0  0  0  0  0  0
    6.1098    8.6392   23.9234 H   0  0  0  0  0  0  0  0  0  0  0  0
    4.1985   11.1175   26.1227 H   0  0  0  0  0  0  0  0  0  0  0  0
    5.2590   10.8776   27.5214 H   0  0  0  0  0  0  0  0  0  0  0  0
    4.1535    9.5920   27.0179 H   0  0  0  0  0  0  0  0  0  0  0  0
   14.7828   11.8271   24.2983 H   0  0  0  0  0  0  0  0  0  0  0  0
   14.1195   12.8114   25.6397 H   0  0  0  0  0  0  0  0  0  0  0  0
   15.4759   13.4295   24.6606 H   0  0  0  0  0  0  0  0  0  0  0  0
   11.1082   15.4039   21.4325 H   0  0  0  0  0  0  0  0  0  0  0  0
   12.5899   14.4621   21.2612 H   0  0  0  0  0  0  0  0  0  0  0  0
    6.4884    9.1051   26.3194 H   0  0  0  0  0  0  0  0  0  0  0  0
   11.1363   12.7521   21.6321 H   0  0  0  0  0  0  0  0  0  0  0  0
  1  2  2  0  0  0  0
  1  3  1  0  0  0  0
  2  4  1  0  0  0  0
  3  9  2  0  0  0  0
  4 10  2  0  0  0  0
  5  8  1  0  0  0  0
  5 11  2  0  0  0  0
  6  7  1  0  0  0  0
  6 20  2  0  0  0  0
  7  8  2  0  0  0  0
  7 12  1  0  0  0  0
  8 13  1  0  0  0  0
  9 10  1  0  0  0  0
  9 18  1  0  0  0  0
 10 25  1  0  0  0  0
 11 14  1  0  0  0  0
 11 21  1  0  0  0  0
 12 21  2  0  0  0  0
 12 22  1  0  0  0  0
 13 23  1  0  0  0  0
 13 24  2  0  0  0  0
 15 19  1  0  0  0  0
 16 19  1  0  0  0  0
 17 25  1  0  0  0  0
 18 23  1  0  0  0  0
 19 22  1  0  0  0  0
 20 22  1  0  0  0  0
  1 26  1  0  0  0  0
  2 27  1  0  0  0  0
  3 28  1  0  0  0  0
  4 29  1  0  0  0  0
  5 30  1  0  0  0  0
  6 31  1  0  0  0  0
 14 32  1  0  0  0  0
 14 33  1  0  0  0  0
 14 34  1  0  0  0  0
 15 35  1  0  0  0  0
 15 36  1  0  0  0  0
 15 37  1  0  0  0  0
 16 38  1  0  0  0  0
 16 39  1  0  0  0  0
 16 40  1  0  0  0  0
 17 41  1  0  0  0  0
 17 42  1  0  0  0  0
 17 43  1  0  0  0  0
 18 44  1  0  0  0  0
 18 45  1  0  0  0  0
 19 46  1  0  0  0  0
 23 47  1  0  0  0  0
M  END
> <Catalog ID>
Z203061280

> <PlateID>
1041831-R-11

> <Well>
G04

> <MW (desalted)>
338.404

> <ClogP>
3.194

> <HBD>
1

> <TPSA>
69.040

> <RotBonds>
5

> <ROCS_ShapeQuery>
A71EV2A-x0451_0A_A71EV2A-x0310_0A_A71EV2A-x0416_0A_peptide

> <ROCS_TanimotoCombo>
0.561 

> <ROCS_ShapeTanimoto>
0.356 

> <ROCS_ColorTanimoto>
0.205 

> <ROCS_RefTversky>
0.317 

> <ROCS_RefColorTversky>
0.227 

> <ROCS_RefTverskyCombo>
0.544 

> <ROCS_FitTversky>
1.523 

> <ROCS_FitColorTversky>
0.683 

> <ROCS_FitTverskyCombo>
2.206 

> <ROCS_ColorScore>
-6.934

> <ROCS_Overlap>
2203.874

> <ROCS_Rank>
36                  

$$$$
untitled-dbase-1397_5276
  -OEChem-11132311063D

 51 54  0     0  0  0  0  0  0999 V2000
    9.8693   17.3096   21.2741 C   0  0  0  0  0  0  0  0  0  0  0  0
   10.2130   18.0804   22.3791 C   0  0  0  0  0  0  0  0  0  0  0  0
   10.4575   16.0628   21.0932 C   0  0  0  0  0  0  0  0  0  0  0  0
    9.9178   10.7238   22.9807 C   0  0  0  0  0  0  0  0  0  0  0  0
   11.1426   17.5633   23.2668 C   0  0  0  0  0  0  0  0  0  0  0  0
    8.5672   11.9441   24.5226 C   0  0  0  0  0  0  0  0  0  0  0  0
    9.6676   11.9166   23.6579 C   0  0  0  0  0  0  0  0  0  0  0  0
    9.0743    9.6399   23.1959 C   0  0  0  0  0  0  0  0  0  0  0  0
   11.3764   15.6360   22.0384 C   0  0  0  0  0  0  0  0  0  0  0  0
    7.9369   12.8606   25.3827 C   0  0  0  0  0  0  0  0  0  0  0  0
    7.8048   10.7928   24.6474 C   0  0  0  0  0  0  0  0  0  0  0  0
   10.5211   13.0740   23.4643 C   0  0  0  0  0  0  0  0  0  0  0  0
    9.5461    7.1002   23.2328 C   0  0  0  0  0  0  0  0  0  0  0  0
   10.7247    7.7498   22.5778 C   0  0  0  0  0  0  0  0  0  0  0  0
    9.3615    8.3740   22.4541 C   0  0  0  0  0  0  0  0  0  0  0  0
    8.1179   14.1472   28.1548 C   0  0  0  0  0  0  0  0  0  0  0  0
   10.3393   13.6860   27.1176 C   0  0  0  0  0  0  0  0  0  0  0  0
    9.4424   16.0264   27.1861 C   0  0  0  0  0  0  0  0  0  0  0  0
    8.3186   14.2971   25.6663 C   0  0  0  0  0  0  0  0  0  0  0  0
   12.0313   14.2949   21.8748 C   0  0  0  0  0  0  0  0  0  0  0  0
    9.0679   14.5451   27.0053 C   0  0  0  0  0  0  0  0  0  0  0  0
   11.7353   16.3566   23.1245 N   0  0  0  0  0  0  0  0  0  0  0  0
    8.0001    9.6182   24.0204 N   0  0  0  0  0  0  0  0  0  0  0  0
    6.8725   12.3325   25.9937 N   0  0  0  0  0  0  0  0  0  0  0  0
   11.1369   13.2113   22.2132 N   0  0  0  0  0  0  0  0  0  0  0  0
   10.7039   13.8893   24.3880 O   0  0  0  0  0  0  0  0  0  0  0  0
    6.7912   11.0266   25.5279 O   0  0  0  0  0  0  0  0  0  0  0  0
    9.1445   17.6799   20.5554 H   0  0  0  0  0  0  0  0  0  0  0  0
    9.7671   19.0552   22.5403 H   0  0  0  0  0  0  0  0  0  0  0  0
   10.1981   15.4516   20.2354 H   0  0  0  0  0  0  0  0  0  0  0  0
   10.7578   10.6457   22.2956 H   0  0  0  0  0  0  0  0  0  0  0  0
   11.4445   18.1251   24.1446 H   0  0  0  0  0  0  0  0  0  0  0  0
    9.1625    6.1881   22.7906 H   0  0  0  0  0  0  0  0  0  0  0  0
    9.4939    7.1263   24.3145 H   0  0  0  0  0  0  0  0  0  0  0  0
   11.4640    8.2144   23.2195 H   0  0  0  0  0  0  0  0  0  0  0  0
   11.1370    7.2755   21.6951 H   0  0  0  0  0  0  0  0  0  0  0  0
    8.8752    8.2886   21.4926 H   0  0  0  0  0  0  0  0  0  0  0  0
    7.1913   14.7315   28.1227 H   0  0  0  0  0  0  0  0  0  0  0  0
    7.8436   13.0878   28.0965 H   0  0  0  0  0  0  0  0  0  0  0  0
    8.5859   14.3153   29.1314 H   0  0  0  0  0  0  0  0  0  0  0  0
   11.0522   13.9283   26.3216 H   0  0  0  0  0  0  0  0  0  0  0  0
   10.8421   13.8281   28.0797 H   0  0  0  0  0  0  0  0  0  0  0  0
   10.1014   12.6190   27.0349 H   0  0  0  0  0  0  0  0  0  0  0  0
   10.1194   16.3607   26.3913 H   0  0  0  0  0  0  0  0  0  0  0  0
    8.5616   16.6756   27.1502 H   0  0  0  0  0  0  0  0  0  0  0  0
    9.9491   16.1925   28.1432 H   0  0  0  0  0  0  0  0  0  0  0  0
    7.4074   14.9120   25.6430 H   0  0  0  0  0  0  0  0  0  0  0  0
    8.9344   14.6662   24.8337 H   0  0  0  0  0  0  0  0  0  0  0  0
   12.3607   14.1498   20.8401 H   0  0  0  0  0  0  0  0  0  0  0  0
   12.9171   14.2097   22.5130 H   0  0  0  0  0  0  0  0  0  0  0  0
   11.0055   12.4863   21.5154 H   0  0  0  0  0  0  0  0  0  0  0  0
  1  2  2  0  0  0  0
  1  3  1  0  0  0  0
  2  5  1  0  0  0  0
  3  9  2  0  0  0  0
  4  7  1  0  0  0  0
  4  8  2  0  0  0  0
  5 22  2  0  0  0  0
  6  7  2  0  0  0  0
  6 10  1  0  0  0  0
  6 11  1  0  0  0  0
  7 12  1  0  0  0  0
  8 15  1  0  0  0  0
  8 23  1  0  0  0  0
  9 20  1  0  0  0  0
  9 22  1  0  0  0  0
 10 19  1  0  0  0  0
 10 24  2  0  0  0  0
 11 23  2  0  0  0  0
 11 27  1  0  0  0  0
 12 25  1  0  0  0  0
 12 26  2  0  0  0  0
 13 14  1  0  0  0  0
 13 15  1  0  0  0  0
 14 15  1  0  0  0  0
 16 21  1  0  0  0  0
 17 21  1  0  0  0  0
 18 21  1  0  0  0  0
 19 21  1  0  0  0  0
 20 25  1  0  0  0  0
 24 27  1  0  0  0  0
  1 28  1  0  0  0  0
  2 29  1  0  0  0  0
  3 30  1  0  0  0  0
  4 31  1  0  0  0  0
  5 32  1  0  0  0  0
 13 33  1  0  0  0  0
 13 34  1  0  0  0  0
 14 35  1  0  0  0  0
 14 36  1  0  0  0  0
 15 37  1  0  0  0  0
 16 38  1  0  0  0  0
 16 39  1  0  0  0  0
 16 40  1  0  0  0  0
 17 41  1  0  0  0  0
 17 42  1  0  0  0  0
 17 43  1  0  0  0  0
 18 44  1  0  0  0  0
 18 45  1  0  0  0  0
 18 46  1  0  0  0  0
 19 47  1  0  0  0  0
 19 48  1  0  0  0  0
 20 49  1  0  0  0  0
 20 50  1  0  0  0  0
 25 51  1  0  0  0  0
M  END
> <Catalog ID>
Z422338616

> <PlateID>
1041831-R-18

> <Well>
D08

> <MW (desalted)>
364.441

> <ClogP>
3.749

> <HBD>
1

> <TPSA>
80.910

> <RotBonds>
6

> <ROCS_ShapeQuery>
A71EV2A-x0451_0A_A71EV2A-x0310_0A_A71EV2A-x0416_0A_peptide

> <ROCS_TanimotoCombo>
0.561 

> <ROCS_ShapeTanimoto>
0.351 

> <ROCS_ColorTanimoto>
0.210 

> <ROCS_RefTversky>
0.317 

> <ROCS_RefColorTversky>
0.231 

> <ROCS_RefTverskyCombo>
0.548 

> <ROCS_FitTversky>
1.441 

> <ROCS_FitColorTversky>
0.696 

> <ROCS_FitTverskyCombo>
2.137 

> <ROCS_ColorScore>
-7.067

> <ROCS_Overlap>
2204.257

> <ROCS_Rank>
37                  

$$$$
untitled-dbase-1396_1361
  -OEChem-11132311063D

 45 48  0     0  0  0  0  0  0999 V2000
   14.3277   14.6228   23.9296 C   0  0  0  0  0  0  0  0  0  0  0  0
   14.2253   15.8933   24.4850 C   0  0  0  0  0  0  0  0  0  0  0  0
   13.3862   14.1994   22.9981 C   0  0  0  0  0  0  0  0  0  0  0  0
   10.1747   10.7061   23.3090 C   0  0  0  0  0  0  0  0  0  0  0  0
   13.1712   16.6957   24.0788 C   0  0  0  0  0  0  0  0  0  0  0  0
    8.4041   11.9191   24.3503 C   0  0  0  0  0  0  0  0  0  0  0  0
    9.6415   11.9349   23.6964 C   0  0  0  0  0  0  0  0  0  0  0  0
    9.4606    9.5465   23.5878 C   0  0  0  0  0  0  0  0  0  0  0  0
   12.3696   15.0775   22.6586 C   0  0  0  0  0  0  0  0  0  0  0  0
    7.5041   12.8454   24.9061 C   0  0  0  0  0  0  0  0  0  0  0  0
    7.7950   10.6926   24.5677 C   0  0  0  0  0  0  0  0  0  0  0  0
   10.3513   13.1712   23.4260 C   0  0  0  0  0  0  0  0  0  0  0  0
    9.3361    7.4276   22.1152 C   0  0  0  0  0  0  0  0  0  0  0  0
    9.3544    6.9649   23.5385 C   0  0  0  0  0  0  0  0  0  0  0  0
   10.0518    8.2424   23.1578 C   0  0  0  0  0  0  0  0  0  0  0  0
    7.6798   14.8580   26.4136 C   0  0  0  0  0  0  0  0  0  0  0  0
    6.5016   15.0455   24.1928 C   0  0  0  0  0  0  0  0  0  0  0  0
   11.3354   14.6536   21.6561 C   0  0  0  0  0  0  0  0  0  0  0  0
    7.6236   14.3123   24.9665 C   0  0  0  0  0  0  0  0  0  0  0  0
   12.2374   16.3192   23.1767 N   0  0  0  0  0  0  0  0  0  0  0  0
    8.2629    9.4807   24.2165 N   0  0  0  0  0  0  0  0  0  0  0  0
    6.4249   12.2540   25.4264 N   0  0  0  0  0  0  0  0  0  0  0  0
   10.6189   13.4737   22.0842 N   0  0  0  0  0  0  0  0  0  0  0  0
   10.7179   13.9097   24.3595 O   0  0  0  0  0  0  0  0  0  0  0  0
    6.6109   10.8945   25.2116 O   0  0  0  0  0  0  0  0  0  0  0  0
   15.1397   13.9639   24.2222 H   0  0  0  0  0  0  0  0  0  0  0  0
   14.9477   16.2444   25.2128 H   0  0  0  0  0  0  0  0  0  0  0  0
   13.4548   13.2106   22.5574 H   0  0  0  0  0  0  0  0  0  0  0  0
   11.1318   10.6586   22.7965 H   0  0  0  0  0  0  0  0  0  0  0  0
   13.0468   17.6953   24.4821 H   0  0  0  0  0  0  0  0  0  0  0  0
    9.9473    6.8877   21.4014 H   0  0  0  0  0  0  0  0  0  0  0  0
    8.3954    7.7854   21.7145 H   0  0  0  0  0  0  0  0  0  0  0  0
    8.4260    7.0136   24.0951 H   0  0  0  0  0  0  0  0  0  0  0  0
    9.9764    6.1125   23.7846 H   0  0  0  0  0  0  0  0  0  0  0  0
   11.1321    8.2166   23.1363 H   0  0  0  0  0  0  0  0  0  0  0  0
    6.7835   14.5805   26.9790 H   0  0  0  0  0  0  0  0  0  0  0  0
    7.7638   15.9499   26.4390 H   0  0  0  0  0  0  0  0  0  0  0  0
    8.5473   14.4426   26.9385 H   0  0  0  0  0  0  0  0  0  0  0  0
    5.5222   14.7686   24.5987 H   0  0  0  0  0  0  0  0  0  0  0  0
    6.5054   14.7951   23.1264 H   0  0  0  0  0  0  0  0  0  0  0  0
    6.6035   16.1329   24.2789 H   0  0  0  0  0  0  0  0  0  0  0  0
   10.6036   15.4527   21.4950 H   0  0  0  0  0  0  0  0  0  0  0  0
   11.7948   14.4330   20.6869 H   0  0  0  0  0  0  0  0  0  0  0  0
    8.5720   14.6498   24.4916 H   0  0  0  0  0  0  0  0  0  0  0  0
   10.3546   12.8081   21.3653 H   0  0  0  0  0  0  0  0  0  0  0  0
  1  2  2  0  0  0  0
  1  3  1  0  0  0  0
  2  5  1  0  0  0  0
  3  9  2  0  0  0  0
  4  7  1  0  0  0  0
  4  8  2  0  0  0  0
  5 20  2  0  0  0  0
  6  7  2  0  0  0  0
  6 10  1  0  0  0  0
  6 11  1  0  0  0  0
  7 12  1  0  0  0  0
  8 15  1  0  0  0  0
  8 21  1  0  0  0  0
  9 18  1  0  0  0  0
  9 20  1  0  0  0  0
 10 19  1  0  0  0  0
 10 22  2  0  0  0  0
 11 21  2  0  0  0  0
 11 25  1  0  0  0  0
 12 23  1  0  0  0  0
 12 24  2  0  0  0  0
 13 14  1  0  0  0  0
 13 15  1  0  0  0  0
 14 15  1  0  0  0  0
 16 19  1  0  0  0  0
 17 19  1  0  0  0  0
 18 23  1  0  0  0  0
 22 25  1  0  0  0  0
  1 26  1  0  0  0  0
  2 27  1  0  0  0  0
  3 28  1  0  0  0  0
  4 29  1  0  0  0  0
  5 30  1  0  0  0  0
 13 31  1  0  0  0  0
 13 32  1  0  0  0  0
 14 33  1  0  0  0  0
 14 34  1  0  0  0  0
 15 35  1  0  0  0  0
 16 36  1  0  0  0  0
 16 37  1  0  0  0  0
 16 38  1  0  0  0  0
 17 39  1  0  0  0  0
 17 40  1  0  0  0  0
 17 41  1  0  0  0  0
 18 42  1  0  0  0  0
 18 43  1  0  0  0  0
 19 44  1  0  0  0  0
 23 45  1  0  0  0  0
M  END
> <Catalog ID>
Z422338618

> <PlateID>
1041831-R-18

> <Well>
D07

> <MW (desalted)>
336.388

> <ClogP>
2.821

> <HBD>
1

> <TPSA>
80.910

> <RotBonds>
5

> <ROCS_ShapeQuery>
A71EV2A-x0451_0A_A71EV2A-x0310_0A_A71EV2A-x0416_0A_peptide

> <ROCS_TanimotoCombo>
0.561 

> <ROCS_ShapeTanimoto>
0.353 

> <ROCS_ColorTanimoto>
0.208 

> <ROCS_RefTversky>
0.315 

> <ROCS_RefColorTversky>
0.230 

> <ROCS_RefTverskyCombo>
0.545 

> <ROCS_FitTversky>
1.509 

> <ROCS_FitColorTversky>
0.691 

> <ROCS_FitTverskyCombo>
2.200 

> <ROCS_ColorScore>
-7.021

> <ROCS_Overlap>
2190.673

> <ROCS_Rank>
38                  

$$$$
untitled-dbase-893_869
  -OEChem-11132311063D

 45 48  0     1  0  0  0  0  0999 V2000
   12.8229   15.3664   19.9561 C   0  0  0  0  0  0  0  0  0  0  0  0
   14.0366   15.5738   20.6114 C   0  0  0  0  0  0  0  0  0  0  0  0
   11.8350   14.5808   20.5499 C   0  0  0  0  0  0  0  0  0  0  0  0
   14.2625   14.9955   21.8605 C   0  0  0  0  0  0  0  0  0  0  0  0
   12.0608   14.0026   21.7990 C   0  0  0  0  0  0  0  0  0  0  0  0
   13.2746   14.2099   22.4543 C   0  0  0  0  0  0  0  0  0  0  0  0
   10.4061   13.4202   23.6009 C   0  0  0  0  0  0  0  0  0  0  0  0
    6.6041   11.5274   24.3908 C   0  0  0  0  0  0  0  0  0  0  0  0
    8.7015   12.6260   25.2209 C   0  0  0  0  0  0  0  0  0  0  0  0
    8.3268   12.3309   22.7544 C   0  0  0  0  0  0  0  0  0  0  0  0
    8.3504   10.1675   25.5673 C   0  0  0  0  0  0  0  0  0  0  0  0
    7.9795    9.8730   23.1034 C   0  0  0  0  0  0  0  0  0  0  0  0
   10.0785   10.9699   23.9306 C   0  0  0  0  0  0  0  0  0  0  0  0
    7.6539   11.5373   25.5161 C   0  0  2  0  0  0  0  0  0  0  0  0
    7.2792   11.2397   23.0379 C   0  0  1  0  0  0  0  0  0  0  0  0
    9.3909   12.3469   23.8703 C   0  0  0  0  0  0  0  0  0  0  0  0
    9.0365    9.8749   24.2209 C   0  0  0  0  0  0  0  0  0  0  0  0
   14.1092   12.3622   23.6979 C   0  0  0  0  0  0  0  0  0  0  0  0
   11.0492   13.2077   22.3881 N   0  0  0  0  0  0  0  0  0  0  0  0
   10.5807   14.3345   24.4000 O   0  0  0  0  0  0  0  0  0  0  0  0
    9.6716    8.6064   24.2907 O   0  0  0  0  0  0  0  0  0  0  0  0
   13.5157   13.6539   23.6753 O   0  0  0  0  0  0  0  0  0  0  0  0
   14.2563   12.0035   24.9995 F   0  0  0  0  0  0  0  0  0  0  0  0
   13.2520   11.4684   23.1463 F   0  0  0  0  0  0  0  0  0  0  0  0
   12.6471   15.8172   18.9837 H   0  0  0  0  0  0  0  0  0  0  0  0
   14.8055   16.1860   20.1493 H   0  0  0  0  0  0  0  0  0  0  0  0
   10.8931   14.4265   20.0294 H   0  0  0  0  0  0  0  0  0  0  0  0
   15.2103   15.1614   22.3655 H   0  0  0  0  0  0  0  0  0  0  0  0
    5.8418   10.7661   24.5973 H   0  0  0  0  0  0  0  0  0  0  0  0
    6.0870   12.4940   24.3528 H   0  0  0  0  0  0  0  0  0  0  0  0
    8.2204   13.6129   25.2073 H   0  0  0  0  0  0  0  0  0  0  0  0
    9.4441   12.6582   26.0291 H   0  0  0  0  0  0  0  0  0  0  0  0
    8.7998   12.1514   21.7799 H   0  0  0  0  0  0  0  0  0  0  0  0
    7.8336   13.3091   22.6804 H   0  0  0  0  0  0  0  0  0  0  0  0
    9.0884   10.1434   26.3795 H   0  0  0  0  0  0  0  0  0  0  0  0
    7.6256    9.3771   25.8016 H   0  0  0  0  0  0  0  0  0  0  0  0
    7.2467    9.0748   23.2792 H   0  0  0  0  0  0  0  0  0  0  0  0
    8.4480    9.6371   22.1392 H   0  0  0  0  0  0  0  0  0  0  0  0
   10.6024   10.7552   22.9890 H   0  0  0  0  0  0  0  0  0  0  0  0
   10.8617   10.9552   24.7011 H   0  0  0  0  0  0  0  0  0  0  0  0
    7.1670   11.7420   26.4759 H   0  0  0  0  0  0  0  0  0  0  0  0
    6.5264   11.2330   22.2419 H   0  0  0  0  0  0  0  0  0  0  0  0
   15.0900   12.3241   23.2119 H   0  0  0  0  0  0  0  0  0  0  0  0
   10.7693   12.3897   21.8508 H   0  0  0  0  0  0  0  0  0  0  0  0
   10.0923    8.4548   23.4286 H   0  0  0  0  0  0  0  0  0  0  0  0
  1  2  2  0  0  0  0
  1  3  1  0  0  0  0
  2  4  1  0  0  0  0
  3  5  2  0  0  0  0
  4  6  2  0  0  0  0
  5  6  1  0  0  0  0
  5 19  1  0  0  0  0
  6 22  1  0  0  0  0
  7 16  1  0  0  0  0
  7 19  1  0  0  0  0
  7 20  2  0  0  0  0
  8 14  1  0  0  0  0
  8 15  1  0  0  0  0
  9 14  1  0  0  0  0
  9 16  1  0  0  0  0
 10 15  1  0  0  0  0
 10 16  1  0  0  0  0
 11 14  1  0  0  0  0
 11 17  1  0  0  0  0
 12 15  1  0  0  0  0
 12 17  1  0  0  0  0
 13 16  1  0  0  0  0
 13 17  1  0  0  0  0
 17 21  1  0  0  0  0
 18 22  1  0  0  0  0
 18 23  1  0  0  0  0
 18 24  1  0  0  0  0
  1 25  1  0  0  0  0
  2 26  1  0  0  0  0
  3 27  1  0  0  0  0
  4 28  1  0  0  0  0
  8 29  1  0  0  0  0
  8 30  1  0  0  0  0
  9 31  1  0  0  0  0
  9 32  1  0  0  0  0
 10 33  1  0  0  0  0
 10 34  1  0  0  0  0
 11 35  1  0  0  0  0
 11 36  1  0  0  0  0
 12 37  1  0  0  0  0
 12 38  1  0  0  0  0
 13 39  1  0  0  0  0
 13 40  1  0  0  0  0
 14 41  1  0  0  0  0
 15 42  1  0  0  0  0
 18 43  1  0  0  0  0
 19 44  1  0  0  0  0
 21 45  1  0  0  0  0
M  END
> <Catalog ID>
Z27081936

> <PlateID>
1041831-R-12

> <Well>
B04

> <MW (desalted)>
337.361

> <ClogP>
2.294

> <HBD>
2

> <TPSA>
58.560

> <RotBonds>
4

> <ROCS_ShapeQuery>
A71EV2A-x0451_0A_A71EV2A-x0310_0A_A71EV2A-x0416_0A_peptide

> <ROCS_TanimotoCombo>
0.561 

> <ROCS_ShapeTanimoto>
0.335 

> <ROCS_ColorTanimoto>
0.225 

> <ROCS_RefTversky>
0.302 

> <ROCS_RefColorTversky>
0.264 

> <ROCS_RefTverskyCombo>
0.566 

> <ROCS_FitTversky>
1.487 

> <ROCS_FitColorTversky>
0.605 

> <ROCS_FitTverskyCombo>
2.092 

> <ROCS_ColorScore>
-8.129

> <ROCS_Overlap>
2099.781

> <ROCS_Rank>
39                  

$$$$
untitled-dbase-2553_3718
  -OEChem-11132311063D

 42 44  0     1  0  0  0  0  0999 V2000
    7.9252   12.8550   24.2497 C   0  0  0  0  0  0  0  0  0  0  0  0
    6.8993   12.8939   25.2010 C   0  0  0  0  0  0  0  0  0  0  0  0
   13.8243   15.6804   20.2447 C   0  0  0  0  0  0  0  0  0  0  0  0
    7.0991   10.5041   25.5926 C   0  0  0  0  0  0  0  0  0  0  0  0
    9.7776    9.8704   23.2387 C   0  0  0  0  0  0  0  0  0  0  0  0
    8.5500   11.6250   23.9627 C   0  0  0  0  0  0  0  0  0  0  0  0
   12.4517   15.3665   20.1017 C   0  0  0  0  0  0  0  0  0  0  0  0
    9.5939   11.2250   23.0822 C   0  0  0  0  0  0  0  0  0  0  0  0
    8.1234   10.4803   24.6394 C   0  0  0  0  0  0  0  0  0  0  0  0
    6.4942   11.7354   25.8609 C   0  0  0  0  0  0  0  0  0  0  0  0
   14.1902   16.3295   19.0886 C   0  0  0  0  0  0  0  0  0  0  0  0
   12.0765   15.8465   18.8684 C   0  0  0  0  0  0  0  0  0  0  0  0
   11.5609   14.6648   21.0615 C   0  0  0  0  0  0  0  0  0  0  0  0
   10.8321   13.8452   23.9269 C   0  0  0  0  0  0  0  0  0  0  0  0
   15.4576   16.9038   18.6160 C   0  0  0  0  0  0  0  0  0  0  0  0
   10.8067   15.8451   18.1255 C   0  0  0  0  0  0  0  0  0  0  0  0
   10.3502   12.0978   22.1615 C   0  0  0  0  0  0  0  0  0  0  0  0
   11.4382   12.9532   22.8535 C   0  0  1  0  0  0  0  0  0  0  0  0
    8.8859    9.4303   24.1798 N   0  0  0  0  0  0  0  0  0  0  0  0
   12.1720   13.7322   21.8878 N   0  0  0  0  0  0  0  0  0  0  0  0
   10.3597   14.9213   21.0629 O   0  0  0  0  0  0  0  0  0  0  0  0
   10.4115   14.9743   23.6973 O   0  0  0  0  0  0  0  0  0  0  0  0
   13.1305   16.4350   18.2445 O   0  0  0  0  0  0  0  0  0  0  0  0
   10.7840   13.2946   25.1636 O   0  0  0  0  0  0  0  0  0  0  0  0
    5.5091   11.8016   26.7672 F   0  0  0  0  0  0  0  0  0  0  0  0
    8.2290   13.7668   23.7434 H   0  0  0  0  0  0  0  0  0  0  0  0
    6.4144   13.8399   25.4269 H   0  0  0  0  0  0  0  0  0  0  0  0
   14.4684   15.4618   21.0850 H   0  0  0  0  0  0  0  0  0  0  0  0
    6.7831    9.6031   26.1072 H   0  0  0  0  0  0  0  0  0  0  0  0
   10.4617    9.1793   22.7663 H   0  0  0  0  0  0  0  0  0  0  0  0
   16.0550   16.1602   18.0587 H   0  0  0  0  0  0  0  0  0  0  0  0
   15.3028   17.7705   17.9467 H   0  0  0  0  0  0  0  0  0  0  0  0
   16.0860   17.2760   19.4465 H   0  0  0  0  0  0  0  0  0  0  0  0
   10.2087   16.7458   18.3495 H   0  0  0  0  0  0  0  0  0  0  0  0
   10.9617   15.8142   17.0316 H   0  0  0  0  0  0  0  0  0  0  0  0
   10.1824   14.9651   18.3654 H   0  0  0  0  0  0  0  0  0  0  0  0
    9.6503   12.7711   21.6264 H   0  0  0  0  0  0  0  0  0  0  0  0
   10.8258   11.5108   21.3482 H   0  0  0  0  0  0  0  0  0  0  0  0
   12.1762   12.3129   23.3503 H   0  0  0  0  0  0  0  0  0  0  0  0
    8.7998    8.4731   24.4925 H   0  0  0  0  0  0  0  0  0  0  0  0
   13.1628   13.5304   21.7833 H   0  0  0  0  0  0  0  0  0  0  0  0
   11.1497   12.3871   25.2250 H   0  0  0  0  0  0  0  0  0  0  0  0
  1  2  1  0  0  0  0
  1  6  2  0  0  0  0
  2 10  2  0  0  0  0
  3  7  1  0  0  0  0
  3 11  2  0  0  0  0
  4  9  2  0  0  0  0
  4 10  1  0  0  0  0
  5  8  2  0  0  0  0
  5 19  1  0  0  0  0
  6  8  1  0  0  0  0
  6  9  1  0  0  0  0
  7 12  2  0  0  0  0
  7 13  1  0  0  0  0
  8 17  1  0  0  0  0
  9 19  1  0  0  0  0
 10 25  1  0  0  0  0
 11 15  1  0  0  0  0
 11 23  1  0  0  0  0
 12 16  1  0  0  0  0
 12 23  1  0  0  0  0
 13 20  1  0  0  0  0
 13 21  2  0  0  0  0
 14 18  1  0  0  0  0
 14 22  2  0  0  0  0
 14 24  1  0  0  0  0
 17 18  1  0  0  0  0
 18 20  1  0  0  0  0
  1 26  1  0  0  0  0
  2 27  1  0  0  0  0
  3 28  1  0  0  0  0
  4 29  1  0  0  0  0
  5 30  1  0  0  0  0
 15 31  1  0  0  0  0
 15 32  1  0  0  0  0
 15 33  1  0  0  0  0
 16 34  1  0  0  0  0
 16 35  1  0  0  0  0
 16 36  1  0  0  0  0
 17 37  1  0  0  0  0
 17 38  1  0  0  0  0
 18 39  1  0  0  0  0
 19 40  1  0  0  0  0
 20 41  1  0  0  0  0
 24 42  1  0  0  0  0
M  END
> <Catalog ID>
Z1603709814

> <PlateID>
1041831-R-32

> <Well>
H04

> <MW (desalted)>
344.337

> <ClogP>
2.516

> <HBD>
3

> <TPSA>
95.330

> <RotBonds>
5

> <ROCS_ShapeQuery>
A71EV2A-x0451_0A_A71EV2A-x0310_0A_A71EV2A-x0416_0A_peptide

> <ROCS_TanimotoCombo>
0.561 

> <ROCS_ShapeTanimoto>
0.382 

> <ROCS_ColorTanimoto>
0.179 

> <ROCS_RefTversky>
0.334 

> <ROCS_RefColorTversky>
0.207 

> <ROCS_RefTverskyCombo>
0.541 

> <ROCS_FitTversky>
1.601 

> <ROCS_FitColorTversky>
0.570 

> <ROCS_FitTverskyCombo>
2.171 

> <ROCS_ColorScore>
-6.332

> <ROCS_Overlap>
2322.079

> <ROCS_Rank>
40                  

$$$$
untitled-dbase-964_269
  -OEChem-11132311063D

 37 40  0     0  0  0  0  0  0999 V2000
    9.7825    6.4679   21.5087 C   0  0  0  0  0  0  0  0  0  0  0  0
   11.7948   14.7191   20.3187 C   0  0  0  0  0  0  0  0  0  0  0  0
   12.5980   15.7529   19.8372 C   0  0  0  0  0  0  0  0  0  0  0  0
    8.8533    7.3542   22.1039 C   0  0  0  0  0  0  0  0  0  0  0  0
    9.9925   10.8218   22.9726 C   0  0  0  0  0  0  0  0  0  0  0  0
   13.4176   16.1578   22.0736 C   0  0  0  0  0  0  0  0  0  0  0  0
   11.0114    7.0772   21.6117 C   0  0  0  0  0  0  0  0  0  0  0  0
    8.5385   11.9406   24.4974 C   0  0  0  0  0  0  0  0  0  0  0  0
    9.6397   11.9968   23.6352 C   0  0  0  0  0  0  0  0  0  0  0  0
   11.8029   14.4047   21.6777 C   0  0  0  0  0  0  0  0  0  0  0  0
   13.4094   16.4722   20.7147 C   0  0  0  0  0  0  0  0  0  0  0  0
   12.6143   15.1240   22.5551 C   0  0  0  0  0  0  0  0  0  0  0  0
    9.2437    9.6726   23.1989 C   0  0  0  0  0  0  0  0  0  0  0  0
    9.5807    8.4417   22.5285 C   0  0  0  0  0  0  0  0  0  0  0  0
    7.8300   12.8099   25.3454 C   0  0  0  0  0  0  0  0  0  0  0  0
    7.8765   10.7300   24.6344 C   0  0  0  0  0  0  0  0  0  0  0  0
   10.3932   13.2199   23.4315 C   0  0  0  0  0  0  0  0  0  0  0  0
    8.0804   14.2377   25.6056 C   0  0  0  0  0  0  0  0  0  0  0  0
    8.1729    9.5691   24.0216 N   0  0  0  0  0  0  0  0  0  0  0  0
    6.8127   12.2003   25.9606 N   0  0  0  0  0  0  0  0  0  0  0  0
   10.9851   13.3539   22.1644 N   0  0  0  0  0  0  0  0  0  0  0  0
   10.5276   14.0635   24.3312 O   0  0  0  0  0  0  0  0  0  0  0  0
   10.8970    8.2807   22.2323 O   0  0  0  0  0  0  0  0  0  0  0  0
    6.8441   10.8869   25.5101 O   0  0  0  0  0  0  0  0  0  0  0  0
   14.1813   17.4643   20.2517 F   0  0  0  0  0  0  0  0  0  0  0  0
   12.6290   14.8317   23.8635 F   0  0  0  0  0  0  0  0  0  0  0  0
    9.5815    5.5057   21.0606 H   0  0  0  0  0  0  0  0  0  0  0  0
   11.1658   14.1661   19.6258 H   0  0  0  0  0  0  0  0  0  0  0  0
   12.5910   15.9984   18.7793 H   0  0  0  0  0  0  0  0  0  0  0  0
    7.7867    7.2126   22.2079 H   0  0  0  0  0  0  0  0  0  0  0  0
   10.8391   10.8105   22.2907 H   0  0  0  0  0  0  0  0  0  0  0  0
   14.0501   16.7171   22.7564 H   0  0  0  0  0  0  0  0  0  0  0  0
   12.0108    6.8004   21.3095 H   0  0  0  0  0  0  0  0  0  0  0  0
    7.5252   14.8772   24.8982 H   0  0  0  0  0  0  0  0  0  0  0  0
    7.7814   14.5343   26.6268 H   0  0  0  0  0  0  0  0  0  0  0  0
    9.1509   14.4962   25.5176 H   0  0  0  0  0  0  0  0  0  0  0  0
   10.8029   12.5971   21.5099 H   0  0  0  0  0  0  0  0  0  0  0  0
  1  4  1  0  0  0  0
  1  7  2  0  0  0  0
  2  3  1  0  0  0  0
  2 10  2  0  0  0  0
  3 11  2  0  0  0  0
  4 14  2  0  0  0  0
  5  9  1  0  0  0  0
  5 13  2  0  0  0  0
  6 11  1  0  0  0  0
  6 12  2  0  0  0  0
  7 23  1  0  0  0  0
  8  9  2  0  0  0  0
  8 15  1  0  0  0  0
  8 16  1  0  0  0  0
  9 17  1  0  0  0  0
 10 12  1  0  0  0  0
 10 21  1  0  0  0  0
 11 25  1  0  0  0  0
 12 26  1  0  0  0  0
 13 14  1  0  0  0  0
 13 19  1  0  0  0  0
 14 23  1  0  0  0  0
 15 18  1  0  0  0  0
 15 20  2  0  0  0  0
 16 19  2  0  0  0  0
 16 24  1  0  0  0  0
 17 21  1  0  0  0  0
 17 22  2  0  0  0  0
 20 24  1  0  0  0  0
  1 27  1  0  0  0  0
  2 28  1  0  0  0  0
  3 29  1  0  0  0  0
  4 30  1  0  0  0  0
  5 31  1  0  0  0  0
  6 32  1  0  0  0  0
  7 33  1  0  0  0  0
 18 34  1  0  0  0  0
 18 35  1  0  0  0  0
 18 36  1  0  0  0  0
 21 37  1  0  0  0  0
M  END
> <Catalog ID>
Z228657938

> <PlateID>
1041831-R-13

> <Well>
A05

> <MW (desalted)>
355.295

> <ClogP>
3.453

> <HBD>
1

> <TPSA>
81.160

> <RotBonds>
3

> <ROCS_ShapeQuery>
A71EV2A-x0451_0A_A71EV2A-x0310_0A_A71EV2A-x0416_0A_peptide

> <ROCS_TanimotoCombo>
0.561 

> <ROCS_ShapeTanimoto>
0.375 

> <ROCS_ColorTanimoto>
0.185 

> <ROCS_RefTversky>
0.333 

> <ROCS_RefColorTversky>
0.208 

> <ROCS_RefTverskyCombo>
0.541 

> <ROCS_FitTversky>
1.510 

> <ROCS_FitColorTversky>
0.627 

> <ROCS_FitTverskyCombo>
2.136 

> <ROCS_ColorScore>
-6.365

> <ROCS_Overlap>
2317.874

> <ROCS_Rank>
41                  

$$$$
untitled-dbase-2652_1982
  -OEChem-11132311063D

 38 40  0     1  0  0  0  0  0999 V2000
    7.8503   12.8389   24.5369 C   0  0  0  0  0  0  0  0  0  0  0  0
    7.0073   12.8504   25.6541 C   0  0  0  0  0  0  0  0  0  0  0  0
    7.2723   10.4526   25.9454 C   0  0  0  0  0  0  0  0  0  0  0  0
    9.4957    9.8876   23.1429 C   0  0  0  0  0  0  0  0  0  0  0  0
   13.3710   16.3899   18.3032 C   0  0  0  0  0  0  0  0  0  0  0  0
    8.4147   11.6189   24.1143 C   0  0  0  0  0  0  0  0  0  0  0  0
    9.2876   11.2447   23.0546 C   0  0  0  0  0  0  0  0  0  0  0  0
    8.1133   10.4562   24.8268 C   0  0  0  0  0  0  0  0  0  0  0  0
    6.7241   11.6744   26.3460 C   0  0  0  0  0  0  0  0  0  0  0  0
   13.1284   15.4251   20.4970 C   0  0  0  0  0  0  0  0  0  0  0  0
   14.1467   16.3442   20.3541 C   0  0  0  0  0  0  0  0  0  0  0  0
   12.6939   14.6438   21.6835 C   0  0  0  0  0  0  0  0  0  0  0  0
   10.6555   13.8487   23.7335 C   0  0  0  0  0  0  0  0  0  0  0  0
   15.0826   16.7780   21.4121 C   0  0  0  0  0  0  0  0  0  0  0  0
    9.8708   12.1429   22.0374 C   0  0  0  0  0  0  0  0  0  0  0  0
   11.0635   12.9856   22.5485 C   0  0  1  0  0  0  0  0  0  0  0  0
   14.2876   16.8982   19.0967 N   0  0  0  0  0  0  0  0  0  0  0  0
    8.7830    9.4209   24.2147 N   0  0  0  0  0  0  0  0  0  0  0  0
   11.6166   13.7910   21.4886 N   0  0  0  0  0  0  0  0  0  0  0  0
   13.2782   14.8012   22.7524 O   0  0  0  0  0  0  0  0  0  0  0  0
   10.7518   13.4732   24.8972 O   0  0  0  0  0  0  0  0  0  0  0  0
   10.1809   15.0748   23.4075 O   0  0  0  0  0  0  0  0  0  0  0  0
    5.9134   11.7144   27.4126 F   0  0  0  0  0  0  0  0  0  0  0  0
   12.3062   15.2405   19.0032 S   0  0  0  0  0  0  0  0  0  0  0  0
    8.0606   13.7640   24.0078 H   0  0  0  0  0  0  0  0  0  0  0  0
    6.5698   13.7885   25.9849 H   0  0  0  0  0  0  0  0  0  0  0  0
    7.0514    9.5379   26.4849 H   0  0  0  0  0  0  0  0  0  0  0  0
   10.0861    9.2110   22.5408 H   0  0  0  0  0  0  0  0  0  0  0  0
   13.2869   16.6766   17.2639 H   0  0  0  0  0  0  0  0  0  0  0  0
   15.9791   16.1379   21.4340 H   0  0  0  0  0  0  0  0  0  0  0  0
   15.4159   17.8190   21.2662 H   0  0  0  0  0  0  0  0  0  0  0  0
   14.6191   16.7424   22.4123 H   0  0  0  0  0  0  0  0  0  0  0  0
    9.0879   12.8261   21.6503 H   0  0  0  0  0  0  0  0  0  0  0  0
   10.1960   11.5779   21.1389 H   0  0  0  0  0  0  0  0  0  0  0  0
   11.8772   12.3365   22.8920 H   0  0  0  0  0  0  0  0  0  0  0  0
    8.7530    8.4560   24.5139 H   0  0  0  0  0  0  0  0  0  0  0  0
   11.1453   13.7627   20.5884 H   0  0  0  0  0  0  0  0  0  0  0  0
   10.1504   15.2624   22.4457 H   0  0  0  0  0  0  0  0  0  0  0  0
  1  2  1  0  0  0  0
  1  6  2  0  0  0  0
  2  9  2  0  0  0  0
  3  8  2  0  0  0  0
  3  9  1  0  0  0  0
  4  7  2  0  0  0  0
  4 18  1  0  0  0  0
  5 17  2  0  0  0  0
  5 24  1  0  0  0  0
  6  7  1  0  0  0  0
  6  8  1  0  0  0  0
  7 15  1  0  0  0  0
  8 18  1  0  0  0  0
  9 23  1  0  0  0  0
 10 11  2  0  0  0  0
 10 12  1  0  0  0  0
 10 24  1  0  0  0  0
 11 14  1  0  0  0  0
 11 17  1  0  0  0  0
 12 19  1  0  0  0  0
 12 20  2  0  0  0  0
 13 16  1  0  0  0  0
 13 21  2  0  0  0  0
 13 22  1  0  0  0  0
 15 16  1  0  0  0  0
 16 19  1  0  0  0  0
  1 25  1  0  0  0  0
  2 26  1  0  0  0  0
  3 27  1  0  0  0  0
  4 28  1  0  0  0  0
  5 29  1  0  0  0  0
 14 30  1  0  0  0  0
 14 31  1  0  0  0  0
 14 32  1  0  0  0  0
 15 33  1  0  0  0  0
 15 34  1  0  0  0  0
 16 35  1  0  0  0  0
 18 36  1  0  0  0  0
 19 37  1  0  0  0  0
 22 38  1  0  0  0  0
M  END
> <Catalog ID>
Z1603709029

> <PlateID>
1041831-R-34

> <Well>
B03

> <MW (desalted)>
347.364

> <ClogP>
1.945

> <HBD>
3

> <TPSA>
95.080

> <RotBonds>
5

> <ROCS_ShapeQuery>
A71EV2A-x0451_0A_A71EV2A-x0310_0A_A71EV2A-x0416_0A_peptide

> <ROCS_TanimotoCombo>
0.560 

> <ROCS_ShapeTanimoto>
0.365 

> <ROCS_ColorTanimoto>
0.195 

> <ROCS_RefTversky>
0.321 

> <ROCS_RefColorTversky>
0.223 

> <ROCS_RefTverskyCombo>
0.543 

> <ROCS_FitTversky>
1.604 

> <ROCS_FitColorTversky>
0.613 

> <ROCS_FitTverskyCombo>
2.217 

> <ROCS_ColorScore>
-6.815

> <ROCS_Overlap>
2230.566

> <ROCS_Rank>
42                  

$$$$
untitled-dbase-2421_2912
  -OEChem-11132311063D

 36 38  0     1  0  0  0  0  0999 V2000
    7.9188   12.8581   24.2571 C   0  0  0  0  0  0  0  0  0  0  0  0
    6.9023   12.8954   25.2185 C   0  0  0  0  0  0  0  0  0  0  0  0
   12.0606   15.9441   18.8111 C   0  0  0  0  0  0  0  0  0  0  0  0
    7.1110   10.5062   25.6093 C   0  0  0  0  0  0  0  0  0  0  0  0
    9.7672    9.8770   23.2292 C   0  0  0  0  0  0  0  0  0  0  0  0
   13.2248   16.4736   18.3049 C   0  0  0  0  0  0  0  0  0  0  0  0
   13.7452   15.6001   20.2325 C   0  0  0  0  0  0  0  0  0  0  0  0
    8.5433   11.6293   23.9645 C   0  0  0  0  0  0  0  0  0  0  0  0
   12.3985   15.3770   20.0630 C   0  0  0  0  0  0  0  0  0  0  0  0
    9.5791   11.2310   23.0738 C   0  0  0  0  0  0  0  0  0  0  0  0
    8.1258   10.4841   24.6459 C   0  0  0  0  0  0  0  0  0  0  0  0
    6.5062   11.7364   25.8830 C   0  0  0  0  0  0  0  0  0  0  0  0
   11.5188   14.6739   21.0320 C   0  0  0  0  0  0  0  0  0  0  0  0
   10.8203   13.8542   23.9050 C   0  0  0  0  0  0  0  0  0  0  0  0
   10.3245   12.1050   22.1453 C   0  0  0  0  0  0  0  0  0  0  0  0
   11.4175   12.9629   22.8259 C   0  0  1  0  0  0  0  0  0  0  0  0
    8.8859    9.4354   24.1793 N   0  0  0  0  0  0  0  0  0  0  0  0
   12.1401   13.7430   21.8526 N   0  0  0  0  0  0  0  0  0  0  0  0
   10.3172   14.9279   21.0452 O   0  0  0  0  0  0  0  0  0  0  0  0
   10.3950   14.9824   23.6790 O   0  0  0  0  0  0  0  0  0  0  0  0
   14.2564   16.2680   19.1652 O   0  0  0  0  0  0  0  0  0  0  0  0
   10.7856   13.3041   25.1423 O   0  0  0  0  0  0  0  0  0  0  0  0
    5.5300   11.8010   26.7991 F   0  0  0  0  0  0  0  0  0  0  0  0
    8.2156   13.7703   23.7474 H   0  0  0  0  0  0  0  0  0  0  0  0
    6.4177   13.8405   25.4488 H   0  0  0  0  0  0  0  0  0  0  0  0
   11.0909   15.9666   18.3340 H   0  0  0  0  0  0  0  0  0  0  0  0
    6.8020    9.6048   26.1274 H   0  0  0  0  0  0  0  0  0  0  0  0
   10.4481    9.1870   22.7503 H   0  0  0  0  0  0  0  0  0  0  0  0
   13.4728   17.0005   17.3950 H   0  0  0  0  0  0  0  0  0  0  0  0
   14.4535   15.3618   21.0133 H   0  0  0  0  0  0  0  0  0  0  0  0
    9.6178   12.7765   21.6168 H   0  0  0  0  0  0  0  0  0  0  0  0
   10.7932   11.5186   21.3276 H   0  0  0  0  0  0  0  0  0  0  0  0
   12.1618   12.3244   23.3156 H   0  0  0  0  0  0  0  0  0  0  0  0
    8.8050    8.4782   24.4933 H   0  0  0  0  0  0  0  0  0  0  0  0
   13.1301   13.5432   21.7383 H   0  0  0  0  0  0  0  0  0  0  0  0
   11.1539   12.3974   25.2005 H   0  0  0  0  0  0  0  0  0  0  0  0
  1  2  1  0  0  0  0
  1  8  2  0  0  0  0
  2 12  2  0  0  0  0
  3  6  2  0  0  0  0
  3  9  1  0  0  0  0
  4 11  2  0  0  0  0
  4 12  1  0  0  0  0
  5 10  2  0  0  0  0
  5 17  1  0  0  0  0
  6 21  1  0  0  0  0
  7  9  2  0  0  0  0
  7 21  1  0  0  0  0
  8 10  1  0  0  0  0
  8 11  1  0  0  0  0
  9 13  1  0  0  0  0
 10 15  1  0  0  0  0
 11 17  1  0  0  0  0
 12 23  1  0  0  0  0
 13 18  1  0  0  0  0
 13 19  2  0  0  0  0
 14 16  1  0  0  0  0
 14 20  2  0  0  0  0
 14 22  1  0  0  0  0
 15 16  1  0  0  0  0
 16 18  1  0  0  0  0
  1 24  1  0  0  0  0
  2 25  1  0  0  0  0
  3 26  1  0  0  0  0
  4 27  1  0  0  0  0
  5 28  1  0  0  0  0
  6 29  1  0  0  0  0
  7 30  1  0  0  0  0
 15 31  1  0  0  0  0
 15 32  1  0  0  0  0
 16 33  1  0  0  0  0
 17 34  1  0  0  0  0
 18 35  1  0  0  0  0
 22 36  1  0  0  0  0
M  END
> <Catalog ID>
Z1603709842

> <PlateID>
1041831-R-31

> <Well>
C02

> <MW (desalted)>
316.284

> <ClogP>
1.858

> <HBD>
3

> <TPSA>
95.330

> <RotBonds>
5

> <ROCS_ShapeQuery>
A71EV2A-x0451_0A_A71EV2A-x0310_0A_A71EV2A-x0416_0A_peptide

> <ROCS_TanimotoCombo>
0.560 

> <ROCS_ShapeTanimoto>
0.380 

> <ROCS_ColorTanimoto>
0.180 

> <ROCS_RefTversky>
0.330 

> <ROCS_RefColorTversky>
0.208 

> <ROCS_RefTverskyCombo>
0.538 

> <ROCS_FitTversky>
1.675 

> <ROCS_FitColorTversky>
0.573 

> <ROCS_FitTverskyCombo>
2.248 

> <ROCS_ColorScore>
-6.369

> <ROCS_Overlap>
2290.603

> <ROCS_Rank>
43                  

$$$$
untitled-dbase-2516_1707
  -OEChem-11132311063D

 39 41  0     1  0  0  0  0  0999 V2000
    7.8515   12.8493   24.5288 C   0  0  0  0  0  0  0  0  0  0  0  0
    7.0199   12.8651   25.6545 C   0  0  0  0  0  0  0  0  0  0  0  0
   12.5206   15.4053   19.1162 C   0  0  0  0  0  0  0  0  0  0  0  0
    7.2980   10.4705   25.9596 C   0  0  0  0  0  0  0  0  0  0  0  0
    9.4950    9.8952   23.1385 C   0  0  0  0  0  0  0  0  0  0  0  0
   13.2569   16.2954   18.3694 C   0  0  0  0  0  0  0  0  0  0  0  0
    8.4167   11.6287   24.1089 C   0  0  0  0  0  0  0  0  0  0  0  0
   13.0772   15.4292   20.4173 C   0  0  0  0  0  0  0  0  0  0  0  0
    9.2804   11.2508   23.0430 C   0  0  0  0  0  0  0  0  0  0  0  0
    8.1275   10.4699   24.8325 C   0  0  0  0  0  0  0  0  0  0  0  0
    6.7488   11.6928   26.3574 C   0  0  0  0  0  0  0  0  0  0  0  0
   14.1141   16.3319   20.3727 C   0  0  0  0  0  0  0  0  0  0  0  0
   12.6581   14.6544   21.6136 C   0  0  0  0  0  0  0  0  0  0  0  0
   10.6441   13.8651   23.6897 C   0  0  0  0  0  0  0  0  0  0  0  0
   15.0814   16.8123   21.3712 C   0  0  0  0  0  0  0  0  0  0  0  0
    9.8493   12.1444   22.0136 C   0  0  0  0  0  0  0  0  0  0  0  0
   11.0436   12.9955   22.5067 C   0  0  1  0  0  0  0  0  0  0  0  0
    8.7953    9.4330   24.2208 N   0  0  0  0  0  0  0  0  0  0  0  0
   11.5824   13.7958   21.4356 N   0  0  0  0  0  0  0  0  0  0  0  0
   13.2526   14.8217   22.6753 O   0  0  0  0  0  0  0  0  0  0  0  0
   10.7538   13.4981   24.8550 O   0  0  0  0  0  0  0  0  0  0  0  0
   14.2302   16.8643   19.1279 O   0  0  0  0  0  0  0  0  0  0  0  0
   10.1610   15.0869   23.3602 O   0  0  0  0  0  0  0  0  0  0  0  0
    5.9489   11.7369   27.4319 F   0  0  0  0  0  0  0  0  0  0  0  0
    8.0525   13.7716   23.9912 H   0  0  0  0  0  0  0  0  0  0  0  0
    6.5819   13.8037   25.9833 H   0  0  0  0  0  0  0  0  0  0  0  0
   11.6871   14.8150   18.7627 H   0  0  0  0  0  0  0  0  0  0  0  0
    7.0864    9.5587   26.5077 H   0  0  0  0  0  0  0  0  0  0  0  0
   10.0821    9.2169   22.5351 H   0  0  0  0  0  0  0  0  0  0  0  0
   13.2172   16.6197   17.3398 H   0  0  0  0  0  0  0  0  0  0  0  0
   15.9924   16.1884   21.3816 H   0  0  0  0  0  0  0  0  0  0  0  0
   15.3965   17.8547   21.1816 H   0  0  0  0  0  0  0  0  0  0  0  0
   14.6646   16.8063   22.3951 H   0  0  0  0  0  0  0  0  0  0  0  0
    9.0596   12.8216   21.6298 H   0  0  0  0  0  0  0  0  0  0  0  0
   10.1677   11.5744   21.1158 H   0  0  0  0  0  0  0  0  0  0  0  0
   11.8635   12.3521   22.8463 H   0  0  0  0  0  0  0  0  0  0  0  0
    8.7724    8.4702   24.5269 H   0  0  0  0  0  0  0  0  0  0  0  0
   11.1021   13.7593   20.5405 H   0  0  0  0  0  0  0  0  0  0  0  0
   10.1199   15.2677   22.3975 H   0  0  0  0  0  0  0  0  0  0  0  0
  1  2  1  0  0  0  0
  1  7  2  0  0  0  0
  2 11  2  0  0  0  0
  3  6  2  0  0  0  0
  3  8  1  0  0  0  0
  4 10  2  0  0  0  0
  4 11  1  0  0  0  0
  5  9  2  0  0  0  0
  5 18  1  0  0  0  0
  6 22  1  0  0  0  0
  7  9  1  0  0  0  0
  7 10  1  0  0  0  0
  8 12  2  0  0  0  0
  8 13  1  0  0  0  0
  9 16  1  0  0  0  0
 10 18  1  0  0  0  0
 11 24  1  0  0  0  0
 12 15  1  0  0  0  0
 12 22  1  0  0  0  0
 13 19  1  0  0  0  0
 13 20  2  0  0  0  0
 14 17  1  0  0  0  0
 14 21  2  0  0  0  0
 14 23  1  0  0  0  0
 16 17  1  0  0  0  0
 17 19  1  0  0  0  0
  1 25  1  0  0  0  0
  2 26  1  0  0  0  0
  3 27  1  0  0  0  0
  4 28  1  0  0  0  0
  5 29  1  0  0  0  0
  6 30  1  0  0  0  0
 15 31  1  0  0  0  0
 15 32  1  0  0  0  0
 15 33  1  0  0  0  0
 16 34  1  0  0  0  0
 16 35  1  0  0  0  0
 17 36  1  0  0  0  0
 18 37  1  0  0  0  0
 19 38  1  0  0  0  0
 23 39  1  0  0  0  0
M  END
> <Catalog ID>
Z1603709048

> <PlateID>
1041831-R-32

> <Well>
D07

> <MW (desalted)>
330.310

> <ClogP>
2.017

> <HBD>
3

> <TPSA>
95.330

> <RotBonds>
5

> <ROCS_ShapeQuery>
A71EV2A-x0451_0A_A71EV2A-x0310_0A_A71EV2A-x0416_0A_peptide

> <ROCS_TanimotoCombo>
0.560 

> <ROCS_ShapeTanimoto>
0.365 

> <ROCS_ColorTanimoto>
0.195 

> <ROCS_RefTversky>
0.321 

> <ROCS_RefColorTversky>
0.222 

> <ROCS_RefTverskyCombo>
0.544 

> <ROCS_FitTversky>
1.585 

> <ROCS_FitColorTversky>
0.613 

> <ROCS_FitTverskyCombo>
2.198 

> <ROCS_ColorScore>
-6.813

> <ROCS_Overlap>
2234.293

> <ROCS_Rank>
44                  

$$$$
untitled-dbase-1604_224
  -OEChem-11132311063D

 51 55  0     1  0  0  0  0  0999 V2000
   13.8570   16.5593   20.3887 C   0  0  0  0  0  0  0  0  0  0  0  0
   14.2795   16.5155   19.0761 C   0  0  0  0  0  0  0  0  0  0  0  0
   12.6840   15.7747   20.5998 C   0  0  0  0  0  0  0  0  0  0  0  0
   12.2768   15.1687   19.4338 C   0  0  0  0  0  0  0  0  0  0  0  0
   11.0266   13.6985   23.2040 C   0  0  0  0  0  0  0  0  0  0  0  0
   11.0895   14.2808   19.3800 C   0  0  0  0  0  0  0  0  0  0  0  0
    7.1253   11.9614   25.0614 C   0  0  0  0  0  0  0  0  0  0  0  0
    8.6122   12.3584   23.0803 C   0  0  0  0  0  0  0  0  0  0  0  0
    9.6152   11.7928   25.3149 C   0  0  0  0  0  0  0  0  0  0  0  0
    7.1979   10.2917   23.1937 C   0  0  0  0  0  0  0  0  0  0  0  0
    8.2004    9.7264   25.4222 C   0  0  0  0  0  0  0  0  0  0  0  0
    9.6915   10.1190   23.4434 C   0  0  0  0  0  0  0  0  0  0  0  0
   11.0124   13.4832   20.6876 C   0  0  0  0  0  0  0  0  0  0  0  0
   11.9239   15.5903   21.8787 C   0  0  1  0  0  0  0  0  0  0  0  0
    7.2583   11.7876   23.5389 C   0  0  1  0  0  0  0  0  0  0  0  0
    8.2649   11.2192   25.7799 C   0  0  2  0  0  0  0  0  0  0  0  0
    9.7779   11.6240   23.7853 C   0  0  0  0  0  0  0  0  0  0  0  0
    8.3398    9.5430   23.9021 C   0  0  0  0  0  0  0  0  0  0  0  0
   10.8622   16.6806   22.0568 C   0  0  0  0  0  0  0  0  0  0  0  0
   11.1217   12.1968   23.3274 C   0  0  0  0  0  0  0  0  0  0  0  0
   11.2918   14.2405   21.9354 N   0  0  0  0  0  0  0  0  0  0  0  0
   10.7239   14.3695   24.1940 O   0  0  0  0  0  0  0  0  0  0  0  0
    8.2631    8.1638   23.5710 O   0  0  0  0  0  0  0  0  0  0  0  0
   13.2633   15.5325   18.1054 S   0  0  0  0  0  0  0  0  0  0  0  0
   14.3656   17.1285   21.1539 H   0  0  0  0  0  0  0  0  0  0  0  0
   15.1367   17.0092   18.6421 H   0  0  0  0  0  0  0  0  0  0  0  0
   10.1677   14.8528   19.2499 H   0  0  0  0  0  0  0  0  0  0  0  0
   11.1864   13.5903   18.5373 H   0  0  0  0  0  0  0  0  0  0  0  0
    7.1508   13.0270   25.3204 H   0  0  0  0  0  0  0  0  0  0  0  0
    6.1558   11.5745   25.3987 H   0  0  0  0  0  0  0  0  0  0  0  0
    8.7041   12.2573   21.9911 H   0  0  0  0  0  0  0  0  0  0  0  0
    8.6523   13.4328   23.3015 H   0  0  0  0  0  0  0  0  0  0  0  0
    9.6779   12.8541   25.5880 H   0  0  0  0  0  0  0  0  0  0  0  0
   10.4324   11.2831   25.8416 H   0  0  0  0  0  0  0  0  0  0  0  0
    6.2288    9.8687   23.4885 H   0  0  0  0  0  0  0  0  0  0  0  0
    7.2669   10.1456   22.1079 H   0  0  0  0  0  0  0  0  0  0  0  0
    8.9917    9.1736   25.9450 H   0  0  0  0  0  0  0  0  0  0  0  0
    7.2554    9.2892   25.7698 H   0  0  0  0  0  0  0  0  0  0  0  0
    9.8165    9.9577   22.3642 H   0  0  0  0  0  0  0  0  0  0  0  0
   10.5133    9.5663   23.9186 H   0  0  0  0  0  0  0  0  0  0  0  0
    9.9944   13.0440   20.8084 H   0  0  0  0  0  0  0  0  0  0  0  0
   11.6862   12.5983   20.6143 H   0  0  0  0  0  0  0  0  0  0  0  0
   12.6389   15.6851   22.7066 H   0  0  0  0  0  0  0  0  0  0  0  0
    6.4433   12.3175   23.0337 H   0  0  0  0  0  0  0  0  0  0  0  0
    8.1631   11.3452   26.8635 H   0  0  0  0  0  0  0  0  0  0  0  0
   10.1339   16.6171   21.2514 H   0  0  0  0  0  0  0  0  0  0  0  0
   11.3361   17.6593   22.0362 H   0  0  0  0  0  0  0  0  0  0  0  0
   10.3562   16.5462   23.0102 H   0  0  0  0  0  0  0  0  0  0  0  0
   11.3932   11.7742   22.3617 H   0  0  0  0  0  0  0  0  0  0  0  0
   11.8923   11.9516   24.0562 H   0  0  0  0  0  0  0  0  0  0  0  0
    8.9949    7.7229   24.0327 H   0  0  0  0  0  0  0  0  0  0  0  0
  1  2  2  0  0  0  0
  1  3  1  0  0  0  0
  2 24  1  0  0  0  0
  3  4  2  0  0  0  0
  3 14  1  0  0  0  0
  4  6  1  0  0  0  0
  4 24  1  0  0  0  0
  5 20  1  0  0  0  0
  5 21  1  0  0  0  0
  5 22  2  0  0  0  0
  6 13  1  0  0  0  0
  7 15  1  0  0  0  0
  7 16  1  0  0  0  0
  8 15  1  0  0  0  0
  8 17  1  0  0  0  0
  9 16  1  0  0  0  0
  9 17  1  0  0  0  0
 10 15  1  0  0  0  0
 10 18  1  0  0  0  0
 11 16  1  0  0  0  0
 11 18  1  0  0  0  0
 12 17  1  0  0  0  0
 12 18  1  0  0  0  0
 13 21  1  0  0  0  0
 14 19  1  0  0  0  0
 14 21  1  0  0  0  0
 17 20  1  0  0  0  0
 18 23  1  0  0  0  0
  1 25  1  0  0  0  0
  2 26  1  0  0  0  0
  6 27  1  0  0  0  0
  6 28  1  0  0  0  0
  7 29  1  0  0  0  0
  7 30  1  0  0  0  0
  8 31  1  0  0  0  0
  8 32  1  0  0  0  0
  9 33  1  0  0  0  0
  9 34  1  0  0  0  0
 10 35  1  0  0  0  0
 10 36  1  0  0  0  0
 11 37  1  0  0  0  0
 11 38  1  0  0  0  0
 12 39  1  0  0  0  0
 12 40  1  0  0  0  0
 13 41  1  0  0  0  0
 13 42  1  0  0  0  0
 14 43  1  0  0  0  0
 15 44  1  0  0  0  0
 16 45  1  0  0  0  0
 19 46  1  0  0  0  0
 19 47  1  0  0  0  0
 19 48  1  0  0  0  0
 20 49  1  0  0  0  0
 20 50  1  0  0  0  0
 23 51  1  0  0  0  0
M  END
> <Catalog ID>
Z117702120

> <PlateID>
1041831-R-21

> <Well>
A05

> <MW (desalted)>
345.499

> <ClogP>
1.997

> <HBD>
1

> <TPSA>
40.540

> <RotBonds>
2

> <ROCS_ShapeQuery>
A71EV2A-x0451_0A_A71EV2A-x0310_0A_A71EV2A-x0416_0A_peptide

> <ROCS_TanimotoCombo>
0.560 

> <ROCS_ShapeTanimoto>
0.353 

> <ROCS_ColorTanimoto>
0.206 

> <ROCS_RefTversky>
0.313 

> <ROCS_RefColorTversky>
0.241 

> <ROCS_RefTverskyCombo>
0.554 

> <ROCS_FitTversky>
1.564 

> <ROCS_FitColorTversky>
0.592 

> <ROCS_FitTverskyCombo>
2.156 

> <ROCS_ColorScore>
-7.389

> <ROCS_Overlap>
2177.939

> <ROCS_Rank>
45                  

$$$$
untitled-dbase-366_10897
  -OEChem-11132311063D

 43 45  0     1  0  0  0  0  0999 V2000
    7.9111   12.8407   24.5143 C   0  0  0  0  0  0  0  0  0  0  0  0
    7.0142   12.8290   25.5887 C   0  0  0  0  0  0  0  0  0  0  0  0
    7.2196   10.4173   25.8032 C   0  0  0  0  0  0  0  0  0  0  0  0
    9.5681    9.9088   23.0935 C   0  0  0  0  0  0  0  0  0  0  0  0
    8.4729   11.6255   24.0747 C   0  0  0  0  0  0  0  0  0  0  0  0
    9.3901   11.2722   23.0457 C   0  0  0  0  0  0  0  0  0  0  0  0
    8.1149   10.4443   24.7279 C   0  0  0  0  0  0  0  0  0  0  0  0
    6.6752   11.6348   26.2217 C   0  0  0  0  0  0  0  0  0  0  0  0
   12.9193   14.6830   22.0252 C   0  0  0  0  0  0  0  0  0  0  0  0
   10.7327   13.7938   23.8904 C   0  0  0  0  0  0  0  0  0  0  0  0
   14.2746   15.3264   18.5094 C   0  0  0  0  0  0  0  0  0  0  0  0
   13.9251   14.5417   19.7695 C   0  0  0  0  0  0  0  0  0  0  0  0
   13.1244   16.2396   18.1065 C   0  0  0  0  0  0  0  0  0  0  0  0
   12.3201   16.3916   20.3295 C   0  0  0  0  0  0  0  0  0  0  0  0
   13.4219   15.4816   20.8642 C   0  0  1  0  0  0  0  0  0  0  0  0
   10.0539   12.2150   22.0711 C   0  0  0  0  0  0  0  0  0  0  0  0
   11.2211   12.9935   22.6919 C   0  0  1  0  0  0  0  0  0  0  0  0
    8.7947    9.4183   24.1112 N   0  0  0  0  0  0  0  0  0  0  0  0
   11.8577   13.8528   21.7196 N   0  0  0  0  0  0  0  0  0  0  0  0
   13.4543   14.8070   23.1207 O   0  0  0  0  0  0  0  0  0  0  0  0
   10.7404   13.3533   25.0352 O   0  0  0  0  0  0  0  0  0  0  0  0
   12.7705   17.1101   19.1809 O   0  0  0  0  0  0  0  0  0  0  0  0
   10.2916   15.0412   23.6000 O   0  0  0  0  0  0  0  0  0  0  0  0
    5.8136   11.6528   27.2482 F   0  0  0  0  0  0  0  0  0  0  0  0
    8.1646   13.7799   24.0308 H   0  0  0  0  0  0  0  0  0  0  0  0
    6.5785   13.7633   25.9324 H   0  0  0  0  0  0  0  0  0  0  0  0
    6.9552    9.4885   26.2969 H   0  0  0  0  0  0  0  0  0  0  0  0
   10.1749    9.2425   22.4962 H   0  0  0  0  0  0  0  0  0  0  0  0
   15.1861   15.9119   18.6683 H   0  0  0  0  0  0  0  0  0  0  0  0
   14.4752   14.6200   17.6951 H   0  0  0  0  0  0  0  0  0  0  0  0
   13.1841   13.7774   19.5351 H   0  0  0  0  0  0  0  0  0  0  0  0
   14.8235   14.0355   20.1273 H   0  0  0  0  0  0  0  0  0  0  0  0
   13.3759   16.8345   17.2197 H   0  0  0  0  0  0  0  0  0  0  0  0
   12.2421   15.6389   17.8601 H   0  0  0  0  0  0  0  0  0  0  0  0
   11.4476   15.8093   20.0305 H   0  0  0  0  0  0  0  0  0  0  0  0
   12.0045   17.1061   21.0923 H   0  0  0  0  0  0  0  0  0  0  0  0
   14.2494   16.0859   21.2337 H   0  0  0  0  0  0  0  0  0  0  0  0
    9.2897   12.9072   21.6930 H   0  0  0  0  0  0  0  0  0  0  0  0
   10.3983   11.6559   21.1903 H   0  0  0  0  0  0  0  0  0  0  0  0
   12.0029   12.3176   23.0571 H   0  0  0  0  0  0  0  0  0  0  0  0
    8.7319    8.4440   24.3725 H   0  0  0  0  0  0  0  0  0  0  0  0
   11.5081   13.8461   20.7661 H   0  0  0  0  0  0  0  0  0  0  0  0
   10.3332   15.2822   22.6506 H   0  0  0  0  0  0  0  0  0  0  0  0
  1  2  1  0  0  0  0
  1  5  2  0  0  0  0
  2  8  2  0  0  0  0
  3  7  2  0  0  0  0
  3  8  1  0  0  0  0
  4  6  2  0  0  0  0
  4 18  1  0  0  0  0
  5  6  1  0  0  0  0
  5  7  1  0  0  0  0
  6 16  1  0  0  0  0
  7 18  1  0  0  0  0
  8 24  1  0  0  0  0
  9 15  1  0  0  0  0
  9 19  1  0  0  0  0
  9 20  2  0  0  0  0
 10 17  1  0  0  0  0
 10 21  2  0  0  0  0
 10 23  1  0  0  0  0
 11 12  1  0  0  0  0
 11 13  1  0  0  0  0
 12 15  1  0  0  0  0
 13 22  1  0  0  0  0
 14 15  1  0  0  0  0
 14 22  1  0  0  0  0
 16 17  1  0  0  0  0
 17 19  1  0  0  0  0
  1 25  1  0  0  0  0
  2 26  1  0  0  0  0
  3 27  1  0  0  0  0
  4 28  1  0  0  0  0
 11 29  1  0  0  0  0
 11 30  1  0  0  0  0
 12 31  1  0  0  0  0
 12 32  1  0  0  0  0
 13 33  1  0  0  0  0
 13 34  1  0  0  0  0
 14 35  1  0  0  0  0
 14 36  1  0  0  0  0
 15 37  1  0  0  0  0
 16 38  1  0  0  0  0
 16 39  1  0  0  0  0
 17 40  1  0  0  0  0
 18 41  1  0  0  0  0
 19 42  1  0  0  0  0
 23 43  1  0  0  0  0
M  END
> <Catalog ID>
Z1603710224

> <PlateID>
1041831-R-05

> <Well>
E07

> <MW (desalted)>
334.342

> <ClogP>
1.778

> <HBD>
3

> <TPSA>
91.420

> <RotBonds>
5

> <ROCS_ShapeQuery>
A71EV2A-x0451_0A_A71EV2A-x0310_0A_A71EV2A-x0416_0A_peptide

> <ROCS_TanimotoCombo>
0.559 

> <ROCS_ShapeTanimoto>
0.362 

> <ROCS_ColorTanimoto>
0.197 

> <ROCS_RefTversky>
0.319 

> <ROCS_RefColorTversky>
0.224 

> <ROCS_RefTverskyCombo>
0.543 

> <ROCS_FitTversky>
1.595 

> <ROCS_FitColorTversky>
0.619 

> <ROCS_FitTverskyCombo>
2.213 

> <ROCS_ColorScore>
-6.874

> <ROCS_Overlap>
2216.648

> <ROCS_Rank>
46                  

$$$$
untitled-dbase-3343_11222
  -OEChem-11132311063D

 44 46  0     0  0  0  0  0  0999 V2000
    6.8409   12.8279   26.1238 C   0  0  0  0  0  0  0  0  0  0  0  0
    8.0139   12.9387   25.3743 C   0  0  0  0  0  0  0  0  0  0  0  0
    6.0888   11.6486   26.0988 C   0  0  0  0  0  0  0  0  0  0  0  0
    7.6584   10.6769   24.5632 C   0  0  0  0  0  0  0  0  0  0  0  0
    8.4158   11.8546   24.6044 C   0  0  0  0  0  0  0  0  0  0  0  0
    6.4952   10.5668   25.3163 C   0  0  0  0  0  0  0  0  0  0  0  0
   10.5208   12.7080   23.5757 C   0  0  0  0  0  0  0  0  0  0  0  0
    7.1167    7.5184   23.7546 C   0  0  0  0  0  0  0  0  0  0  0  0
    6.4405    8.3707   22.6833 C   0  0  0  0  0  0  0  0  0  0  0  0
    8.3995    8.2486   24.1569 C   0  0  0  0  0  0  0  0  0  0  0  0
    7.4334    9.4747   22.3371 C   0  0  0  0  0  0  0  0  0  0  0  0
    9.6320   10.3309   23.3164 C   0  0  0  0  0  0  0  0  0  0  0  0
    8.2667    9.6728   23.6105 C   0  0  0  0  0  0  0  0  0  0  0  0
   13.3605   16.0148   20.4632 C   0  0  0  0  0  0  0  0  0  0  0  0
   11.2653   12.5819   22.2675 C   0  0  0  0  0  0  0  0  0  0  0  0
   13.9303   15.2649   21.6466 C   0  0  0  0  0  0  0  0  0  0  0  0
    9.5695   11.7227   23.8046 N   0  0  0  0  0  0  0  0  0  0  0  0
   11.6208   13.9066   21.8606 N   0  0  0  0  0  0  0  0  0  0  0  0
   10.7830   13.6471   24.3276 O   0  0  0  0  0  0  0  0  0  0  0  0
   13.2669   14.0339   23.8590 O   0  0  0  0  0  0  0  0  0  0  0  0
   12.0065   16.1128   23.1911 O   0  0  0  0  0  0  0  0  0  0  0  0
    5.7437    9.4619   25.3133 F   0  0  0  0  0  0  0  0  0  0  0  0
   12.6699   14.8724   22.8380 S   0  0  0  0  0  0  0  0  0  0  0  0
    6.5051   13.6672   26.7269 H   0  0  0  0  0  0  0  0  0  0  0  0
    8.5642   13.8708   25.4064 H   0  0  0  0  0  0  0  0  0  0  0  0
    5.1823   11.5752   26.6931 H   0  0  0  0  0  0  0  0  0  0  0  0
    6.4571    7.3943   24.6233 H   0  0  0  0  0  0  0  0  0  0  0  0
    7.3364    6.5072   23.3874 H   0  0  0  0  0  0  0  0  0  0  0  0
    6.2163    7.7714   21.7971 H   0  0  0  0  0  0  0  0  0  0  0  0
    5.4916    8.7735   23.0413 H   0  0  0  0  0  0  0  0  0  0  0  0
    8.5604    8.2051   25.2444 H   0  0  0  0  0  0  0  0  0  0  0  0
    9.2503    7.7316   23.6852 H   0  0  0  0  0  0  0  0  0  0  0  0
    8.0711    9.1256   21.5203 H   0  0  0  0  0  0  0  0  0  0  0  0
    6.9302   10.3834   22.0050 H   0  0  0  0  0  0  0  0  0  0  0  0
   10.4702    9.8090   23.7896 H   0  0  0  0  0  0  0  0  0  0  0  0
    9.8341   10.3834   22.2390 H   0  0  0  0  0  0  0  0  0  0  0  0
   12.6058   15.4086   19.9536 H   0  0  0  0  0  0  0  0  0  0  0  0
   12.8912   16.9515   20.7813 H   0  0  0  0  0  0  0  0  0  0  0  0
   14.1453   16.2642   19.7417 H   0  0  0  0  0  0  0  0  0  0  0  0
   10.6033   12.1115   21.5478 H   0  0  0  0  0  0  0  0  0  0  0  0
   12.1456   11.9710   22.4389 H   0  0  0  0  0  0  0  0  0  0  0  0
   14.6861   15.8637   22.1623 H   0  0  0  0  0  0  0  0  0  0  0  0
   14.3812   14.3202   21.3311 H   0  0  0  0  0  0  0  0  0  0  0  0
   10.8773   14.4513   21.3649 H   0  0  0  0  0  0  0  0  0  0  0  0
  1  2  2  0  0  0  0
  1  3  1  0  0  0  0
  2  5  1  0  0  0  0
  3  6  2  0  0  0  0
  4  5  2  0  0  0  0
  4  6  1  0  0  0  0
  4 13  1  0  0  0  0
  5 17  1  0  0  0  0
  6 22  1  0  0  0  0
  7 15  1  0  0  0  0
  7 17  1  0  0  0  0
  7 19  2  0  0  0  0
  8  9  1  0  0  0  0
  8 10  1  0  0  0  0
  9 11  1  0  0  0  0
 10 13  1  0  0  0  0
 11 13  1  0  0  0  0
 12 13  1  0  0  0  0
 12 17  1  0  0  0  0
 14 16  1  0  0  0  0
 15 18  1  0  0  0  0
 16 23  1  0  0  0  0
 18 23  1  0  0  0  0
 20 23  2  0  0  0  0
 21 23  2  0  0  0  0
  1 24  1  0  0  0  0
  2 25  1  0  0  0  0
  3 26  1  0  0  0  0
  8 27  1  0  0  0  0
  8 28  1  0  0  0  0
  9 29  1  0  0  0  0
  9 30  1  0  0  0  0
 10 31  1  0  0  0  0
 10 32  1  0  0  0  0
 11 33  1  0  0  0  0
 11 34  1  0  0  0  0
 12 35  1  0  0  0  0
 12 36  1  0  0  0  0
 14 37  1  0  0  0  0
 14 38  1  0  0  0  0
 14 39  1  0  0  0  0
 15 40  1  0  0  0  0
 15 41  1  0  0  0  0
 16 42  1  0  0  0  0
 16 43  1  0  0  0  0
 18 44  1  0  0  0  0
M  END
> <Catalog ID>
Z1527905201

> <PlateID>
1041831-R-42

> <Well>
G04

> <MW (desalted)>
340.413

> <ClogP>
2.917

> <HBD>
1

> <TPSA>
66.480

> <RotBonds>
3

> <ROCS_ShapeQuery>
A71EV2A-x0451_0A_A71EV2A-x0310_0A_A71EV2A-x0416_0A_peptide

> <ROCS_TanimotoCombo>
0.558 

> <ROCS_ShapeTanimoto>
0.357 

> <ROCS_ColorTanimoto>
0.201 

> <ROCS_RefTversky>
0.313 

> <ROCS_RefColorTversky>
0.213 

> <ROCS_RefTverskyCombo>
0.526 

> <ROCS_FitTversky>
1.640 

> <ROCS_FitColorTversky>
0.786 

> <ROCS_FitTverskyCombo>
2.426 

> <ROCS_ColorScore>
-6.491

> <ROCS_Overlap>
2175.530

> <ROCS_Rank>
47                  

$$$$
untitled-dbase-2051_5239
  -OEChem-11132311063D

 47 50  0     1  0  0  0  0  0999 V2000
    8.7677   16.8580   26.0617 C   0  0  0  0  0  0  0  0  0  0  0  0
    8.4618   16.4264   24.7711 C   0  0  0  0  0  0  0  0  0  0  0  0
    8.7752   15.9473   27.1183 C   0  0  0  0  0  0  0  0  0  0  0  0
    8.1630   15.0842   24.5370 C   0  0  0  0  0  0  0  0  0  0  0  0
    8.4764   14.6051   26.8842 C   0  0  0  0  0  0  0  0  0  0  0  0
    9.9468   10.7114   22.9858 C   0  0  0  0  0  0  0  0  0  0  0  0
    8.5367   11.8895   24.5071 C   0  0  0  0  0  0  0  0  0  0  0  0
    8.1704   14.1735   25.5936 C   0  0  0  0  0  0  0  0  0  0  0  0
    9.6389   11.9011   23.6445 C   0  0  0  0  0  0  0  0  0  0  0  0
    7.8619   12.7879   25.3523 C   0  0  0  0  0  0  0  0  0  0  0  0
    9.1552    9.5920   23.2163 C   0  0  0  0  0  0  0  0  0  0  0  0
    7.8295   10.7053   24.6484 C   0  0  0  0  0  0  0  0  0  0  0  0
   10.4604   13.1196   23.4266 C   0  0  0  0  0  0  0  0  0  0  0  0
    9.7480    7.0790   23.3008 C   0  0  0  0  0  0  0  0  0  0  0  0
   10.8977    7.7728   22.6397 C   0  0  0  0  0  0  0  0  0  0  0  0
    9.5068    8.3287   22.4986 C   0  0  0  0  0  0  0  0  0  0  0  0
   13.3251   15.3140   19.9476 C   0  0  0  0  0  0  0  0  0  0  0  0
   12.4002   14.1842   20.3823 C   0  0  0  0  0  0  0  0  0  0  0  0
   11.1003   15.6420   21.9775 C   0  0  0  0  0  0  0  0  0  0  0  0
   11.9008   14.3486   21.8232 C   0  0  1  0  0  0  0  0  0  0  0  0
    6.8225   12.2192   25.9698 N   0  0  0  0  0  0  0  0  0  0  0  0
    8.0816    9.5319   24.0396 N   0  0  0  0  0  0  0  0  0  0  0  0
   11.0497   13.2294   22.1804 N   0  0  0  0  0  0  0  0  0  0  0  0
   10.5865   13.9297   24.3411 O   0  0  0  0  0  0  0  0  0  0  0  0
    6.8041   10.9040   25.5238 O   0  0  0  0  0  0  0  0  0  0  0  0
   11.0490   16.0043   23.3529 O   0  0  0  0  0  0  0  0  0  0  0  0
    9.0014   17.9029   26.2440 H   0  0  0  0  0  0  0  0  0  0  0  0
    8.4572   17.1351   23.9481 H   0  0  0  0  0  0  0  0  0  0  0  0
    9.0147   16.2834   28.1228 H   0  0  0  0  0  0  0  0  0  0  0  0
    7.9264   14.7632   23.5252 H   0  0  0  0  0  0  0  0  0  0  0  0
    8.4865   13.9076   27.7186 H   0  0  0  0  0  0  0  0  0  0  0  0
   10.7915   10.6625   22.3040 H   0  0  0  0  0  0  0  0  0  0  0  0
    9.4111    6.1419   22.8732 H   0  0  0  0  0  0  0  0  0  0  0  0
    9.6888    7.1216   24.3816 H   0  0  0  0  0  0  0  0  0  0  0  0
   11.6104    8.2836   23.2764 H   0  0  0  0  0  0  0  0  0  0  0  0
   11.3371    7.3035   21.7675 H   0  0  0  0  0  0  0  0  0  0  0  0
    9.0304    8.2030   21.5365 H   0  0  0  0  0  0  0  0  0  0  0  0
   12.8207   16.2828   20.0204 H   0  0  0  0  0  0  0  0  0  0  0  0
   13.6657   15.1788   18.9165 H   0  0  0  0  0  0  0  0  0  0  0  0
   14.2103   15.3440   20.5912 H   0  0  0  0  0  0  0  0  0  0  0  0
   12.9485   13.2386   20.2921 H   0  0  0  0  0  0  0  0  0  0  0  0
   11.5527   14.1304   19.6876 H   0  0  0  0  0  0  0  0  0  0  0  0
   11.5544   16.4667   21.4174 H   0  0  0  0  0  0  0  0  0  0  0  0
   10.0707   15.5042   21.6309 H   0  0  0  0  0  0  0  0  0  0  0  0
   12.7518   14.3642   22.5144 H   0  0  0  0  0  0  0  0  0  0  0  0
   10.9541   12.4918   21.4937 H   0  0  0  0  0  0  0  0  0  0  0  0
   10.6154   15.2712   23.8177 H   0  0  0  0  0  0  0  0  0  0  0  0
  1  2  2  0  0  0  0
  1  3  1  0  0  0  0
  2  4  1  0  0  0  0
  3  5  2  0  0  0  0
  4  8  2  0  0  0  0
  5  8  1  0  0  0  0
  6  9  1  0  0  0  0
  6 11  2  0  0  0  0
  7  9  2  0  0  0  0
  7 10  1  0  0  0  0
  7 12  1  0  0  0  0
  8 10  1  0  0  0  0
  9 13  1  0  0  0  0
 10 21  2  0  0  0  0
 11 16  1  0  0  0  0
 11 22  1  0  0  0  0
 12 22  2  0  0  0  0
 12 25  1  0  0  0  0
 13 23  1  0  0  0  0
 13 24  2  0  0  0  0
 14 15  1  0  0  0  0
 14 16  1  0  0  0  0
 15 16  1  0  0  0  0
 17 18  1  0  0  0  0
 18 20  1  0  0  0  0
 19 20  1  0  0  0  0
 19 26  1  0  0  0  0
 20 23  1  6  0  0  0
 21 25  1  0  0  0  0
  1 27  1  0  0  0  0
  2 28  1  0  0  0  0
  3 29  1  0  0  0  0
  4 30  1  0  0  0  0
  5 31  1  0  0  0  0
  6 32  1  0  0  0  0
 14 33  1  0  0  0  0
 14 34  1  0  0  0  0
 15 35  1  0  0  0  0
 15 36  1  0  0  0  0
 16 37  1  0  0  0  0
 17 38  1  0  0  0  0
 17 39  1  0  0  0  0
 17 40  1  0  0  0  0
 18 41  1  0  0  0  0
 18 42  1  0  0  0  0
 19 43  1  0  0  0  0
 19 44  1  0  0  0  0
 20 45  1  0  0  0  0
 23 46  1  0  0  0  0
 26 47  1  0  0  0  0
M  END
> <Catalog ID>
Z1768889808

> <PlateID>
1041831-R-26

> <Well>
F02

> <MW (desalted)>
351.399

> <ClogP>
3.528

> <HBD>
2

> <TPSA>
88.250

> <RotBonds>
6

> <ROCS_ShapeQuery>
A71EV2A-x0451_0A_A71EV2A-x0310_0A_A71EV2A-x0416_0A_peptide

> <ROCS_TanimotoCombo>
0.558 

> <ROCS_ShapeTanimoto>
0.356 

> <ROCS_ColorTanimoto>
0.202 

> <ROCS_RefTversky>
0.319 

> <ROCS_RefColorTversky>
0.229 

> <ROCS_RefTverskyCombo>
0.548 

> <ROCS_FitTversky>
1.488 

> <ROCS_FitColorTversky>
0.631 

> <ROCS_FitTverskyCombo>
2.118 

> <ROCS_ColorScore>
-7.008

> <ROCS_Overlap>
2218.794

> <ROCS_Rank>
48                  

$$$$
untitled-dbase-2928_193
  -OEChem-11132311063D

 44 47  0     1  0  0  0  0  0999 V2000
   13.6392   15.5517   19.5259 C   0  0  0  0  0  0  0  0  0  0  0  0
   12.4354   16.0541   19.0321 C   0  0  0  0  0  0  0  0  0  0  0  0
   13.6494   14.7855   20.6915 C   0  0  0  0  0  0  0  0  0  0  0  0
   11.2417   15.7906   19.7039 C   0  0  0  0  0  0  0  0  0  0  0  0
   12.4557   14.5220   21.3633 C   0  0  0  0  0  0  0  0  0  0  0  0
   11.2518   15.0245   20.8695 C   0  0  0  0  0  0  0  0  0  0  0  0
   11.1379   13.4887   23.2379 C   0  0  0  0  0  0  0  0  0  0  0  0
   13.6571   13.8228   23.5337 C   0  0  0  0  0  0  0  0  0  0  0  0
   13.4744   12.5824   22.7208 C   0  0  0  0  0  0  0  0  0  0  0  0
    8.2461   12.1883   25.7393 C   0  0  0  0  0  0  0  0  0  0  0  0
    6.8307   11.8553   25.2783 C   0  0  0  0  0  0  0  0  0  0  0  0
    9.1684   11.4822   24.7533 C   0  0  2  0  0  0  0  0  0  0  0  0
    9.1801   11.9567   23.2766 C   0  0  2  0  0  0  0  0  0  0  0  0
    8.2958   10.2811   24.3359 C   0  0  2  0  0  0  0  0  0  0  0  0
   12.4701   13.7087   22.6012 C   0  0  0  0  0  0  0  0  0  0  0  0
    8.7069   10.5280   22.8518 C   0  0  0  0  0  0  0  0  0  0  0  0
    7.5531   10.5466   21.8508 C   0  0  0  0  0  0  0  0  0  0  0  0
    9.7993    9.5516   22.3991 C   0  0  0  0  0  0  0  0  0  0  0  0
   10.4926   12.3617   22.7869 N   0  0  0  0  0  0  0  0  0  0  0  0
   10.7304   14.2839   24.0765 O   0  0  0  0  0  0  0  0  0  0  0  0
    6.9237   10.5357   24.7288 O   0  0  0  0  0  0  0  0  0  0  0  0
   10.0991   14.7783   21.5079 F   0  0  0  0  0  0  0  0  0  0  0  0
   14.5682   15.7567   19.0021 H   0  0  0  0  0  0  0  0  0  0  0  0
   12.4272   16.6506   18.1245 H   0  0  0  0  0  0  0  0  0  0  0  0
   14.5925   14.3977   21.0679 H   0  0  0  0  0  0  0  0  0  0  0  0
   10.3047   16.1830   19.3203 H   0  0  0  0  0  0  0  0  0  0  0  0
   13.4952   13.7516   24.6033 H   0  0  0  0  0  0  0  0  0  0  0  0
   14.4653   14.4906   23.2577 H   0  0  0  0  0  0  0  0  0  0  0  0
   14.1600   12.4150   21.8980 H   0  0  0  0  0  0  0  0  0  0  0  0
   13.1891   11.6762   23.2431 H   0  0  0  0  0  0  0  0  0  0  0  0
    8.4215   13.2666   25.7902 H   0  0  0  0  0  0  0  0  0  0  0  0
    8.4066   11.7733   26.7417 H   0  0  0  0  0  0  0  0  0  0  0  0
    6.1131   11.8684   26.1029 H   0  0  0  0  0  0  0  0  0  0  0  0
    6.4880   12.5343   24.4915 H   0  0  0  0  0  0  0  0  0  0  0  0
   10.1491   11.2150   25.1623 H   0  0  0  0  0  0  0  0  0  0  0  0
    8.4477   12.7462   23.0677 H   0  0  0  0  0  0  0  0  0  0  0  0
    8.6241    9.3218   24.7513 H   0  0  0  0  0  0  0  0  0  0  0  0
    7.2702    9.5268   21.5952 H   0  0  0  0  0  0  0  0  0  0  0  0
    7.8582   11.0697   20.9462 H   0  0  0  0  0  0  0  0  0  0  0  0
    6.6954   11.0565   22.2862 H   0  0  0  0  0  0  0  0  0  0  0  0
    9.3475    8.6001   22.1319 H   0  0  0  0  0  0  0  0  0  0  0  0
   10.5087    9.4003   23.2082 H   0  0  0  0  0  0  0  0  0  0  0  0
   10.3171    9.9611   21.5359 H   0  0  0  0  0  0  0  0  0  0  0  0
   10.9459   11.7912   22.0882 H   0  0  0  0  0  0  0  0  0  0  0  0
  1  2  2  0  0  0  0
  1  3  1  0  0  0  0
  2  4  1  0  0  0  0
  3  5  2  0  0  0  0
  4  6  2  0  0  0  0
  5  6  1  0  0  0  0
  5 15  1  0  0  0  0
  6 22  1  0  0  0  0
  7 15  1  0  0  0  0
  7 19  1  0  0  0  0
  7 20  2  0  0  0  0
  8  9  1  0  0  0  0
  8 15  1  0  0  0  0
  9 15  1  0  0  0  0
 10 11  1  0  0  0  0
 10 12  1  0  0  0  0
 11 21  1  0  0  0  0
 12 13  1  0  0  0  0
 12 14  1  0  0  0  0
 13 16  1  0  0  0  0
 13 19  1  0  0  0  0
 14 16  1  0  0  0  0
 14 21  1  0  0  0  0
 16 17  1  0  0  0  0
 16 18  1  0  0  0  0
  1 23  1  0  0  0  0
  2 24  1  0  0  0  0
  3 25  1  0  0  0  0
  4 26  1  0  0  0  0
  8 27  1  0  0  0  0
  8 28  1  0  0  0  0
  9 29  1  0  0  0  0
  9 30  1  0  0  0  0
 10 31  1  0  0  0  0
 10 32  1  0  0  0  0
 11 33  1  0  0  0  0
 11 34  1  0  0  0  0
 12 35  1  0  0  0  0
 13 36  1  0  0  0  0
 14 37  1  0  0  0  0
 17 38  1  0  0  0  0
 17 39  1  0  0  0  0
 17 40  1  0  0  0  0
 18 41  1  0  0  0  0
 18 42  1  0  0  0  0
 18 43  1  0  0  0  0
 19 44  1  0  0  0  0
M  END
> <Catalog ID>
Z1255980656

> <PlateID>
1041831-R-37

> <Well>
E09

> <MW (desalted)>
303.371

> <ClogP>
2.241

> <HBD>
1

> <TPSA>
38.330

> <RotBonds>
3

> <ROCS_ShapeQuery>
A71EV2A-x0451_0A_A71EV2A-x0310_0A_A71EV2A-x0416_0A_peptide

> <ROCS_TanimotoCombo>
0.558 

> <ROCS_ShapeTanimoto>
0.328 

> <ROCS_ColorTanimoto>
0.230 

> <ROCS_RefTversky>
0.293 

> <ROCS_RefColorTversky>
0.257 

> <ROCS_RefTverskyCombo>
0.551 

> <ROCS_FitTversky>
1.559 

> <ROCS_FitColorTversky>
0.687 

> <ROCS_FitTverskyCombo>
2.245 

> <ROCS_ColorScore>
-7.889

> <ROCS_Overlap>
2036.802

> <ROCS_Rank>
49                  

$$$$
untitled-dbase-1874_2796
  -OEChem-11132311063D

 54 57  0     1  0  0  0  0  0999 V2000
    8.8444    6.8424   20.7773 C   0  0  0  0  0  0  0  0  0  0  0  0
   10.1011    6.2455   20.8779 C   0  0  0  0  0  0  0  0  0  0  0  0
    8.5617    7.9993   21.5035 C   0  0  0  0  0  0  0  0  0  0  0  0
   11.0750    6.8054   21.7047 C   0  0  0  0  0  0  0  0  0  0  0  0
    9.9586   10.9179   22.8711 C   0  0  0  0  0  0  0  0  0  0  0  0
    7.8899   12.7987   25.4150 C   0  0  0  0  0  0  0  0  0  0  0  0
    8.5651   11.9665   24.5001 C   0  0  0  0  0  0  0  0  0  0  0  0
    9.5356    8.5593   22.3303 C   0  0  0  0  0  0  0  0  0  0  0  0
    9.6333   12.0622   23.5995 C   0  0  0  0  0  0  0  0  0  0  0  0
   10.7922    7.9623   22.4310 C   0  0  0  0  0  0  0  0  0  0  0  0
    9.2173    9.7585   23.0729 C   0  0  0  0  0  0  0  0  0  0  0  0
    7.9102   10.7493   24.6038 C   0  0  0  0  0  0  0  0  0  0  0  0
   10.0205   15.8368   19.7357 C   0  0  0  0  0  0  0  0  0  0  0  0
   10.3929   13.3267   23.4225 C   0  0  0  0  0  0  0  0  0  0  0  0
   11.0616   14.7861   19.4050 C   0  0  0  0  0  0  0  0  0  0  0  0
   12.2109   14.6872   20.3977 C   0  0  0  0  0  0  0  0  0  0  0  0
   10.9273   15.9832   22.0766 C   0  0  0  0  0  0  0  0  0  0  0  0
   11.7209   14.7069   21.8422 C   0  0  1  0  0  0  0  0  0  0  0  0
   11.8610    8.5335   23.3068 C   0  0  0  0  0  0  0  0  0  0  0  0
    6.0388    9.7443   27.5048 C   0  0  0  0  0  0  0  0  0  0  0  0
    6.1241    8.6168   25.2403 C   0  0  0  0  0  0  0  0  0  0  0  0
    5.9772    9.9429   25.9890 C   0  0  0  0  0  0  0  0  0  0  0  0
    6.8927   12.1715   26.0476 N   0  0  0  0  0  0  0  0  0  0  0  0
    8.1778    9.6167   23.9306 N   0  0  0  0  0  0  0  0  0  0  0  0
    6.9294   10.9284   25.5342 N   0  0  0  0  0  0  0  0  0  0  0  0
    9.9421   16.2522   21.0454 N   0  0  0  0  0  0  0  0  0  0  0  0
   10.9363   13.5381   22.1631 N   0  0  0  0  0  0  0  0  0  0  0  0
    9.2359   16.2323   18.8710 O   0  0  0  0  0  0  0  0  0  0  0  0
   10.5170   14.0906   24.3762 O   0  0  0  0  0  0  0  0  0  0  0  0
    8.0863    6.4066   20.1331 H   0  0  0  0  0  0  0  0  0  0  0  0
   10.3210    5.3449   20.3121 H   0  0  0  0  0  0  0  0  0  0  0  0
    7.5769    8.4519   21.4133 H   0  0  0  0  0  0  0  0  0  0  0  0
   12.0509    6.3324   21.7757 H   0  0  0  0  0  0  0  0  0  0  0  0
   10.7797   10.9387   22.1589 H   0  0  0  0  0  0  0  0  0  0  0  0
    8.0802   13.8364   25.6496 H   0  0  0  0  0  0  0  0  0  0  0  0
   10.5582   13.8126   19.3359 H   0  0  0  0  0  0  0  0  0  0  0  0
   11.4533   15.0245   18.4064 H   0  0  0  0  0  0  0  0  0  0  0  0
   12.7821   13.7585   20.2055 H   0  0  0  0  0  0  0  0  0  0  0  0
   12.9149   15.5211   20.2182 H   0  0  0  0  0  0  0  0  0  0  0  0
   10.3698   15.9322   23.0218 H   0  0  0  0  0  0  0  0  0  0  0  0
   11.5912   16.8554   22.1316 H   0  0  0  0  0  0  0  0  0  0  0  0
   12.5872   14.6894   22.5247 H   0  0  0  0  0  0  0  0  0  0  0  0
   12.4670    9.2522   22.7442 H   0  0  0  0  0  0  0  0  0  0  0  0
   11.4286    9.0432   24.1758 H   0  0  0  0  0  0  0  0  0  0  0  0
   12.5187    7.7452   23.6919 H   0  0  0  0  0  0  0  0  0  0  0  0
    7.0080    9.3483   27.8260 H   0  0  0  0  0  0  0  0  0  0  0  0
    5.2665    9.0400   27.8320 H   0  0  0  0  0  0  0  0  0  0  0  0
    5.8750   10.6921   28.0296 H   0  0  0  0  0  0  0  0  0  0  0  0
    7.1038    8.1661   25.4332 H   0  0  0  0  0  0  0  0  0  0  0  0
    6.0315    8.7729   24.1602 H   0  0  0  0  0  0  0  0  0  0  0  0
    5.3591    7.8921   25.5387 H   0  0  0  0  0  0  0  0  0  0  0  0
    4.9807   10.3389   25.7543 H   0  0  0  0  0  0  0  0  0  0  0  0
    9.1253   16.7929   21.3129 H   0  0  0  0  0  0  0  0  0  0  0  0
   10.8429   12.8279   21.4419 H   0  0  0  0  0  0  0  0  0  0  0  0
  1  2  2  0  0  0  0
  1  3  1  0  0  0  0
  2  4  1  0  0  0  0
  3  8  2  0  0  0  0
  4 10  2  0  0  0  0
  5  9  1  0  0  0  0
  5 11  2  0  0  0  0
  6  7  1  0  0  0  0
  6 23  2  0  0  0  0
  7  9  2  0  0  0  0
  7 12  1  0  0  0  0
  8 10  1  0  0  0  0
  8 11  1  0  0  0  0
  9 14  1  0  0  0  0
 10 19  1  0  0  0  0
 11 24  1  0  0  0  0
 12 24  2  0  0  0  0
 12 25  1  0  0  0  0
 13 15  1  0  0  0  0
 13 26  1  0  0  0  0
 13 28  2  0  0  0  0
 14 27  1  0  0  0  0
 14 29  2  0  0  0  0
 15 16  1  0  0  0  0
 16 18  1  0  0  0  0
 17 18  1  0  0  0  0
 17 26  1  0  0  0  0
 18 27  1  0  0  0  0
 20 22  1  0  0  0  0
 21 22  1  0  0  0  0
 22 25  1  0  0  0  0
 23 25  1  0  0  0  0
  1 30  1  0  0  0  0
  2 31  1  0  0  0  0
  3 32  1  0  0  0  0
  4 33  1  0  0  0  0
  5 34  1  0  0  0  0
  6 35  1  0  0  0  0
 15 36  1  0  0  0  0
 15 37  1  0  0  0  0
 16 38  1  0  0  0  0
 16 39  1  0  0  0  0
 17 40  1  0  0  0  0
 17 41  1  0  0  0  0
 18 42  1  0  0  0  0
 19 43  1  0  0  0  0
 19 44  1  0  0  0  0
 19 45  1  0  0  0  0
 20 46  1  0  0  0  0
 20 47  1  0  0  0  0
 20 48  1  0  0  0  0
 21 49  1  0  0  0  0
 21 50  1  0  0  0  0
 21 51  1  0  0  0  0
 22 52  1  0  0  0  0
 26 53  1  0  0  0  0
 27 54  1  0  0  0  0
M  END
> <Catalog ID>
Z991769060

> <PlateID>
1041831-R-24

> <Well>
D05

> <MW (desalted)>
391.466

> <ClogP>
2.373

> <HBD>
2

> <TPSA>
88.910

> <RotBonds>
4

> <ROCS_ShapeQuery>
A71EV2A-x0451_0A_A71EV2A-x0310_0A_A71EV2A-x0416_0A_peptide

> <ROCS_TanimotoCombo>
0.558 

> <ROCS_ShapeTanimoto>
0.358 

> <ROCS_ColorTanimoto>
0.200 

> <ROCS_RefTversky>
0.325 

> <ROCS_RefColorTversky>
0.232 

> <ROCS_RefTverskyCombo>
0.557 

> <ROCS_FitTversky>
1.387 

> <ROCS_FitColorTversky>
0.591 

> <ROCS_FitTverskyCombo>
1.979 

> <ROCS_ColorScore>
-7.128

> <ROCS_Overlap>
2263.727

> <ROCS_Rank>
50                  

$$$$
untitled-dbase-974_270
  -OEChem-11132311063D

 37 40  0     0  0  0  0  0  0999 V2000
   12.5980   15.7568   19.8411 C   0  0  0  0  0  0  0  0  0  0  0  0
   13.4093   16.4755   20.7192 C   0  0  0  0  0  0  0  0  0  0  0  0
    9.7841    6.4701   21.5035 C   0  0  0  0  0  0  0  0  0  0  0  0
   11.7948   14.7226   20.3218 C   0  0  0  0  0  0  0  0  0  0  0  0
   13.4174   16.1599   22.0779 C   0  0  0  0  0  0  0  0  0  0  0  0
    8.8546    7.3556   22.0995 C   0  0  0  0  0  0  0  0  0  0  0  0
    9.9930   10.8225   22.9716 C   0  0  0  0  0  0  0  0  0  0  0  0
   11.0128    7.0794   21.6073 C   0  0  0  0  0  0  0  0  0  0  0  0
    8.5386   11.9395   24.4973 C   0  0  0  0  0  0  0  0  0  0  0  0
    9.6399   11.9968   23.6353 C   0  0  0  0  0  0  0  0  0  0  0  0
   11.8029   14.4071   21.6804 C   0  0  0  0  0  0  0  0  0  0  0  0
   12.6142   15.1257   22.5585 C   0  0  0  0  0  0  0  0  0  0  0  0
    9.2444    9.6730   23.1968 C   0  0  0  0  0  0  0  0  0  0  0  0
    9.5817    8.4428   22.5252 C   0  0  0  0  0  0  0  0  0  0  0  0
    7.8298   12.8080   25.3461 C   0  0  0  0  0  0  0  0  0  0  0  0
    7.8768   10.7288   24.6330 C   0  0  0  0  0  0  0  0  0  0  0  0
   10.3932   13.2203   23.4329 C   0  0  0  0  0  0  0  0  0  0  0  0
    8.0799   14.2356   25.6077 C   0  0  0  0  0  0  0  0  0  0  0  0
    8.1735    9.5685   24.0192 N   0  0  0  0  0  0  0  0  0  0  0  0
    6.8125   12.1975   25.9606 N   0  0  0  0  0  0  0  0  0  0  0  0
   10.9853   13.3556   22.1660 N   0  0  0  0  0  0  0  0  0  0  0  0
   10.5272   14.0631   24.3334 O   0  0  0  0  0  0  0  0  0  0  0  0
   10.8981    8.2823   22.2290 O   0  0  0  0  0  0  0  0  0  0  0  0
    6.8442   10.8846   25.5087 O   0  0  0  0  0  0  0  0  0  0  0  0
   12.6302   14.8313   23.8665 F   0  0  0  0  0  0  0  0  0  0  0  0
   12.5927   16.0024   18.7833 H   0  0  0  0  0  0  0  0  0  0  0  0
   14.0351   17.2804   20.3450 H   0  0  0  0  0  0  0  0  0  0  0  0
    9.5833    5.5082   21.0545 H   0  0  0  0  0  0  0  0  0  0  0  0
   11.1669   14.1694   19.6279 H   0  0  0  0  0  0  0  0  0  0  0  0
   14.0490   16.7192   22.7613 H   0  0  0  0  0  0  0  0  0  0  0  0
    7.7880    7.2137   22.2032 H   0  0  0  0  0  0  0  0  0  0  0  0
   10.8397   10.8120   22.2898 H   0  0  0  0  0  0  0  0  0  0  0  0
   12.0124    6.8031   21.3050 H   0  0  0  0  0  0  0  0  0  0  0  0
    7.5246   14.8756   24.9007 H   0  0  0  0  0  0  0  0  0  0  0  0
    7.7807   14.5311   26.6291 H   0  0  0  0  0  0  0  0  0  0  0  0
    9.1503   14.4943   25.5201 H   0  0  0  0  0  0  0  0  0  0  0  0
   10.8033   12.5994   21.5107 H   0  0  0  0  0  0  0  0  0  0  0  0
  1  2  2  0  0  0  0
  1  4  1  0  0  0  0
  2  5  1  0  0  0  0
  3  6  1  0  0  0  0
  3  8  2  0  0  0  0
  4 11  2  0  0  0  0
  5 12  2  0  0  0  0
  6 14  2  0  0  0  0
  7 10  1  0  0  0  0
  7 13  2  0  0  0  0
  8 23  1  0  0  0  0
  9 10  2  0  0  0  0
  9 15  1  0  0  0  0
  9 16  1  0  0  0  0
 10 17  1  0  0  0  0
 11 12  1  0  0  0  0
 11 21  1  0  0  0  0
 12 25  1  0  0  0  0
 13 14  1  0  0  0  0
 13 19  1  0  0  0  0
 14 23  1  0  0  0  0
 15 18  1  0  0  0  0
 15 20  2  0  0  0  0
 16 19  2  0  0  0  0
 16 24  1  0  0  0  0
 17 21  1  0  0  0  0
 17 22  2  0  0  0  0
 20 24  1  0  0  0  0
  1 26  1  0  0  0  0
  2 27  1  0  0  0  0
  3 28  1  0  0  0  0
  4 29  1  0  0  0  0
  5 30  1  0  0  0  0
  6 31  1  0  0  0  0
  7 32  1  0  0  0  0
  8 33  1  0  0  0  0
 18 34  1  0  0  0  0
 18 35  1  0  0  0  0
 18 36  1  0  0  0  0
 21 37  1  0  0  0  0
M  END
> <Catalog ID>
Z228619912

> <PlateID>
1041831-R-13

> <Well>
B05

> <MW (desalted)>
337.305

> <ClogP>
3.306

> <HBD>
1

> <TPSA>
81.160

> <RotBonds>
3

> <ROCS_ShapeQuery>
A71EV2A-x0451_0A_A71EV2A-x0310_0A_A71EV2A-x0416_0A_peptide

> <ROCS_TanimotoCombo>
0.558 

> <ROCS_ShapeTanimoto>
0.373 

> <ROCS_ColorTanimoto>
0.185 

> <ROCS_RefTversky>
0.330 

> <ROCS_RefColorTversky>
0.208 

> <ROCS_RefTverskyCombo>
0.538 

> <ROCS_FitTversky>
1.538 

> <ROCS_FitColorTversky>
0.627 

> <ROCS_FitTverskyCombo>
2.165 

> <ROCS_ColorScore>
-6.366

> <ROCS_Overlap>
2292.405

> <ROCS_Rank>
51                  

$$$$
untitled-dbase-2555_1551
  -OEChem-11132311063D

 35 37  0     1  0  0  0  0  0999 V2000
    7.8550   12.8469   24.5261 C   0  0  0  0  0  0  0  0  0  0  0  0
    7.0175   12.8563   25.6474 C   0  0  0  0  0  0  0  0  0  0  0  0
    7.2955   10.4604   25.9416 C   0  0  0  0  0  0  0  0  0  0  0  0
    9.5076    9.9010   23.1291 C   0  0  0  0  0  0  0  0  0  0  0  0
   13.6751   16.7031   20.5245 C   0  0  0  0  0  0  0  0  0  0  0  0
   13.3792   15.8049   18.3091 C   0  0  0  0  0  0  0  0  0  0  0  0
    8.4231   11.6289   24.1028 C   0  0  0  0  0  0  0  0  0  0  0  0
    9.2927   11.2570   23.0395 C   0  0  0  0  0  0  0  0  0  0  0  0
    8.1309   10.4661   24.8189 C   0  0  0  0  0  0  0  0  0  0  0  0
    6.7434   11.6803   26.3428 C   0  0  0  0  0  0  0  0  0  0  0  0
   13.1006   15.4512   20.4555 C   0  0  0  0  0  0  0  0  0  0  0  0
   12.6757   14.6700   21.6456 C   0  0  0  0  0  0  0  0  0  0  0  0
   10.6514   13.8687   23.7070 C   0  0  0  0  0  0  0  0  0  0  0  0
    9.8664   12.1562   22.0178 C   0  0  0  0  0  0  0  0  0  0  0  0
   11.0576   13.0055   22.5215 C   0  0  1  0  0  0  0  0  0  0  0  0
   12.9298   14.9347   19.1859 N   0  0  0  0  0  0  0  0  0  0  0  0
    8.8026    9.4329   24.2053 N   0  0  0  0  0  0  0  0  0  0  0  0
   11.6015   13.8117   21.4575 N   0  0  0  0  0  0  0  0  0  0  0  0
   13.2645   14.8321   22.7112 O   0  0  0  0  0  0  0  0  0  0  0  0
   10.7552   13.4957   24.8709 O   0  0  0  0  0  0  0  0  0  0  0  0
   10.1692   15.0919   23.3812 O   0  0  0  0  0  0  0  0  0  0  0  0
    5.9378   11.7183   27.4133 F   0  0  0  0  0  0  0  0  0  0  0  0
   14.0212   17.2653   18.9416 S   0  0  0  0  0  0  0  0  0  0  0  0
    8.0583   13.7721   23.9943 H   0  0  0  0  0  0  0  0  0  0  0  0
    6.5772   13.7929   25.9788 H   0  0  0  0  0  0  0  0  0  0  0  0
    7.0816    9.5456   26.4838 H   0  0  0  0  0  0  0  0  0  0  0  0
   10.0984    9.2262   22.5253 H   0  0  0  0  0  0  0  0  0  0  0  0
   13.9034   17.2990   21.3972 H   0  0  0  0  0  0  0  0  0  0  0  0
   13.3495   15.6164   17.2447 H   0  0  0  0  0  0  0  0  0  0  0  0
    9.0784   12.8350   21.6334 H   0  0  0  0  0  0  0  0  0  0  0  0
   10.1900   11.5912   21.1188 H   0  0  0  0  0  0  0  0  0  0  0  0
   11.8761   12.3609   22.8622 H   0  0  0  0  0  0  0  0  0  0  0  0
    8.7787    8.4684   24.5063 H   0  0  0  0  0  0  0  0  0  0  0  0
   11.1259   13.7795   20.5597 H   0  0  0  0  0  0  0  0  0  0  0  0
   10.1330   15.2777   22.4193 H   0  0  0  0  0  0  0  0  0  0  0  0
  1  2  1  0  0  0  0
  1  7  2  0  0  0  0
  2 10  2  0  0  0  0
  3  9  2  0  0  0  0
  3 10  1  0  0  0  0
  4  8  2  0  0  0  0
  4 17  1  0  0  0  0
  5 11  2  0  0  0  0
  5 23  1  0  0  0  0
  6 16  2  0  0  0  0
  6 23  1  0  0  0  0
  7  8  1  0  0  0  0
  7  9  1  0  0  0  0
  8 14  1  0  0  0  0
  9 17  1  0  0  0  0
 10 22  1  0  0  0  0
 11 12  1  0  0  0  0
 11 16  1  0  0  0  0
 12 18  1  0  0  0  0
 12 19  2  0  0  0  0
 13 15  1  0  0  0  0
 13 20  2  0  0  0  0
 13 21  1  0  0  0  0
 14 15  1  0  0  0  0
 15 18  1  0  0  0  0
  1 24  1  0  0  0  0
  2 25  1  0  0  0  0
  3 26  1  0  0  0  0
  4 27  1  0  0  0  0
  5 28  1  0  0  0  0
  6 29  1  0  0  0  0
 14 30  1  0  0  0  0
 14 31  1  0  0  0  0
 15 32  1  0  0  0  0
 17 33  1  0  0  0  0
 18 34  1  0  0  0  0
 21 35  1  0  0  0  0
M  END
> <Catalog ID>
Z1603708693

> <PlateID>
1041831-R-32

> <Well>
H06

> <MW (desalted)>
333.337

> <ClogP>
2.136

> <HBD>
3

> <TPSA>
95.080

> <RotBonds>
5

> <ROCS_ShapeQuery>
A71EV2A-x0451_0A_A71EV2A-x0310_0A_A71EV2A-x0416_0A_peptide

> <ROCS_TanimotoCombo>
0.558 

> <ROCS_ShapeTanimoto>
0.362 

> <ROCS_ColorTanimoto>
0.196 

> <ROCS_RefTversky>
0.317 

> <ROCS_RefColorTversky>
0.223 

> <ROCS_RefTverskyCombo>
0.541 

> <ROCS_FitTversky>
1.631 

> <ROCS_FitColorTversky>
0.616 

> <ROCS_FitTverskyCombo>
2.246 

> <ROCS_ColorScore>
-6.842

> <ROCS_Overlap>
2204.174

> <ROCS_Rank>
52                  

$$$$
untitled-dbase-1862_2606
  -OEChem-11132311063D

 49 52  0     1  0  0  0  0  0999 V2000
    6.3751   10.7587   26.5351 C   0  0  0  0  0  0  0  0  0  0  0  0
    6.3481   12.1332   26.2882 C   0  0  0  0  0  0  0  0  0  0  0  0
    7.1614    9.9010   25.7556 C   0  0  0  0  0  0  0  0  0  0  0  0
    7.1034   12.7003   25.2564 C   0  0  0  0  0  0  0  0  0  0  0  0
    7.9264   10.4537   24.7146 C   0  0  0  0  0  0  0  0  0  0  0  0
    7.8788   11.8271   24.4930 C   0  0  0  0  0  0  0  0  0  0  0  0
    9.2285   10.8155   23.0613 C   0  0  0  0  0  0  0  0  0  0  0  0
   10.3767   13.8582   23.2036 C   0  0  0  0  0  0  0  0  0  0  0  0
   13.8948   15.9082   18.2589 C   0  0  0  0  0  0  0  0  0  0  0  0
   12.6843   14.9663   18.3454 C   0  0  0  0  0  0  0  0  0  0  0  0
   12.3682   16.7469   19.8811 C   0  0  0  0  0  0  0  0  0  0  0  0
   14.3064   15.6513   20.7199 C   0  0  0  0  0  0  0  0  0  0  0  0
   13.8680   16.6313   19.6163 C   0  0  1  0  0  0  0  0  0  0  0  0
   12.1351   15.2395   19.7583 C   0  0  2  0  0  0  0  0  0  0  0  0
   13.1308   14.6527   20.7875 C   0  0  2  0  0  0  0  0  0  0  0  0
   13.3563   13.6193   23.0738 C   0  0  0  0  0  0  0  0  0  0  0  0
   10.1755   10.6677   21.9371 C   0  0  0  0  0  0  0  0  0  0  0  0
    9.0198   13.3164   22.8078 C   0  0  0  0  0  0  0  0  0  0  0  0
   12.5403   14.5490   22.1894 C   0  0  2  0  0  0  0  0  0  0  0  0
    8.7700    9.8420   23.8158 N   0  0  0  0  0  0  0  0  0  0  0  0
    8.7210   12.0303   23.4299 N   0  0  0  0  0  0  0  0  0  0  0  0
   11.1550   14.0306   22.0928 N   0  0  0  0  0  0  0  0  0  0  0  0
   10.6986   14.0949   24.3648 O   0  0  0  0  0  0  0  0  0  0  0  0
   11.3547   11.4302   22.1911 O   0  0  0  0  0  0  0  0  0  0  0  0
    5.7782   10.3477   27.3452 H   0  0  0  0  0  0  0  0  0  0  0  0
    5.7280   12.7753   26.9092 H   0  0  0  0  0  0  0  0  0  0  0  0
    7.1758    8.8347   25.9562 H   0  0  0  0  0  0  0  0  0  0  0  0
    7.0825   13.7675   25.0660 H   0  0  0  0  0  0  0  0  0  0  0  0
   14.8293   15.3633   18.0920 H   0  0  0  0  0  0  0  0  0  0  0  0
   13.7604   16.6183   17.4353 H   0  0  0  0  0  0  0  0  0  0  0  0
   11.9441   15.2336   17.5825 H   0  0  0  0  0  0  0  0  0  0  0  0
   12.9648   13.9192   18.1945 H   0  0  0  0  0  0  0  0  0  0  0  0
   12.1335   17.1502   20.8708 H   0  0  0  0  0  0  0  0  0  0  0  0
   11.8396   17.3281   19.1179 H   0  0  0  0  0  0  0  0  0  0  0  0
   15.2488   15.1507   20.4746 H   0  0  0  0  0  0  0  0  0  0  0  0
   14.4413   16.1813   21.6698 H   0  0  0  0  0  0  0  0  0  0  0  0
   14.4224   17.5717   19.6223 H   0  0  0  0  0  0  0  0  0  0  0  0
   11.1021   14.9108   19.8917 H   0  0  0  0  0  0  0  0  0  0  0  0
   13.4618   13.6526   20.4823 H   0  0  0  0  0  0  0  0  0  0  0  0
   13.4079   12.6163   22.6362 H   0  0  0  0  0  0  0  0  0  0  0  0
   12.9073   13.5323   24.0686 H   0  0  0  0  0  0  0  0  0  0  0  0
   14.3843   13.9791   23.1937 H   0  0  0  0  0  0  0  0  0  0  0  0
   10.4757    9.6167   21.7828 H   0  0  0  0  0  0  0  0  0  0  0  0
    9.7401   11.0161   20.9846 H   0  0  0  0  0  0  0  0  0  0  0  0
    8.9750   13.1874   21.7205 H   0  0  0  0  0  0  0  0  0  0  0  0
    8.2367   14.0249   23.1004 H   0  0  0  0  0  0  0  0  0  0  0  0
   12.5002   15.5445   22.6424 H   0  0  0  0  0  0  0  0  0  0  0  0
   10.8447   13.7854   21.1756 H   0  0  0  0  0  0  0  0  0  0  0  0
   11.9368   11.2978   21.4275 H   0  0  0  0  0  0  0  0  0  0  0  0
  1  2  2  0  0  0  0
  1  3  1  0  0  0  0
  2  4  1  0  0  0  0
  3  5  2  0  0  0  0
  4  6  2  0  0  0  0
  5  6  1  0  0  0  0
  5 20  1  0  0  0  0
  6 21  1  0  0  0  0
  7 17  1  0  0  0  0
  7 20  2  0  0  0  0
  7 21  1  0  0  0  0
  8 18  1  0  0  0  0
  8 22  1  0  0  0  0
  8 23  2  0  0  0  0
  9 10  1  0  0  0  0
  9 13  1  0  0  0  0
 10 14  1  0  0  0  0
 11 13  1  0  0  0  0
 11 14  1  0  0  0  0
 12 13  1  0  0  0  0
 12 15  1  0  0  0  0
 14 15  1  0  0  0  0
 15 19  1  0  0  0  0
 16 19  1  0  0  0  0
 17 24  1  0  0  0  0
 18 21  1  0  0  0  0
 19 22  1  0  0  0  0
  1 25  1  0  0  0  0
  2 26  1  0  0  0  0
  3 27  1  0  0  0  0
  4 28  1  0  0  0  0
  9 29  1  0  0  0  0
  9 30  1  0  0  0  0
 10 31  1  0  0  0  0
 10 32  1  0  0  0  0
 11 33  1  0  0  0  0
 11 34  1  0  0  0  0
 12 35  1  0  0  0  0
 12 36  1  0  0  0  0
 13 37  1  0  0  0  0
 14 38  1  0  0  0  0
 15 39  1  0  0  0  0
 16 40  1  0  0  0  0
 16 41  1  0  0  0  0
 16 42  1  0  0  0  0
 17 43  1  0  0  0  0
 17 44  1  0  0  0  0
 18 45  1  0  0  0  0
 18 46  1  0  0  0  0
 19 47  1  0  0  0  0
 22 48  1  0  0  0  0
 24 49  1  0  0  0  0
M  END
> <Catalog ID>
Z25755243

> <PlateID>
1041831-R-24

> <Well>
C03

> <MW (desalted)>
327.421

> <ClogP>
2.692

> <HBD>
2

> <TPSA>
67.150

> <RotBonds>
5

> <ROCS_ShapeQuery>
A71EV2A-x0451_0A_A71EV2A-x0310_0A_A71EV2A-x0416_0A_peptide

> <ROCS_TanimotoCombo>
0.558 

> <ROCS_ShapeTanimoto>
0.351 

> <ROCS_ColorTanimoto>
0.206 

> <ROCS_RefTversky>
0.313 

> <ROCS_RefColorTversky>
0.255 

> <ROCS_RefTverskyCombo>
0.568 

> <ROCS_FitTversky>
1.547 

> <ROCS_FitColorTversky>
0.517 

> <ROCS_FitTverskyCombo>
2.064 

> <ROCS_ColorScore>
-7.867

> <ROCS_Overlap>
2172.962

> <ROCS_Rank>
53                  

$$$$
untitled-dbase-1817_2431
  -OEChem-11132311063D

 41 43  0     1  0  0  0  0  0999 V2000
    7.8438   12.8297   24.5580 C   0  0  0  0  0  0  0  0  0  0  0  0
   14.4511   15.8205   20.3885 C   0  0  0  0  0  0  0  0  0  0  0  0
    7.0011   12.8440   25.6754 C   0  0  0  0  0  0  0  0  0  0  0  0
   14.8312   16.5489   19.2667 C   0  0  0  0  0  0  0  0  0  0  0  0
    7.2540   10.4445   25.9634 C   0  0  0  0  0  0  0  0  0  0  0  0
   12.2430   15.7199   19.5107 C   0  0  0  0  0  0  0  0  0  0  0  0
    9.4739    9.8719   23.1598 C   0  0  0  0  0  0  0  0  0  0  0  0
    8.4019   11.6074   24.1337 C   0  0  0  0  0  0  0  0  0  0  0  0
   13.1342   15.3944   20.5204 C   0  0  0  0  0  0  0  0  0  0  0  0
    9.2728   11.2302   23.0733 C   0  0  0  0  0  0  0  0  0  0  0  0
    8.0947   10.4454   24.8447 C   0  0  0  0  0  0  0  0  0  0  0  0
    6.7121   11.6686   26.3658 C   0  0  0  0  0  0  0  0  0  0  0  0
   13.8641   16.8226   18.3130 C   0  0  0  0  0  0  0  0  0  0  0  0
   12.6960   14.6138   21.7061 C   0  0  0  0  0  0  0  0  0  0  0  0
   10.6540   13.8263   23.7553 C   0  0  0  0  0  0  0  0  0  0  0  0
   14.2365   17.6036   17.0970 C   0  0  0  0  0  0  0  0  0  0  0  0
    9.8602   12.1268   22.0571 C   0  0  0  0  0  0  0  0  0  0  0  0
   11.0574   12.9627   22.5692 C   0  0  1  0  0  0  0  0  0  0  0  0
   12.5751   16.4255   18.4065 N   0  0  0  0  0  0  0  0  0  0  0  0
    8.7591    9.4074   24.2311 N   0  0  0  0  0  0  0  0  0  0  0  0
   11.6143   13.7667   21.5102 N   0  0  0  0  0  0  0  0  0  0  0  0
   13.2812   14.7668   22.7750 O   0  0  0  0  0  0  0  0  0  0  0  0
   10.7485   13.4488   24.9186 O   0  0  0  0  0  0  0  0  0  0  0  0
   10.1855   15.0552   23.4310 O   0  0  0  0  0  0  0  0  0  0  0  0
    5.9018   11.7113   27.4325 F   0  0  0  0  0  0  0  0  0  0  0  0
    8.0587   13.7544   24.0301 H   0  0  0  0  0  0  0  0  0  0  0  0
   15.1881   15.5902   21.1531 H   0  0  0  0  0  0  0  0  0  0  0  0
    6.5684   13.7839   26.0075 H   0  0  0  0  0  0  0  0  0  0  0  0
   15.8555   16.8867   19.1505 H   0  0  0  0  0  0  0  0  0  0  0  0
    7.0285    9.5303   26.5018 H   0  0  0  0  0  0  0  0  0  0  0  0
   11.2015   15.4158   19.5575 H   0  0  0  0  0  0  0  0  0  0  0  0
   10.0609    9.1931   22.5567 H   0  0  0  0  0  0  0  0  0  0  0  0
   14.5666   16.9294   16.2977 H   0  0  0  0  0  0  0  0  0  0  0  0
   13.3878   18.1930   16.7278 H   0  0  0  0  0  0  0  0  0  0  0  0
   15.0465   18.3121   17.3125 H   0  0  0  0  0  0  0  0  0  0  0  0
    9.0808   12.8145   21.6711 H   0  0  0  0  0  0  0  0  0  0  0  0
   10.1825   11.5613   21.1579 H   0  0  0  0  0  0  0  0  0  0  0  0
   11.8678   12.3090   22.9117 H   0  0  0  0  0  0  0  0  0  0  0  0
    8.7243    8.4423   24.5291 H   0  0  0  0  0  0  0  0  0  0  0  0
   11.1427   13.7420   20.6100 H   0  0  0  0  0  0  0  0  0  0  0  0
   10.1557   15.2442   22.4695 H   0  0  0  0  0  0  0  0  0  0  0  0
  1  3  1  0  0  0  0
  1  8  2  0  0  0  0
  2  4  1  0  0  0  0
  2  9  2  0  0  0  0
  3 12  2  0  0  0  0
  4 13  2  0  0  0  0
  5 11  2  0  0  0  0
  5 12  1  0  0  0  0
  6  9  1  0  0  0  0
  6 19  2  0  0  0  0
  7 10  2  0  0  0  0
  7 20  1  0  0  0  0
  8 10  1  0  0  0  0
  8 11  1  0  0  0  0
  9 14  1  0  0  0  0
 10 17  1  0  0  0  0
 11 20  1  0  0  0  0
 12 25  1  0  0  0  0
 13 16  1  0  0  0  0
 13 19  1  0  0  0  0
 14 21  1  0  0  0  0
 14 22  2  0  0  0  0
 15 18  1  0  0  0  0
 15 23  2  0  0  0  0
 15 24  1  0  0  0  0
 17 18  1  0  0  0  0
 18 21  1  0  0  0  0
  1 26  1  0  0  0  0
  2 27  1  0  0  0  0
  3 28  1  0  0  0  0
  4 29  1  0  0  0  0
  5 30  1  0  0  0  0
  6 31  1  0  0  0  0
  7 32  1  0  0  0  0
 16 33  1  0  0  0  0
 16 34  1  0  0  0  0
 16 35  1  0  0  0  0
 17 36  1  0  0  0  0
 17 37  1  0  0  0  0
 18 38  1  0  0  0  0
 20 39  1  0  0  0  0
 21 40  1  0  0  0  0
 24 41  1  0  0  0  0
M  END
> <Catalog ID>
Z1603709567

> <PlateID>
1041831-R-23

> <Well>
F08

> <MW (desalted)>
341.336

> <ClogP>
2.428

> <HBD>
3

> <TPSA>
95.080

> <RotBonds>
5

> <ROCS_ShapeQuery>
A71EV2A-x0451_0A_A71EV2A-x0310_0A_A71EV2A-x0416_0A_peptide

> <ROCS_TanimotoCombo>
0.557 

> <ROCS_ShapeTanimoto>
0.365 

> <ROCS_ColorTanimoto>
0.193 

> <ROCS_RefTversky>
0.323 

> <ROCS_RefColorTversky>
0.220 

> <ROCS_RefTverskyCombo>
0.543 

> <ROCS_FitTversky>
1.550 

> <ROCS_FitColorTversky>
0.606 

> <ROCS_FitTverskyCombo>
2.156 

> <ROCS_ColorScore>
-6.738

> <ROCS_Overlap>
2245.727

> <ROCS_Rank>
54                  

$$$$
untitled-dbase-3138_1983
  -OEChem-11132311063D

 46 50  0     1  0  0  0  0  0999 V2000
   12.9648   13.6933   24.3550 C   0  0  0  0  0  0  0  0  0  0  0  0
   12.9314   14.8816   23.6254 C   0  0  0  0  0  0  0  0  0  0  0  0
   12.1286   12.6342   24.0017 C   0  0  0  0  0  0  0  0  0  0  0  0
   13.1985   15.6746   18.3980 C   0  0  0  0  0  0  0  0  0  0  0  0
   11.2254   13.9519   22.1892 C   0  0  0  0  0  0  0  0  0  0  0  0
   14.2438   16.3525   19.0534 C   0  0  0  0  0  0  0  0  0  0  0  0
   12.2146   15.5589   19.3493 C   0  0  0  0  0  0  0  0  0  0  0  0
   12.0617   15.0109   22.5425 C   0  0  0  0  0  0  0  0  0  0  0  0
   11.2589   12.7635   22.9189 C   0  0  0  0  0  0  0  0  0  0  0  0
    8.5798    8.0365   22.9792 C   0  0  0  0  0  0  0  0  0  0  0  0
    9.7855    8.9559   23.3012 C   0  0  0  0  0  0  0  0  0  0  0  0
    7.7902    9.3096   22.5826 C   0  0  0  0  0  0  0  0  0  0  0  0
    7.9193   12.7957   25.0662 C   0  0  0  0  0  0  0  0  0  0  0  0
    6.6159   12.0310   24.8649 C   0  0  0  0  0  0  0  0  0  0  0  0
    9.0192   11.8505   24.5952 C   0  0  2  0  0  0  0  0  0  0  0  0
    9.1099   11.5052   23.0776 C   0  0  2  0  0  0  0  0  0  0  0  0
    8.3621   10.4667   24.8488 C   0  0  2  0  0  0  0  0  0  0  0  0
    8.7738   10.0807   23.4382 C   0  0  0  0  0  0  0  0  0  0  0  0
   12.0258   16.2818   21.7631 C   0  0  0  0  0  0  0  0  0  0  0  0
   13.9513   16.6470   20.3229 N   0  0  0  0  0  0  0  0  0  0  0  0
   12.7109   16.1518   20.4728 N   0  0  0  0  0  0  0  0  0  0  0  0
   10.4209   11.7016   22.5645 N   0  0  0  0  0  0  0  0  0  0  0  0
    6.9542   10.6646   25.1278 O   0  0  0  0  0  0  0  0  0  0  0  0
   13.6422   13.5926   25.1982 H   0  0  0  0  0  0  0  0  0  0  0  0
   13.5866   15.7017   23.9078 H   0  0  0  0  0  0  0  0  0  0  0  0
   12.1629   11.7125   24.5770 H   0  0  0  0  0  0  0  0  0  0  0  0
   13.1637   15.3195   17.3787 H   0  0  0  0  0  0  0  0  0  0  0  0
   10.5481   14.0543   21.3445 H   0  0  0  0  0  0  0  0  0  0  0  0
   15.2059   16.6439   18.6570 H   0  0  0  0  0  0  0  0  0  0  0  0
   11.2291   15.1150   19.3212 H   0  0  0  0  0  0  0  0  0  0  0  0
    8.7374    7.3080   22.1800 H   0  0  0  0  0  0  0  0  0  0  0  0
    8.1723    7.5219   23.8572 H   0  0  0  0  0  0  0  0  0  0  0  0
   10.3552    8.6855   24.1943 H   0  0  0  0  0  0  0  0  0  0  0  0
   10.4789    9.0427   22.4573 H   0  0  0  0  0  0  0  0  0  0  0  0
    7.8514    9.5400   21.5122 H   0  0  0  0  0  0  0  0  0  0  0  0
    6.7389    9.3196   22.8808 H   0  0  0  0  0  0  0  0  0  0  0  0
    7.9245   13.7530   24.5375 H   0  0  0  0  0  0  0  0  0  0  0  0
    8.0564   12.9993   26.1351 H   0  0  0  0  0  0  0  0  0  0  0  0
    5.8301   12.3624   25.5487 H   0  0  0  0  0  0  0  0  0  0  0  0
    6.2543   12.1061   23.8345 H   0  0  0  0  0  0  0  0  0  0  0  0
    9.9803   11.9959   25.1018 H   0  0  0  0  0  0  0  0  0  0  0  0
    8.3652   12.0093   22.4530 H   0  0  0  0  0  0  0  0  0  0  0  0
    8.8289    9.8878   25.6524 H   0  0  0  0  0  0  0  0  0  0  0  0
   10.9934   16.6091   21.5608 H   0  0  0  0  0  0  0  0  0  0  0  0
   12.5014   17.1115   22.3103 H   0  0  0  0  0  0  0  0  0  0  0  0
   10.7988   11.0308   21.8883 H   0  0  0  0  0  0  0  0  0  0  0  0
  1  2  1  0  0  0  0
  1  3  2  0  0  0  0
  2  8  2  0  0  0  0
  3  9  1  0  0  0  0
  4  6  1  0  0  0  0
  4  7  2  0  0  0  0
  5  8  1  0  0  0  0
  5  9  2  0  0  0  0
  6 20  2  0  0  0  0
  7 21  1  0  0  0  0
  8 19  1  0  0  0  0
  9 22  1  0  0  0  0
 10 11  1  0  0  0  0
 10 12  1  0  0  0  0
 11 18  1  0  0  0  0
 12 18  1  0  0  0  0
 13 14  1  0  0  0  0
 13 15  1  0  0  0  0
 14 23  1  0  0  0  0
 15 16  1  0  0  0  0
 15 17  1  0  0  0  0
 16 18  1  0  0  0  0
 16 22  1  0  0  0  0
 17 18  1  0  0  0  0
 17 23  1  0  0  0  0
 19 21  1  0  0  0  0
 20 21  1  0  0  0  0
  1 24  1  0  0  0  0
  2 25  1  0  0  0  0
  3 26  1  0  0  0  0
  4 27  1  0  0  0  0
  5 28  1  0  0  0  0
  6 29  1  0  0  0  0
  7 30  1  0  0  0  0
 10 31  1  0  0  0  0
 10 32  1  0  0  0  0
 11 33  1  0  0  0  0
 11 34  1  0  0  0  0
 12 35  1  0  0  0  0
 12 36  1  0  0  0  0
 13 37  1  0  0  0  0
 13 38  1  0  0  0  0
 14 39  1  0  0  0  0
 14 40  1  0  0  0  0
 15 41  1  0  0  0  0
 16 42  1  0  0  0  0
 17 43  1  0  0  0  0
 19 44  1  0  0  0  0
 19 45  1  0  0  0  0
 22 46  1  0  0  0  0
M  END
> <Catalog ID>
Z1607291572

> <PlateID>
1041831-R-40

> <Well>
B09

> <MW (desalted)>
309.405

> <ClogP>
2.808

> <HBD>
1

> <TPSA>
39.080

> <RotBonds>
4

> <ROCS_ShapeQuery>
A71EV2A-x0451_0A_A71EV2A-x0310_0A_A71EV2A-x0416_0A_peptide

> <ROCS_TanimotoCombo>
0.557 

> <ROCS_ShapeTanimoto>
0.367 

> <ROCS_ColorTanimoto>
0.190 

> <ROCS_RefTversky>
0.322 

> <ROCS_RefColorTversky>
0.225 

> <ROCS_RefTverskyCombo>
0.546 

> <ROCS_FitTversky>
1.625 

> <ROCS_FitColorTversky>
0.552 

> <ROCS_FitTverskyCombo>
2.177 

> <ROCS_ColorScore>
-6.895

> <ROCS_Overlap>
2235.423

> <ROCS_Rank>
55                  

$$$$
untitled-dbase-1084_60
  -OEChem-11132311063D

 52 56  0     0  0  0  0  0  0999 V2000
   12.2270    7.5229   21.7994 C   0  0  0  0  0  0  0  0  0  0  0  0
   12.6376    8.7490   22.3223 C   0  0  0  0  0  0  0  0  0  0  0  0
   10.8827    7.1549   21.8573 C   0  0  0  0  0  0  0  0  0  0  0  0
   12.8975   14.7785   20.4444 C   0  0  0  0  0  0  0  0  0  0  0  0
   11.8815   14.2609   21.2402 C   0  0  0  0  0  0  0  0  0  0  0  0
   11.7040    9.6072   22.9033 C   0  0  0  0  0  0  0  0  0  0  0  0
    9.9492    8.0131   22.4383 C   0  0  0  0  0  0  0  0  0  0  0  0
   14.1229   15.0306   21.0398 C   0  0  0  0  0  0  0  0  0  0  0  0
   12.1187   14.0147   22.5879 C   0  0  0  0  0  0  0  0  0  0  0  0
    8.3710   11.8602   24.2411 C   0  0  0  0  0  0  0  0  0  0  0  0
   10.3598    9.2393   22.9613 C   0  0  0  0  0  0  0  0  0  0  0  0
    7.7085   10.6762   24.5631 C   0  0  0  0  0  0  0  0  0  0  0  0
   13.3791   14.3009   23.0873 C   0  0  0  0  0  0  0  0  0  0  0  0
    9.4946   11.4744   23.5729 C   0  0  0  0  0  0  0  0  0  0  0  0
   11.0344   13.4712   23.4236 C   0  0  0  0  0  0  0  0  0  0  0  0
    7.6504   13.0513   24.7150 C   0  0  0  0  0  0  0  0  0  0  0  0
    6.4529   10.9005   25.2974 C   0  0  0  0  0  0  0  0  0  0  0  0
    6.5850   12.4167   25.6769 C   0  0  0  0  0  0  0  0  0  0  0  0
   13.5018   12.7296   25.0334 C   0  0  0  0  0  0  0  0  0  0  0  0
   14.4335   14.9894   25.2274 C   0  0  0  0  0  0  0  0  0  0  0  0
   14.9019   12.1676   25.2555 C   0  0  0  0  0  0  0  0  0  0  0  0
   15.8037   14.3497   25.4563 C   0  0  0  0  0  0  0  0  0  0  0  0
   14.3909   14.8044   22.3454 N   0  0  0  0  0  0  0  0  0  0  0  0
    8.3269    9.5789   24.1498 N   0  0  0  0  0  0  0  0  0  0  0  0
    9.4260   10.0989   23.5429 N   0  0  0  0  0  0  0  0  0  0  0  0
   13.6230   14.0600   24.4334 N   0  0  0  0  0  0  0  0  0  0  0  0
   10.5121   12.2059   23.0228 N   0  0  0  0  0  0  0  0  0  0  0  0
   10.5988   14.1025   24.3841 O   0  0  0  0  0  0  0  0  0  0  0  0
   15.6642   13.0645   26.0724 O   0  0  0  0  0  0  0  0  0  0  0  0
   12.9531    6.8551   21.3453 H   0  0  0  0  0  0  0  0  0  0  0  0
   13.6840    9.0363   22.2762 H   0  0  0  0  0  0  0  0  0  0  0  0
   10.5635    6.2005   21.4485 H   0  0  0  0  0  0  0  0  0  0  0  0
   12.7345   14.9797   19.3918 H   0  0  0  0  0  0  0  0  0  0  0  0
   10.9100   14.0539   20.7993 H   0  0  0  0  0  0  0  0  0  0  0  0
   12.0373   10.5605   23.3065 H   0  0  0  0  0  0  0  0  0  0  0  0
    8.9044    7.7142   22.4762 H   0  0  0  0  0  0  0  0  0  0  0  0
   14.9480   15.4346   20.4624 H   0  0  0  0  0  0  0  0  0  0  0  0
    8.2925   13.7573   25.2482 H   0  0  0  0  0  0  0  0  0  0  0  0
    7.1551   13.5634   23.8839 H   0  0  0  0  0  0  0  0  0  0  0  0
    5.5870   10.7445   24.6464 H   0  0  0  0  0  0  0  0  0  0  0  0
    6.3575   10.2770   26.1902 H   0  0  0  0  0  0  0  0  0  0  0  0
    6.9514   12.4918   26.7094 H   0  0  0  0  0  0  0  0  0  0  0  0
    5.6242   12.9393   25.6319 H   0  0  0  0  0  0  0  0  0  0  0  0
   12.9318   12.0527   24.3876 H   0  0  0  0  0  0  0  0  0  0  0  0
   12.9804   12.8121   25.9947 H   0  0  0  0  0  0  0  0  0  0  0  0
   13.9439   15.1655   26.1900 H   0  0  0  0  0  0  0  0  0  0  0  0
   14.5563   15.9470   24.7159 H   0  0  0  0  0  0  0  0  0  0  0  0
   14.8393   11.2130   25.7821 H   0  0  0  0  0  0  0  0  0  0  0  0
   15.4229   11.9954   24.3095 H   0  0  0  0  0  0  0  0  0  0  0  0
   16.3631   14.2524   24.5186 H   0  0  0  0  0  0  0  0  0  0  0  0
   16.3954   14.9774   26.1295 H   0  0  0  0  0  0  0  0  0  0  0  0
   10.9697   11.7783   22.1947 H   0  0  0  0  0  0  0  0  0  0  0  0
  1  2  2  0  0  0  0
  1  3  1  0  0  0  0
  2  6  1  0  0  0  0
  3  7  2  0  0  0  0
  4  5  1  0  0  0  0
  4  8  2  0  0  0  0
  5  9  2  0  0  0  0
  6 11  2  0  0  0  0
  7 11  1  0  0  0  0
  8 23  1  0  0  0  0
  9 13  1  0  0  0  0
  9 15  1  0  0  0  0
 10 12  1  0  0  0  0
 10 14  2  0  0  0  0
 10 16  1  0  0  0  0
 11 25  1  0  0  0  0
 12 17  1  0  0  0  0
 12 24  2  0  0  0  0
 13 23  2  0  0  0  0
 13 26  1  0  0  0  0
 14 25  1  0  0  0  0
 14 27  1  0  0  0  0
 15 27  1  0  0  0  0
 15 28  2  0  0  0  0
 16 18  1  0  0  0  0
 17 18  1  0  0  0  0
 19 21  1  0  0  0  0
 19 26  1  0  0  0  0
 20 22  1  0  0  0  0
 20 26  1  0  0  0  0
 21 29  1  0  0  0  0
 22 29  1  0  0  0  0
 24 25  1  0  0  0  0
  1 30  1  0  0  0  0
  2 31  1  0  0  0  0
  3 32  1  0  0  0  0
  4 33  1  0  0  0  0
  5 34  1  0  0  0  0
  6 35  1  0  0  0  0
  7 36  1  0  0  0  0
  8 37  1  0  0  0  0
 16 38  1  0  0  0  0
 16 39  1  0  0  0  0
 17 40  1  0  0  0  0
 17 41  1  0  0  0  0
 18 42  1  0  0  0  0
 18 43  1  0  0  0  0
 19 44  1  0  0  0  0
 19 45  1  0  0  0  0
 20 46  1  0  0  0  0
 20 47  1  0  0  0  0
 21 48  1  0  0  0  0
 21 49  1  0  0  0  0
 22 50  1  0  0  0  0
 22 51  1  0  0  0  0
 27 52  1  0  0  0  0
M  END
> <Catalog ID>
Z226180692

> <PlateID>
1041831-R-14

> <Well>
E05

> <MW (desalted)>
389.450

> <ClogP>
2.653

> <HBD>
1

> <TPSA>
72.280

> <RotBonds>
4

> <ROCS_ShapeQuery>
A71EV2A-x0451_0A_A71EV2A-x0310_0A_A71EV2A-x0416_0A_peptide

> <ROCS_TanimotoCombo>
0.557 

> <ROCS_ShapeTanimoto>
0.361 

> <ROCS_ColorTanimoto>
0.196 

> <ROCS_RefTversky>
0.328 

> <ROCS_RefColorTversky>
0.223 

> <ROCS_RefTverskyCombo>
0.552 

> <ROCS_FitTversky>
1.381 

> <ROCS_FitColorTversky>
0.614 

> <ROCS_FitTverskyCombo>
1.995 

> <ROCS_ColorScore>
-6.844

> <ROCS_Overlap>
2286.199

> <ROCS_Rank>
56                  

$$$$
untitled-dbase-273_265
  -OEChem-11132311063D

 44 46  0     0  0  0  0  0  0999 V2000
    9.8044    8.1972   22.6287 C   0  0  0  0  0  0  0  0  0  0  0  0
    8.5651    7.7715   23.0905 C   0  0  0  0  0  0  0  0  0  0  0  0
   10.2134    9.5063   22.8660 C   0  0  0  0  0  0  0  0  0  0  0  0
    7.7381    8.6554   23.7882 C   0  0  0  0  0  0  0  0  0  0  0  0
    8.9239   12.5711   24.5166 C   0  0  0  0  0  0  0  0  0  0  0  0
   13.1260   15.8973   21.0909 C   0  0  0  0  0  0  0  0  0  0  0  0
    9.3814   10.3950   23.5678 C   0  0  0  0  0  0  0  0  0  0  0  0
    9.7682   11.7181   23.8206 C   0  0  0  0  0  0  0  0  0  0  0  0
    8.1219    9.9697   24.0398 C   0  0  0  0  0  0  0  0  0  0  0  0
   11.9946   15.5514   20.3820 C   0  0  0  0  0  0  0  0  0  0  0  0
    7.7114   12.0647   24.9386 C   0  0  0  0  0  0  0  0  0  0  0  0
   13.3443   15.9153   18.6921 C   0  0  0  0  0  0  0  0  0  0  0  0
   10.7827   14.5070   22.3359 C   0  0  0  0  0  0  0  0  0  0  0  0
   13.8513   16.0379   17.3080 C   0  0  0  0  0  0  0  0  0  0  0  0
    7.2564   14.3044   25.9065 C   0  0  0  0  0  0  0  0  0  0  0  0
    5.5613   12.4783   26.1075 C   0  0  0  0  0  0  0  0  0  0  0  0
   11.0836   12.2652   23.3623 C   0  0  0  0  0  0  0  0  0  0  0  0
   10.6648   15.1726   20.9782 C   0  0  0  0  0  0  0  0  0  0  0  0
    7.3004   10.7953   24.7154 N   0  0  0  0  0  0  0  0  0  0  0  0
   12.1178   15.5616   19.0063 N   0  0  0  0  0  0  0  0  0  0  0  0
   10.9435   13.1307   22.2213 N   0  0  0  0  0  0  0  0  0  0  0  0
    6.8527   12.9400   25.6486 N   0  0  0  0  0  0  0  0  0  0  0  0
   10.7433   15.1223   23.3983 O   0  0  0  0  0  0  0  0  0  0  0  0
   14.4025   16.2496   20.0011 S   0  0  0  0  0  0  0  0  0  0  0  0
   10.4508    7.5137   22.0866 H   0  0  0  0  0  0  0  0  0  0  0  0
    8.2368    6.7520   22.9102 H   0  0  0  0  0  0  0  0  0  0  0  0
   11.1879    9.8135   22.4942 H   0  0  0  0  0  0  0  0  0  0  0  0
    6.7716    8.2980   24.1392 H   0  0  0  0  0  0  0  0  0  0  0  0
    9.2107   13.5983   24.7200 H   0  0  0  0  0  0  0  0  0  0  0  0
   13.2630   15.9581   22.1614 H   0  0  0  0  0  0  0  0  0  0  0  0
   13.6972   17.0571   16.9205 H   0  0  0  0  0  0  0  0  0  0  0  0
   14.9281   15.8113   17.2434 H   0  0  0  0  0  0  0  0  0  0  0  0
   13.3481   15.3362   16.6227 H   0  0  0  0  0  0  0  0  0  0  0  0
    6.4634   14.8226   26.4655 H   0  0  0  0  0  0  0  0  0  0  0  0
    8.1836   14.3066   26.4984 H   0  0  0  0  0  0  0  0  0  0  0  0
    7.4299   14.8220   24.9515 H   0  0  0  0  0  0  0  0  0  0  0  0
    5.0452   13.2948   26.6337 H   0  0  0  0  0  0  0  0  0  0  0  0
    4.9583   12.1593   25.2446 H   0  0  0  0  0  0  0  0  0  0  0  0
    5.6982   11.6291   26.7932 H   0  0  0  0  0  0  0  0  0  0  0  0
   11.5670   12.8416   24.1610 H   0  0  0  0  0  0  0  0  0  0  0  0
   11.7743   11.4598   23.0843 H   0  0  0  0  0  0  0  0  0  0  0  0
   10.0376   16.0677   21.0764 H   0  0  0  0  0  0  0  0  0  0  0  0
   10.1346   14.4926   20.2995 H   0  0  0  0  0  0  0  0  0  0  0  0
   10.9629   12.7178   21.2907 H   0  0  0  0  0  0  0  0  0  0  0  0
  1  2  2  0  0  0  0
  1  3  1  0  0  0  0
  2  4  1  0  0  0  0
  3  7  2  0  0  0  0
  4  9  2  0  0  0  0
  5  8  2  0  0  0  0
  5 11  1  0  0  0  0
  6 10  2  0  0  0  0
  6 24  1  0  0  0  0
  7  8  1  0  0  0  0
  7  9  1  0  0  0  0
  8 17  1  0  0  0  0
  9 19  1  0  0  0  0
 10 18  1  0  0  0  0
 10 20  1  0  0  0  0
 11 19  2  0  0  0  0
 11 22  1  0  0  0  0
 12 14  1  0  0  0  0
 12 20  2  0  0  0  0
 12 24  1  0  0  0  0
 13 18  1  0  0  0  0
 13 21  1  0  0  0  0
 13 23  2  0  0  0  0
 15 22  1  0  0  0  0
 16 22  1  0  0  0  0
 17 21  1  0  0  0  0
  1 25  1  0  0  0  0
  2 26  1  0  0  0  0
  3 27  1  0  0  0  0
  4 28  1  0  0  0  0
  5 29  1  0  0  0  0
  6 30  1  0  0  0  0
 14 31  1  0  0  0  0
 14 32  1  0  0  0  0
 14 33  1  0  0  0  0
 15 34  1  0  0  0  0
 15 35  1  0  0  0  0
 15 36  1  0  0  0  0
 16 37  1  0  0  0  0
 16 38  1  0  0  0  0
 16 39  1  0  0  0  0
 17 40  1  0  0  0  0
 17 41  1  0  0  0  0
 18 42  1  0  0  0  0
 18 43  1  0  0  0  0
 21 44  1  0  0  0  0
M  END
> <Catalog ID>
Z1286782358

> <PlateID>
1041831-R-04

> <Well>
D04

> <MW (desalted)>
340.443

> <ClogP>
2.162

> <HBD>
1

> <TPSA>
58.120

> <RotBonds>
5

> <ROCS_ShapeQuery>
A71EV2A-x0451_0A_A71EV2A-x0310_0A_A71EV2A-x0416_0A_peptide

> <ROCS_TanimotoCombo>
0.557 

> <ROCS_ShapeTanimoto>
0.389 

> <ROCS_ColorTanimoto>
0.168 

> <ROCS_RefTversky>
0.335 

> <ROCS_RefColorTversky>
0.183 

> <ROCS_RefTverskyCombo>
0.518 

> <ROCS_FitTversky>
1.688 

> <ROCS_FitColorTversky>
0.677 

> <ROCS_FitTverskyCombo>
2.365 

> <ROCS_ColorScore>
-5.578

> <ROCS_Overlap>
2331.052

> <ROCS_Rank>
57                  

$$$$
untitled-dbase-1152_625
  -OEChem-11132311063D

 47 50  0     0  0  0  0  0  0999 V2000
    8.3015    5.8894   22.8144 C   0  0  0  0  0  0  0  0  0  0  0  0
    7.2994    6.5400   23.5343 C   0  0  0  0  0  0  0  0  0  0  0  0
    9.4321    6.5937   22.4004 C   0  0  0  0  0  0  0  0  0  0  0  0
    7.4279    7.8948   23.8401 C   0  0  0  0  0  0  0  0  0  0  0  0
    9.5606    7.9486   22.7062 C   0  0  0  0  0  0  0  0  0  0  0  0
    8.3273   11.9724   24.4834 C   0  0  0  0  0  0  0  0  0  0  0  0
    8.5585    8.5991   23.4260 C   0  0  0  0  0  0  0  0  0  0  0  0
    9.5415   11.8992   23.8078 C   0  0  0  0  0  0  0  0  0  0  0  0
    7.8113   10.7148   24.4144 C   0  0  0  0  0  0  0  0  0  0  0  0
   10.5300   12.9828   23.5718 C   0  0  0  0  0  0  0  0  0  0  0  0
   11.6217   14.9128   21.2377 C   0  0  0  0  0  0  0  0  0  0  0  0
    7.4362   12.8857   25.2136 C   0  0  0  0  0  0  0  0  0  0  0  0
    6.5104   10.5262   25.0655 C   0  0  0  0  0  0  0  0  0  0  0  0
    6.4028   11.8830   25.8505 C   0  0  0  0  0  0  0  0  0  0  0  0
   13.0032   16.9250   18.4875 C   0  0  0  0  0  0  0  0  0  0  0  0
   14.2547   16.2074   18.9775 C   0  0  0  0  0  0  0  0  0  0  0  0
   11.8800   16.0692   19.0522 C   0  0  0  0  0  0  0  0  0  0  0  0
   13.8604   15.7494   20.3746 C   0  0  0  0  0  0  0  0  0  0  0  0
   12.2954   13.8379   22.0525 C   0  0  0  0  0  0  0  0  0  0  0  0
    9.7752   10.6590   23.3396 N   0  0  0  0  0  0  0  0  0  0  0  0
    8.6859    9.9501   23.7315 N   0  0  0  0  0  0  0  0  0  0  0  0
   12.4192   15.5332   20.2934 N   0  0  0  0  0  0  0  0  0  0  0  0
   11.2872   12.8853   22.4063 N   0  0  0  0  0  0  0  0  0  0  0  0
   10.6464   13.8802   24.4023 O   0  0  0  0  0  0  0  0  0  0  0  0
   10.4357   15.1878   21.4264 O   0  0  0  0  0  0  0  0  0  0  0  0
    8.2028    4.8342   22.5776 H   0  0  0  0  0  0  0  0  0  0  0  0
    6.4196    5.9915   23.8579 H   0  0  0  0  0  0  0  0  0  0  0  0
   10.2127    6.0860   21.8411 H   0  0  0  0  0  0  0  0  0  0  0  0
    6.6398    8.3897   24.4025 H   0  0  0  0  0  0  0  0  0  0  0  0
   10.4474    8.4854   22.3780 H   0  0  0  0  0  0  0  0  0  0  0  0
    7.9512   13.4619   25.9867 H   0  0  0  0  0  0  0  0  0  0  0  0
    6.9272   13.5684   24.5256 H   0  0  0  0  0  0  0  0  0  0  0  0
    5.7054   10.4452   24.3291 H   0  0  0  0  0  0  0  0  0  0  0  0
    6.4797    9.6727   25.7470 H   0  0  0  0  0  0  0  0  0  0  0  0
    6.6776   11.7098   26.8995 H   0  0  0  0  0  0  0  0  0  0  0  0
    5.3840   12.2834   25.8418 H   0  0  0  0  0  0  0  0  0  0  0  0
   12.9585   17.9367   18.9076 H   0  0  0  0  0  0  0  0  0  0  0  0
   12.9659   16.9991   17.3971 H   0  0  0  0  0  0  0  0  0  0  0  0
   14.4673   15.3411   18.3401 H   0  0  0  0  0  0  0  0  0  0  0  0
   15.1329   16.8590   18.9832 H   0  0  0  0  0  0  0  0  0  0  0  0
   10.9604   16.6324   19.2366 H   0  0  0  0  0  0  0  0  0  0  0  0
   11.6501   15.2222   18.3963 H   0  0  0  0  0  0  0  0  0  0  0  0
   14.3802   14.8378   20.6815 H   0  0  0  0  0  0  0  0  0  0  0  0
   14.0401   16.5332   21.1183 H   0  0  0  0  0  0  0  0  0  0  0  0
   12.7264   14.3013   22.9350 H   0  0  0  0  0  0  0  0  0  0  0  0
   13.0694   13.3835   21.4408 H   0  0  0  0  0  0  0  0  0  0  0  0
   11.1692   12.0712   21.8014 H   0  0  0  0  0  0  0  0  0  0  0  0
  1  2  2  0  0  0  0
  1  3  1  0  0  0  0
  2  4  1  0  0  0  0
  3  5  2  0  0  0  0
  4  7  2  0  0  0  0
  5  7  1  0  0  0  0
  6  8  1  0  0  0  0
  6  9  2  0  0  0  0
  6 12  1  0  0  0  0
  7 21  1  0  0  0  0
  8 10  1  0  0  0  0
  8 20  2  0  0  0  0
  9 13  1  0  0  0  0
  9 21  1  0  0  0  0
 10 23  1  0  0  0  0
 10 24  2  0  0  0  0
 11 19  1  0  0  0  0
 11 22  1  0  0  0  0
 11 25  2  0  0  0  0
 12 14  1  0  0  0  0
 13 14  1  0  0  0  0
 15 16  1  0  0  0  0
 15 17  1  0  0  0  0
 16 18  1  0  0  0  0
 17 22  1  0  0  0  0
 18 22  1  0  0  0  0
 19 23  1  0  0  0  0
 20 21  1  0  0  0  0
  1 26  1  0  0  0  0
  2 27  1  0  0  0  0
  3 28  1  0  0  0  0
  4 29  1  0  0  0  0
  5 30  1  0  0  0  0
 12 31  1  0  0  0  0
 12 32  1  0  0  0  0
 13 33  1  0  0  0  0
 13 34  1  0  0  0  0
 14 35  1  0  0  0  0
 14 36  1  0  0  0  0
 15 37  1  0  0  0  0
 15 38  1  0  0  0  0
 16 39  1  0  0  0  0
 16 40  1  0  0  0  0
 17 41  1  0  0  0  0
 17 42  1  0  0  0  0
 18 43  1  0  0  0  0
 18 44  1  0  0  0  0
 19 45  1  0  0  0  0
 19 46  1  0  0  0  0
 23 47  1  0  0  0  0
M  END
> <Catalog ID>
Z228331754

> <PlateID>
1041831-R-15

> <Well>
D03

> <MW (desalted)>
338.404

> <ClogP>
1.823

> <HBD>
1

> <TPSA>
67.230

> <RotBonds>
4

> <ROCS_ShapeQuery>
A71EV2A-x0451_0A_A71EV2A-x0310_0A_A71EV2A-x0416_0A_peptide

> <ROCS_TanimotoCombo>
0.557 

> <ROCS_ShapeTanimoto>
0.377 

> <ROCS_ColorTanimoto>
0.180 

> <ROCS_RefTversky>
0.331 

> <ROCS_RefColorTversky>
0.199 

> <ROCS_RefTverskyCombo>
0.530 

> <ROCS_FitTversky>
1.578 

> <ROCS_FitColorTversky>
0.657 

> <ROCS_FitTverskyCombo>
2.236 

> <ROCS_ColorScore>
-6.067

> <ROCS_Overlap>
2300.974

> <ROCS_Rank>
58                  

$$$$
untitled-dbase-2642_2339
  -OEChem-11132311063D

 54 56  0     0  0  0  0  0  0999 V2000
   15.1297   12.7945   22.5307 C   0  0  0  0  0  0  0  0  0  0  0  0
   14.1742   13.3796   21.6660 C   0  0  0  0  0  0  0  0  0  0  0  0
   10.2123   10.9607   23.2039 C   0  0  0  0  0  0  0  0  0  0  0  0
    8.4613   12.0545   24.4009 C   0  0  0  0  0  0  0  0  0  0  0  0
    9.7076   12.1329   23.7670 C   0  0  0  0  0  0  0  0  0  0  0  0
    9.4639    9.7921   23.2992 C   0  0  0  0  0  0  0  0  0  0  0  0
    7.5783   12.9148   25.0832 C   0  0  0  0  0  0  0  0  0  0  0  0
   14.6937   13.0493   23.8101 C   0  0  0  0  0  0  0  0  0  0  0  0
   13.2223   13.9501   22.4786 C   0  0  0  0  0  0  0  0  0  0  0  0
    7.8207   10.8255   24.4243 C   0  0  0  0  0  0  0  0  0  0  0  0
   10.4544   13.3747   23.6914 C   0  0  0  0  0  0  0  0  0  0  0  0
   10.0187    8.5431   22.6917 C   0  0  0  0  0  0  0  0  0  0  0  0
    7.7446   14.3529   25.3598 C   0  0  0  0  0  0  0  0  0  0  0  0
   15.2262   12.7174   25.1392 C   0  0  0  0  0  0  0  0  0  0  0  0
    5.6330   10.0381   25.3723 C   0  0  0  0  0  0  0  0  0  0  0  0
    8.4748   17.1198   21.2736 C   0  0  0  0  0  0  0  0  0  0  0  0
    9.9185   16.2640   19.5545 C   0  0  0  0  0  0  0  0  0  0  0  0
   11.9609   14.7159   22.2016 C   0  0  0  0  0  0  0  0  0  0  0  0
    9.9282   13.6818   21.2542 C   0  0  0  0  0  0  0  0  0  0  0  0
    8.8643   14.7555   21.0991 C   0  0  0  0  0  0  0  0  0  0  0  0
    8.2563    9.6662   23.9009 N   0  0  0  0  0  0  0  0  0  0  0  0
    6.4722   12.2934   25.5055 N   0  0  0  0  0  0  0  0  0  0  0  0
    6.6480   11.0257   25.0907 N   0  0  0  0  0  0  0  0  0  0  0  0
   10.7715   13.9066   22.4263 N   0  0  0  0  0  0  0  0  0  0  0  0
    9.4389   16.0628   20.9306 N   0  0  0  0  0  0  0  0  0  0  0  0
   10.7651   13.9132   24.7640 O   0  0  0  0  0  0  0  0  0  0  0  0
   13.5316   13.7532   23.7871 O   0  0  0  0  0  0  0  0  0  0  0  0
   16.0239   12.2548   22.2535 H   0  0  0  0  0  0  0  0  0  0  0  0
   14.1814   13.3831   20.5854 H   0  0  0  0  0  0  0  0  0  0  0  0
   11.1748   10.9615   22.6998 H   0  0  0  0  0  0  0  0  0  0  0  0
   10.6242    8.0021   23.4269 H   0  0  0  0  0  0  0  0  0  0  0  0
    9.2153    7.8832   22.3442 H   0  0  0  0  0  0  0  0  0  0  0  0
   10.6447    8.7725   21.8213 H   0  0  0  0  0  0  0  0  0  0  0  0
    7.3226   14.9675   24.5468 H   0  0  0  0  0  0  0  0  0  0  0  0
    7.2486   14.6561   26.2986 H   0  0  0  0  0  0  0  0  0  0  0  0
    8.8064   14.6345   25.4738 H   0  0  0  0  0  0  0  0  0  0  0  0
   15.9050   13.5058   25.5105 H   0  0  0  0  0  0  0  0  0  0  0  0
   14.4266   12.5893   25.8921 H   0  0  0  0  0  0  0  0  0  0  0  0
   15.7925   11.7675   25.1396 H   0  0  0  0  0  0  0  0  0  0  0  0
    5.8673    9.5790   26.3363 H   0  0  0  0  0  0  0  0  0  0  0  0
    4.6533   10.5226   25.4076 H   0  0  0  0  0  0  0  0  0  0  0  0
    5.6317    9.2850   24.5793 H   0  0  0  0  0  0  0  0  0  0  0  0
    8.1159   16.9697   22.3026 H   0  0  0  0  0  0  0  0  0  0  0  0
    8.9644   18.1018   21.1958 H   0  0  0  0  0  0  0  0  0  0  0  0
    7.6231   17.0787   20.5787 H   0  0  0  0  0  0  0  0  0  0  0  0
   10.6394   15.4738   19.2976 H   0  0  0  0  0  0  0  0  0  0  0  0
    9.0667   16.2229   18.8597 H   0  0  0  0  0  0  0  0  0  0  0  0
   10.4080   17.2460   19.4768 H   0  0  0  0  0  0  0  0  0  0  0  0
   11.8953   15.5984   22.8474 H   0  0  0  0  0  0  0  0  0  0  0  0
   11.9350   15.0687   21.1652 H   0  0  0  0  0  0  0  0  0  0  0  0
   10.5864   13.6425   20.3805 H   0  0  0  0  0  0  0  0  0  0  0  0
    9.4577   12.7018   21.3804 H   0  0  0  0  0  0  0  0  0  0  0  0
    8.2522   14.5571   20.2139 H   0  0  0  0  0  0  0  0  0  0  0  0
    8.2072   14.7951   21.9737 H   0  0  0  0  0  0  0  0  0  0  0  0
  1  2  1  0  0  0  0
  1  8  2  0  0  0  0
  2  9  2  0  0  0  0
  3  5  1  0  0  0  0
  3  6  2  0  0  0  0
  4  5  2  0  0  0  0
  4  7  1  0  0  0  0
  4 10  1  0  0  0  0
  5 11  1  0  0  0  0
  6 12  1  0  0  0  0
  6 21  1  0  0  0  0
  7 13  1  0  0  0  0
  7 22  2  0  0  0  0
  8 14  1  0  0  0  0
  8 27  1  0  0  0  0
  9 18  1  0  0  0  0
  9 27  1  0  0  0  0
 10 21  2  0  0  0  0
 10 23  1  0  0  0  0
 11 24  1  0  0  0  0
 11 26  2  0  0  0  0
 15 23  1  0  0  0  0
 16 25  1  0  0  0  0
 17 25  1  0  0  0  0
 18 24  1  0  0  0  0
 19 20  1  0  0  0  0
 19 24  1  0  0  0  0
 20 25  1  0  0  0  0
 22 23  1  0  0  0  0
  1 28  1  0  0  0  0
  2 29  1  0  0  0  0
  3 30  1  0  0  0  0
 12 31  1  0  0  0  0
 12 32  1  0  0  0  0
 12 33  1  0  0  0  0
 13 34  1  0  0  0  0
 13 35  1  0  0  0  0
 13 36  1  0  0  0  0
 14 37  1  0  0  0  0
 14 38  1  0  0  0  0
 14 39  1  0  0  0  0
 15 40  1  0  0  0  0
 15 41  1  0  0  0  0
 15 42  1  0  0  0  0
 16 43  1  0  0  0  0
 16 44  1  0  0  0  0
 16 45  1  0  0  0  0
 17 46  1  0  0  0  0
 17 47  1  0  0  0  0
 17 48  1  0  0  0  0
 18 49  1  0  0  0  0
 18 50  1  0  0  0  0
 19 51  1  0  0  0  0
 19 52  1  0  0  0  0
 20 53  1  0  0  0  0
 20 54  1  0  0  0  0
M  END
> <Catalog ID>
Z915680604

> <PlateID>
1041831-R-34

> <Well>
A03

> <MW (desalted)>
369.461

> <ClogP>
2.464

> <HBD>
0

> <TPSA>
67.400

> <RotBonds>
6

> <ROCS_ShapeQuery>
A71EV2A-x0451_0A_A71EV2A-x0310_0A_A71EV2A-x0416_0A_peptide

> <ROCS_TanimotoCombo>
0.557 

> <ROCS_ShapeTanimoto>
0.364 

> <ROCS_ColorTanimoto>
0.193 

> <ROCS_RefTversky>
0.325 

> <ROCS_RefColorTversky>
0.210 

> <ROCS_RefTverskyCombo>
0.536 

> <ROCS_FitTversky>
1.480 

> <ROCS_FitColorTversky>
0.698 

> <ROCS_FitTverskyCombo>
2.178 

> <ROCS_ColorScore>
-6.422

> <ROCS_Overlap>
2264.071

> <ROCS_Rank>
59                  

$$$$
untitled-dbase-1840_13
  -OEChem-11132311063D

 44 48  0     1  0  0  0  0  0999 V2000
   13.8205   15.7239   18.8784 C   0  0  0  0  0  0  0  0  0  0  0  0
   13.1695   15.0248   19.8947 C   0  0  0  0  0  0  0  0  0  0  0  0
   13.8381   17.1187   18.8919 C   0  0  0  0  0  0  0  0  0  0  0  0
   12.5533   17.1151   20.9380 C   0  0  0  0  0  0  0  0  0  0  0  0
   12.5358   15.7203   20.9245 C   0  0  0  0  0  0  0  0  0  0  0  0
   13.2045   17.8142   19.9217 C   0  0  0  0  0  0  0  0  0  0  0  0
   11.8668   15.0017   21.9699 C   0  0  0  0  0  0  0  0  0  0  0  0
   11.1946   13.2883   22.9840 C   0  0  0  0  0  0  0  0  0  0  0  0
    6.7483   10.9108   26.2002 C   0  0  0  0  0  0  0  0  0  0  0  0
    7.0715   12.4005   25.9641 C   0  0  0  0  0  0  0  0  0  0  0  0
    6.7546   11.3369   23.8639 C   0  0  0  0  0  0  0  0  0  0  0  0
    9.4750    9.9875   23.5133 C   0  0  0  0  0  0  0  0  0  0  0  0
    7.1616   10.2589   24.8657 C   0  0  1  0  0  0  0  0  0  0  0  0
    7.6293   12.4027   24.5262 C   0  0  2  0  0  0  0  0  0  0  0  0
    8.7037   10.2684   24.8184 C   0  0  2  0  0  0  0  0  0  0  0  0
    9.0301   11.7563   24.5909 C   0  0  1  0  0  0  0  0  0  0  0  0
   13.9057   19.8257   18.8644 C   0  0  0  0  0  0  0  0  0  0  0  0
   11.0163   11.8178   23.2287 C   0  0  0  0  0  0  0  0  0  0  0  0
   11.2147   15.4391   23.0216 N   0  0  0  0  0  0  0  0  0  0  0  0
   10.7726   14.3120   23.6888 N   0  0  0  0  0  0  0  0  0  0  0  0
    9.6067   11.4377   23.2713 N   0  0  1  0  0  0  0  0  0  0  0  0
   11.8989   13.6442   21.8749 O   0  0  0  0  0  0  0  0  0  0  0  0
   13.2218   19.1750   19.9343 O   0  0  0  0  0  0  0  0  0  0  0  0
   14.3140   15.1829   18.0764 H   0  0  0  0  0  0  0  0  0  0  0  0
   13.1641   13.9377   19.8704 H   0  0  0  0  0  0  0  0  0  0  0  0
   14.3468   17.6577   18.0972 H   0  0  0  0  0  0  0  0  0  0  0  0
   12.0616   17.6673   21.7364 H   0  0  0  0  0  0  0  0  0  0  0  0
    7.2975   10.5081   27.0572 H   0  0  0  0  0  0  0  0  0  0  0  0
    5.6757   10.7832   26.3837 H   0  0  0  0  0  0  0  0  0  0  0  0
    6.1561   12.9991   26.0306 H   0  0  0  0  0  0  0  0  0  0  0  0
    7.7892   12.7807   26.6980 H   0  0  0  0  0  0  0  0  0  0  0  0
    7.0377   11.1084   22.8327 H   0  0  0  0  0  0  0  0  0  0  0  0
    5.6857   11.5752   23.8948 H   0  0  0  0  0  0  0  0  0  0  0  0
   10.4116    9.4374   23.6678 H   0  0  0  0  0  0  0  0  0  0  0  0
    8.9011    9.4573   22.7457 H   0  0  0  0  0  0  0  0  0  0  0  0
    6.7263    9.2717   24.6994 H   0  0  0  0  0  0  0  0  0  0  0  0
    7.6183   13.3861   24.0512 H   0  0  0  0  0  0  0  0  0  0  0  0
    9.1729    9.8108   25.6972 H   0  0  0  0  0  0  0  0  0  0  0  0
    9.7108   12.2103   25.3211 H   0  0  0  0  0  0  0  0  0  0  0  0
   13.8431   20.9087   18.9961 H   0  0  0  0  0  0  0  0  0  0  0  0
   13.4531   19.5370   17.9124 H   0  0  0  0  0  0  0  0  0  0  0  0
   14.9545   19.5197   18.8746 H   0  0  0  0  0  0  0  0  0  0  0  0
   11.4995   11.2334   22.4381 H   0  0  0  0  0  0  0  0  0  0  0  0
   11.4723   11.5194   24.1786 H   0  0  0  0  0  0  0  0  0  0  0  0
  1  2  2  0  0  0  0
  1  3  1  0  0  0  0
  2  5  1  0  0  0  0
  3  6  2  0  0  0  0
  4  5  2  0  0  0  0
  4  6  1  0  0  0  0
  5  7  1  0  0  0  0
  6 23  1  0  0  0  0
  7 19  2  0  0  0  0
  7 22  1  0  0  0  0
  8 18  1  0  0  0  0
  8 20  2  0  0  0  0
  8 22  1  0  0  0  0
  9 10  1  0  0  0  0
  9 13  1  0  0  0  0
 10 14  1  0  0  0  0
 11 13  1  0  0  0  0
 11 14  1  0  0  0  0
 12 15  1  0  0  0  0
 12 21  1  0  0  0  0
 13 15  1  0  0  0  0
 14 16  1  0  0  0  0
 15 16  1  0  0  0  0
 16 21  1  0  0  0  0
 17 23  1  0  0  0  0
 18 21  1  0  0  0  0
 19 20  1  0  0  0  0
  1 24  1  0  0  0  0
  2 25  1  0  0  0  0
  3 26  1  0  0  0  0
  4 27  1  0  0  0  0
  9 28  1  0  0  0  0
  9 29  1  0  0  0  0
 10 30  1  0  0  0  0
 10 31  1  0  0  0  0
 11 32  1  0  0  0  0
 11 33  1  0  0  0  0
 12 34  1  0  0  0  0
 12 35  1  0  0  0  0
 13 36  1  0  0  0  0
 14 37  1  0  0  0  0
 15 38  1  0  0  0  0
 16 39  1  0  0  0  0
 17 40  1  0  0  0  0
 17 41  1  0  0  0  0
 17 42  1  0  0  0  0
 18 43  1  0  0  0  0
 18 44  1  0  0  0  0
M  END
> <Catalog ID>
Z1317901773

> <PlateID>
1041831-R-23

> <Well>
H11

> <MW (desalted)>
311.378

> <ClogP>
2.380

> <HBD>
0

> <TPSA>
51.390

> <RotBonds>
4

> <ROCS_ShapeQuery>
A71EV2A-x0451_0A_A71EV2A-x0310_0A_A71EV2A-x0416_0A_peptide

> <ROCS_TanimotoCombo>
0.557 

> <ROCS_ShapeTanimoto>
0.333 

> <ROCS_ColorTanimoto>
0.223 

> <ROCS_RefTversky>
0.300 

> <ROCS_RefColorTversky>
0.292 

> <ROCS_RefTverskyCombo>
0.592 

> <ROCS_FitTversky>
1.500 

> <ROCS_FitColorTversky>
0.487 

> <ROCS_FitTverskyCombo>
1.987 

> <ROCS_ColorScore>
-9.047

> <ROCS_Overlap>
2085.187

> <ROCS_Rank>
60                  

$$$$
untitled-dbase-1333_899
  -OEChem-11132311063D

 46 49  0     1  0  0  0  0  0999 V2000
    6.5688   12.6952   26.2337 C   0  0  0  0  0  0  0  0  0  0  0  0
    7.0181   11.5950   26.9946 C   0  0  0  0  0  0  0  0  0  0  0  0
    7.0528   12.9271   24.9432 C   0  0  0  0  0  0  0  0  0  0  0  0
    7.9622   10.7002   26.4833 C   0  0  0  0  0  0  0  0  0  0  0  0
    7.9874   12.0423   24.4559 C   0  0  0  0  0  0  0  0  0  0  0  0
    8.4353   10.9454   25.2145 C   0  0  0  0  0  0  0  0  0  0  0  0
   10.8982   13.5205   23.5029 C   0  0  0  0  0  0  0  0  0  0  0  0
   13.7630   16.4001   20.4044 C   0  0  0  0  0  0  0  0  0  0  0  0
    8.0931   10.7471   22.3806 C   0  0  0  0  0  0  0  0  0  0  0  0
    8.5890    9.5323   23.2208 C   0  0  0  0  0  0  0  0  0  0  0  0
   13.6820   14.9243   20.7056 C   0  0  0  0  0  0  0  0  0  0  0  0
   12.9757   16.4983   19.1175 C   0  0  0  0  0  0  0  0  0  0  0  0
    8.7092   11.9457   23.1332 C   0  0  2  0  0  0  0  0  0  0  0  0
    9.4170   10.2124   24.3319 C   0  0  1  0  0  0  0  0  0  0  0  0
   12.2870   14.5584   20.2210 C   0  0  1  0  0  0  0  0  0  0  0  0
   12.3678   11.5709   24.0748 C   0  0  0  0  0  0  0  0  0  0  0  0
   11.2342   14.6534   21.3166 C   0  0  0  0  0  0  0  0  0  0  0  0
   10.9612   12.1439   24.1514 C   0  0  2  0  0  0  0  0  0  0  0  0
   10.0000   11.2825   23.4735 N   0  0  0  0  0  0  0  0  0  0  0  0
   11.2550   13.4827   22.1622 N   0  0  0  0  0  0  0  0  0  0  0  0
   10.5341   14.5291   24.1040 O   0  0  0  0  0  0  0  0  0  0  0  0
   11.9492   15.4995   19.1868 O   0  0  0  0  0  0  0  0  0  0  0  0
    5.8309   13.3699   26.6603 H   0  0  0  0  0  0  0  0  0  0  0  0
    6.6183   11.4417   27.9939 H   0  0  0  0  0  0  0  0  0  0  0  0
    6.7025   13.7672   24.3557 H   0  0  0  0  0  0  0  0  0  0  0  0
    8.3015    9.8510   27.0641 H   0  0  0  0  0  0  0  0  0  0  0  0
   13.3637   17.0342   21.2001 H   0  0  0  0  0  0  0  0  0  0  0  0
   14.8066   16.6867   20.2288 H   0  0  0  0  0  0  0  0  0  0  0  0
    8.4803   10.6744   21.3571 H   0  0  0  0  0  0  0  0  0  0  0  0
    6.9988   10.7830   22.3376 H   0  0  0  0  0  0  0  0  0  0  0  0
    7.7486    8.9465   23.6094 H   0  0  0  0  0  0  0  0  0  0  0  0
    9.2121    8.8786   22.5986 H   0  0  0  0  0  0  0  0  0  0  0  0
   14.4691   14.3366   20.2137 H   0  0  0  0  0  0  0  0  0  0  0  0
   13.7761   14.7645   21.7911 H   0  0  0  0  0  0  0  0  0  0  0  0
   12.4862   17.4728   19.0256 H   0  0  0  0  0  0  0  0  0  0  0  0
   13.5943   16.3314   18.2324 H   0  0  0  0  0  0  0  0  0  0  0  0
    8.7857   12.8709   22.5580 H   0  0  0  0  0  0  0  0  0  0  0  0
   10.1345    9.5670   24.8429 H   0  0  0  0  0  0  0  0  0  0  0  0
   12.2669   13.5644   19.7894 H   0  0  0  0  0  0  0  0  0  0  0  0
   12.7077   11.4907   23.0358 H   0  0  0  0  0  0  0  0  0  0  0  0
   13.0839   12.2043   24.6087 H   0  0  0  0  0  0  0  0  0  0  0  0
   12.4049   10.5686   24.5149 H   0  0  0  0  0  0  0  0  0  0  0  0
   11.4346   15.5436   21.9309 H   0  0  0  0  0  0  0  0  0  0  0  0
   10.2407   14.7439   20.8531 H   0  0  0  0  0  0  0  0  0  0  0  0
   10.6393   12.2165   25.1959 H   0  0  0  0  0  0  0  0  0  0  0  0
   11.5821   12.6108   21.7566 H   0  0  0  0  0  0  0  0  0  0  0  0
  1  2  2  0  0  0  0
  1  3  1  0  0  0  0
  2  4  1  0  0  0  0
  3  5  2  0  0  0  0
  4  6  2  0  0  0  0
  5  6  1  0  0  0  0
  5 13  1  0  0  0  0
  6 14  1  0  0  0  0
  7 18  1  0  0  0  0
  7 20  1  0  0  0  0
  7 21  2  0  0  0  0
  8 11  1  0  0  0  0
  8 12  1  0  0  0  0
  9 10  1  0  0  0  0
  9 13  1  0  0  0  0
 10 14  1  0  0  0  0
 11 15  1  0  0  0  0
 12 22  1  0  0  0  0
 13 19  1  0  0  0  0
 14 19  1  0  0  0  0
 15 17  1  0  0  0  0
 15 22  1  0  0  0  0
 16 18  1  0  0  0  0
 17 20  1  0  0  0  0
 18 19  1  0  0  0  0
  1 23  1  0  0  0  0
  2 24  1  0  0  0  0
  3 25  1  0  0  0  0
  4 26  1  0  0  0  0
  8 27  1  0  0  0  0
  8 28  1  0  0  0  0
  9 29  1  0  0  0  0
  9 30  1  0  0  0  0
 10 31  1  0  0  0  0
 10 32  1  0  0  0  0
 11 33  1  0  0  0  0
 11 34  1  0  0  0  0
 12 35  1  0  0  0  0
 12 36  1  0  0  0  0
 13 37  1  0  0  0  0
 14 38  1  0  0  0  0
 15 39  1  0  0  0  0
 16 40  1  0  0  0  0
 16 41  1  0  0  0  0
 16 42  1  0  0  0  0
 17 43  1  0  0  0  0
 17 44  1  0  0  0  0
 18 45  1  0  0  0  0
 20 46  1  0  0  0  0
M  END
> <Catalog ID>
Z1248939713

> <PlateID>
1041831-R-17

> <Well>
F04

> <MW (desalted)>
300.395

> <ClogP>
2.223

> <HBD>
1

> <TPSA>
41.570

> <RotBonds>
4

> <ROCS_ShapeQuery>
A71EV2A-x0451_0A_A71EV2A-x0310_0A_A71EV2A-x0416_0A_peptide

> <ROCS_TanimotoCombo>
0.557 

> <ROCS_ShapeTanimoto>
0.337 

> <ROCS_ColorTanimoto>
0.220 

> <ROCS_RefTversky>
0.300 

> <ROCS_RefColorTversky>
0.259 

> <ROCS_RefTverskyCombo>
0.558 

> <ROCS_FitTversky>
1.580 

> <ROCS_FitColorTversky>
0.594 

> <ROCS_FitTverskyCombo>
2.174 

> <ROCS_ColorScore>
-7.956

> <ROCS_Overlap>
2081.306

> <ROCS_Rank>
61                  

$$$$
untitled-dbase-148_3876
  -OEChem-11132311063D

 39 41  0     1  0  0  0  0  0999 V2000
    6.8961   12.8684   25.2927 C   0  0  0  0  0  0  0  0  0  0  0  0
   14.2709   16.7852   19.7325 C   0  0  0  0  0  0  0  0  0  0  0  0
    6.4968   11.7068   25.9508 C   0  0  0  0  0  0  0  0  0  0  0  0
   14.0629   16.7034   18.3557 C   0  0  0  0  0  0  0  0  0  0  0  0
    7.9020   12.8310   24.3202 C   0  0  0  0  0  0  0  0  0  0  0  0
   13.4221   16.1074   20.6076 C   0  0  0  0  0  0  0  0  0  0  0  0
    7.0878   10.4740   25.6596 C   0  0  0  0  0  0  0  0  0  0  0  0
   13.0060   15.9439   17.8539 C   0  0  0  0  0  0  0  0  0  0  0  0
    9.7130    9.8434   23.2457 C   0  0  0  0  0  0  0  0  0  0  0  0
    8.5124   11.5996   24.0098 C   0  0  0  0  0  0  0  0  0  0  0  0
   12.3652   15.3479   20.1059 C   0  0  0  0  0  0  0  0  0  0  0  0
    9.5352   11.2004   23.1046 C   0  0  0  0  0  0  0  0  0  0  0  0
    8.0921   10.4518   24.6853 C   0  0  0  0  0  0  0  0  0  0  0  0
   12.1571   15.2661   18.7290 C   0  0  0  0  0  0  0  0  0  0  0  0
   11.4877   14.6441   21.0763 C   0  0  0  0  0  0  0  0  0  0  0  0
   10.8073   13.8048   23.9480 C   0  0  0  0  0  0  0  0  0  0  0  0
   10.2802   12.0760   22.1772 C   0  0  0  0  0  0  0  0  0  0  0  0
   11.3869   12.9180   22.8558 C   0  0  1  0  0  0  0  0  0  0  0  0
    8.8379    9.4009   24.2011 N   0  0  0  0  0  0  0  0  0  0  0  0
   12.1078   13.7003   21.8830 N   0  0  0  0  0  0  0  0  0  0  0  0
   10.2886   14.9087   21.1026 O   0  0  0  0  0  0  0  0  0  0  0  0
   10.3902   14.9387   23.7359 O   0  0  0  0  0  0  0  0  0  0  0  0
   10.7786   13.2440   25.1806 O   0  0  0  0  0  0  0  0  0  0  0  0
   10.8607   14.3370   18.0669 Cl  0  0  0  0  0  0  0  0  0  0  0  0
    6.4213   13.8151   25.5360 H   0  0  0  0  0  0  0  0  0  0  0  0
   15.0939   17.3768   20.1230 H   0  0  0  0  0  0  0  0  0  0  0  0
    5.7137   11.7589   26.7028 H   0  0  0  0  0  0  0  0  0  0  0  0
   14.7240   17.2311   17.6745 H   0  0  0  0  0  0  0  0  0  0  0  0
    8.2013   13.7452   23.8154 H   0  0  0  0  0  0  0  0  0  0  0  0
   13.5952   16.1796   21.6784 H   0  0  0  0  0  0  0  0  0  0  0  0
    6.7771    9.5706   26.1732 H   0  0  0  0  0  0  0  0  0  0  0  0
   12.8578   15.8905   16.7783 H   0  0  0  0  0  0  0  0  0  0  0  0
   10.3819    9.1522   22.7516 H   0  0  0  0  0  0  0  0  0  0  0  0
    9.5750   12.7586   21.6612 H   0  0  0  0  0  0  0  0  0  0  0  0
   10.7363   11.4928   21.3502 H   0  0  0  0  0  0  0  0  0  0  0  0
   12.1297   12.2685   23.3331 H   0  0  0  0  0  0  0  0  0  0  0  0
    8.7514    8.4416   24.5074 H   0  0  0  0  0  0  0  0  0  0  0  0
   13.0950   13.4927   21.7582 H   0  0  0  0  0  0  0  0  0  0  0  0
   11.1391   12.3335   25.2275 H   0  0  0  0  0  0  0  0  0  0  0  0
  1  3  2  0  0  0  0
  1  5  1  0  0  0  0
  2  4  2  0  0  0  0
  2  6  1  0  0  0  0
  3  7  1  0  0  0  0
  4  8  1  0  0  0  0
  5 10  2  0  0  0  0
  6 11  2  0  0  0  0
  7 13  2  0  0  0  0
  8 14  2  0  0  0  0
  9 12  2  0  0  0  0
  9 19  1  0  0  0  0
 10 12  1  0  0  0  0
 10 13  1  0  0  0  0
 11 14  1  0  0  0  0
 11 15  1  0  0  0  0
 12 17  1  0  0  0  0
 13 19  1  0  0  0  0
 14 24  1  0  0  0  0
 15 20  1  0  0  0  0
 15 21  2  0  0  0  0
 16 18  1  0  0  0  0
 16 22  2  0  0  0  0
 16 23  1  0  0  0  0
 17 18  1  0  0  0  0
 18 20  1  0  0  0  0
  1 25  1  0  0  0  0
  2 26  1  0  0  0  0
  3 27  1  0  0  0  0
  4 28  1  0  0  0  0
  5 29  1  0  0  0  0
  6 30  1  0  0  0  0
  7 31  1  0  0  0  0
  8 32  1  0  0  0  0
  9 33  1  0  0  0  0
 17 34  1  0  0  0  0
 17 35  1  0  0  0  0
 18 36  1  0  0  0  0
 19 37  1  0  0  0  0
 20 38  1  0  0  0  0
 23 39  1  0  0  0  0
M  END
> <Catalog ID>
Z85881721

> <PlateID>
1041831-R-02

> <Well>
G09

> <MW (desalted)>
342.776

> <ClogP>
2.455

> <HBD>
3

> <TPSA>
82.190

> <RotBonds>
5

> <ROCS_ShapeQuery>
A71EV2A-x0451_0A_A71EV2A-x0310_0A_A71EV2A-x0416_0A_peptide

> <ROCS_TanimotoCombo>
0.557 

> <ROCS_ShapeTanimoto>
0.374 

> <ROCS_ColorTanimoto>
0.183 

> <ROCS_RefTversky>
0.327 

> <ROCS_RefColorTversky>
0.206 

> <ROCS_RefTverskyCombo>
0.533 

> <ROCS_FitTversky>
1.629 

> <ROCS_FitColorTversky>
0.620 

> <ROCS_FitTverskyCombo>
2.248 

> <ROCS_ColorScore>
-6.297

> <ROCS_Overlap>
2269.760

> <ROCS_Rank>
62                  

$$$$
untitled-dbase-873_1546
  -OEChem-11132311063D

 47 49  0     0  0  0  0  0  0999 V2000
    4.5406   13.3729   28.4594 C   0  0  0  0  0  0  0  0  0  0  0  0
    4.6245   13.9853   27.2090 C   0  0  0  0  0  0  0  0  0  0  0  0
    5.3523   12.2778   28.7556 C   0  0  0  0  0  0  0  0  0  0  0  0
    5.5200   13.5026   26.2547 C   0  0  0  0  0  0  0  0  0  0  0  0
    6.2478   11.7951   27.8012 C   0  0  0  0  0  0  0  0  0  0  0  0
    9.7818   10.4390   22.7936 C   0  0  0  0  0  0  0  0  0  0  0  0
    6.3317   12.4075   26.5508 C   0  0  0  0  0  0  0  0  0  0  0  0
    8.2925    9.0997   23.5160 C   0  0  0  0  0  0  0  0  0  0  0  0
    8.0780   10.2802   24.1930 C   0  0  0  0  0  0  0  0  0  0  0  0
    8.3007   12.8970   25.0978 C   0  0  0  0  0  0  0  0  0  0  0  0
    7.2679   11.9028   25.5529 C   0  0  0  0  0  0  0  0  0  0  0  0
    9.1635   12.4499   24.1719 C   0  0  0  0  0  0  0  0  0  0  0  0
    7.5390    7.8905   23.6597 C   0  0  0  0  0  0  0  0  0  0  0  0
   10.1816   13.4099   23.7075 C   0  0  0  0  0  0  0  0  0  0  0  0
   13.4221   12.4853   22.5696 C   0  0  0  0  0  0  0  0  0  0  0  0
    9.7350   15.5963   20.9314 C   0  0  0  0  0  0  0  0  0  0  0  0
   12.8903   13.9101   22.4751 C   0  0  0  0  0  0  0  0  0  0  0  0
   11.0641   15.4526   21.6626 C   0  0  0  0  0  0  0  0  0  0  0  0
   11.5530   13.9976   21.7251 C   0  0  0  0  0  0  0  0  0  0  0  0
    9.3491    9.2058   22.6509 N   0  0  0  0  0  0  0  0  0  0  0  0
    7.1757   10.6720   25.1313 N   0  0  0  0  0  0  0  0  0  0  0  0
    9.0497   11.1428   23.7171 N   0  0  0  0  0  0  0  0  0  0  0  0
    7.9012    6.7794   22.8845 N   0  0  0  0  0  0  0  0  0  0  0  0
   10.5656   13.1818   22.4035 N   0  0  0  0  0  0  0  0  0  0  0  0
    6.5604    7.7990   24.4405 O   0  0  0  0  0  0  0  0  0  0  0  0
   10.5951   14.2914   24.4528 O   0  0  0  0  0  0  0  0  0  0  0  0
    3.8434   13.7487   29.2024 H   0  0  0  0  0  0  0  0  0  0  0  0
    3.9923   14.8378   26.9785 H   0  0  0  0  0  0  0  0  0  0  0  0
    5.2872   11.8012   29.7293 H   0  0  0  0  0  0  0  0  0  0  0  0
    5.5772   13.9874   25.2835 H   0  0  0  0  0  0  0  0  0  0  0  0
    6.8753   10.9411   28.0429 H   0  0  0  0  0  0  0  0  0  0  0  0
   10.6159   10.8700   22.2568 H   0  0  0  0  0  0  0  0  0  0  0  0
    8.3081   13.8970   25.5135 H   0  0  0  0  0  0  0  0  0  0  0  0
   12.7131   11.8256   23.0790 H   0  0  0  0  0  0  0  0  0  0  0  0
   13.6222   12.0752   21.5747 H   0  0  0  0  0  0  0  0  0  0  0  0
   14.3587   12.4708   23.1361 H   0  0  0  0  0  0  0  0  0  0  0  0
    8.9554   14.9995   21.4154 H   0  0  0  0  0  0  0  0  0  0  0  0
    9.4039   16.6389   20.9030 H   0  0  0  0  0  0  0  0  0  0  0  0
    9.8349   15.2487   19.8984 H   0  0  0  0  0  0  0  0  0  0  0  0
   13.6399   14.5215   21.9580 H   0  0  0  0  0  0  0  0  0  0  0  0
   12.7865   14.3190   23.4880 H   0  0  0  0  0  0  0  0  0  0  0  0
   11.8095   16.0662   21.1422 H   0  0  0  0  0  0  0  0  0  0  0  0
   10.9601   15.8642   22.6743 H   0  0  0  0  0  0  0  0  0  0  0  0
   11.6848   13.6189   20.7046 H   0  0  0  0  0  0  0  0  0  0  0  0
    8.6844    6.8625   22.2454 H   0  0  0  0  0  0  0  0  0  0  0  0
    7.4067    5.8949   22.9410 H   0  0  0  0  0  0  0  0  0  0  0  0
   10.1402   12.4121   21.8984 H   0  0  0  0  0  0  0  0  0  0  0  0
  1  2  2  0  0  0  0
  1  3  1  0  0  0  0
  2  4  1  0  0  0  0
  3  5  2  0  0  0  0
  4  7  2  0  0  0  0
  5  7  1  0  0  0  0
  6 20  2  0  0  0  0
  6 22  1  0  0  0  0
  7 11  1  0  0  0  0
  8  9  2  0  0  0  0
  8 13  1  0  0  0  0
  8 20  1  0  0  0  0
  9 21  1  0  0  0  0
  9 22  1  0  0  0  0
 10 11  1  0  0  0  0
 10 12  2  0  0  0  0
 11 21  2  0  0  0  0
 12 14  1  0  0  0  0
 12 22  1  0  0  0  0
 13 23  1  0  0  0  0
 13 25  2  0  0  0  0
 14 24  1  0  0  0  0
 14 26  2  0  0  0  0
 15 17  1  0  0  0  0
 16 18  1  0  0  0  0
 17 19  1  0  0  0  0
 18 19  1  0  0  0  0
 19 24  1  0  0  0  0
  1 27  1  0  0  0  0
  2 28  1  0  0  0  0
  3 29  1  0  0  0  0
  4 30  1  0  0  0  0
  5 31  1  0  0  0  0
  6 32  1  0  0  0  0
 10 33  1  0  0  0  0
 15 34  1  0  0  0  0
 15 35  1  0  0  0  0
 15 36  1  0  0  0  0
 16 37  1  0  0  0  0
 16 38  1  0  0  0  0
 16 39  1  0  0  0  0
 17 40  1  0  0  0  0
 17 41  1  0  0  0  0
 18 42  1  0  0  0  0
 18 43  1  0  0  0  0
 19 44  1  0  0  0  0
 23 45  1  0  0  0  0
 23 46  1  0  0  0  0
 24 47  1  0  0  0  0
M  END
> <Catalog ID>
Z223590608

> <PlateID>
1041831-R-11

> <Well>
H04

> <MW (desalted)>
351.402

> <ClogP>
3.739

> <HBD>
2

> <TPSA>
102.380

> <RotBonds>
6

> <ROCS_ShapeQuery>
A71EV2A-x0451_0A_A71EV2A-x0310_0A_A71EV2A-x0416_0A_peptide

> <ROCS_TanimotoCombo>
0.556 

> <ROCS_ShapeTanimoto>
0.394 

> <ROCS_ColorTanimoto>
0.162 

> <ROCS_RefTversky>
0.343 

> <ROCS_RefColorTversky>
0.199 

> <ROCS_RefTverskyCombo>
0.542 

> <ROCS_FitTversky>
1.602 

> <ROCS_FitColorTversky>
0.469 

> <ROCS_FitTverskyCombo>
2.072 

> <ROCS_ColorScore>
-6.107

> <ROCS_Overlap>
2387.058

> <ROCS_Rank>
63                  

$$$$
untitled-dbase-975_1583
  -OEChem-11132311063D

 45 48  0     0  0  0  0  0  0999 V2000
    4.2314   12.9291   28.9906 C   0  0  0  0  0  0  0  0  0  0  0  0
    5.6049   13.0687   29.1894 C   0  0  0  0  0  0  0  0  0  0  0  0
    3.7474   12.4623   27.7685 C   0  0  0  0  0  0  0  0  0  0  0  0
   13.4142   14.8089   22.2790 C   0  0  0  0  0  0  0  0  0  0  0  0
    6.4945   12.7416   28.1661 C   0  0  0  0  0  0  0  0  0  0  0  0
    4.6370   12.1353   26.7451 C   0  0  0  0  0  0  0  0  0  0  0  0
   12.0924   14.5098   21.8710 C   0  0  0  0  0  0  0  0  0  0  0  0
   13.3309   15.9566   23.0325 C   0  0  0  0  0  0  0  0  0  0  0  0
    9.4472   10.9105   22.9161 C   0  0  0  0  0  0  0  0  0  0  0  0
    6.0106   12.2749   26.9439 C   0  0  0  0  0  0  0  0  0  0  0  0
    8.1816    9.3657   23.6546 C   0  0  0  0  0  0  0  0  0  0  0  0
   11.2955   15.4959   22.4045 C   0  0  0  0  0  0  0  0  0  0  0  0
    7.8631   10.4815   24.3971 C   0  0  0  0  0  0  0  0  0  0  0  0
    7.8130   13.0673   25.4106 C   0  0  0  0  0  0  0  0  0  0  0  0
    6.9408   11.9330   25.8739 C   0  0  0  0  0  0  0  0  0  0  0  0
    8.6677   12.7704   24.4191 C   0  0  0  0  0  0  0  0  0  0  0  0
    7.5941    8.0660   23.7820 C   0  0  0  0  0  0  0  0  0  0  0  0
    9.5244   13.8633   23.9483 C   0  0  0  0  0  0  0  0  0  0  0  0
    7.7328   14.4442   22.2987 C   0  0  0  0  0  0  0  0  0  0  0  0
    9.8193   15.7641   22.3509 C   0  0  0  0  0  0  0  0  0  0  0  0
    9.1632    9.6391   22.7393 N   0  0  0  0  0  0  0  0  0  0  0  0
    6.9770   10.7183   25.4005 N   0  0  0  0  0  0  0  0  0  0  0  0
    8.6900   11.4785   23.9102 N   0  0  0  0  0  0  0  0  0  0  0  0
    8.0443    7.0415   22.9369 N   0  0  0  0  0  0  0  0  0  0  0  0
    9.0442   14.6615   22.9047 N   0  0  0  0  0  0  0  0  0  0  0  0
    6.6828    7.8202   24.6098 O   0  0  0  0  0  0  0  0  0  0  0  0
   10.6282   14.0173   24.4855 O   0  0  0  0  0  0  0  0  0  0  0  0
   12.0428   16.3817   23.1140 O   0  0  0  0  0  0  0  0  0  0  0  0
    3.5388   13.1838   29.7874 H   0  0  0  0  0  0  0  0  0  0  0  0
    5.9815   13.4323   30.1410 H   0  0  0  0  0  0  0  0  0  0  0  0
    2.6780   12.3533   27.6138 H   0  0  0  0  0  0  0  0  0  0  0  0
   14.3150   14.2573   22.0519 H   0  0  0  0  0  0  0  0  0  0  0  0
    7.5629   12.8542   28.3317 H   0  0  0  0  0  0  0  0  0  0  0  0
    4.2486   11.7726   25.7969 H   0  0  0  0  0  0  0  0  0  0  0  0
   11.7647   13.6783   21.2633 H   0  0  0  0  0  0  0  0  0  0  0  0
   14.0575   16.5636   23.5524 H   0  0  0  0  0  0  0  0  0  0  0  0
   10.1877   11.4646   22.3556 H   0  0  0  0  0  0  0  0  0  0  0  0
    7.7212   14.0429   25.8718 H   0  0  0  0  0  0  0  0  0  0  0  0
    6.9772   15.0356   22.8365 H   0  0  0  0  0  0  0  0  0  0  0  0
    7.7601   14.7562   21.2442 H   0  0  0  0  0  0  0  0  0  0  0  0
    7.4736   13.3769   22.3586 H   0  0  0  0  0  0  0  0  0  0  0  0
    9.5705   16.6688   22.9165 H   0  0  0  0  0  0  0  0  0  0  0  0
    9.4859   15.9231   21.3200 H   0  0  0  0  0  0  0  0  0  0  0  0
    8.7714    7.2485   22.2608 H   0  0  0  0  0  0  0  0  0  0  0  0
    7.6676    6.1000   22.9785 H   0  0  0  0  0  0  0  0  0  0  0  0
  1  2  2  0  0  0  0
  1  3  1  0  0  0  0
  2  5  1  0  0  0  0
  3  6  2  0  0  0  0
  4  7  1  0  0  0  0
  4  8  2  0  0  0  0
  5 10  2  0  0  0  0
  6 10  1  0  0  0  0
  7 12  2  0  0  0  0
  8 28  1  0  0  0  0
  9 21  2  0  0  0  0
  9 23  1  0  0  0  0
 10 15  1  0  0  0  0
 11 13  2  0  0  0  0
 11 17  1  0  0  0  0
 11 21  1  0  0  0  0
 12 20  1  0  0  0  0
 12 28  1  0  0  0  0
 13 22  1  0  0  0  0
 13 23  1  0  0  0  0
 14 15  1  0  0  0  0
 14 16  2  0  0  0  0
 15 22  2  0  0  0  0
 16 18  1  0  0  0  0
 16 23  1  0  0  0  0
 17 24  1  0  0  0  0
 17 26  2  0  0  0  0
 18 25  1  0  0  0  0
 18 27  2  0  0  0  0
 19 25  1  0  0  0  0
 20 25  1  0  0  0  0
  1 29  1  0  0  0  0
  2 30  1  0  0  0  0
  3 31  1  0  0  0  0
  4 32  1  0  0  0  0
  5 33  1  0  0  0  0
  6 34  1  0  0  0  0
  7 35  1  0  0  0  0
  8 36  1  0  0  0  0
  9 37  1  0  0  0  0
 14 38  1  0  0  0  0
 19 39  1  0  0  0  0
 19 40  1  0  0  0  0
 19 41  1  0  0  0  0
 20 42  1  0  0  0  0
 20 43  1  0  0  0  0
 24 44  1  0  0  0  0
 24 45  1  0  0  0  0
M  END
> <Catalog ID>
Z229151534

> <PlateID>
1041831-R-13

> <Well>
B06

> <MW (desalted)>
375.381

> <ClogP>
2.104

> <HBD>
1

> <TPSA>
106.730

> <RotBonds>
5

> <ROCS_ShapeQuery>
A71EV2A-x0451_0A_A71EV2A-x0310_0A_A71EV2A-x0416_0A_peptide

> <ROCS_TanimotoCombo>
0.556 

> <ROCS_ShapeTanimoto>
0.354 

> <ROCS_ColorTanimoto>
0.202 

> <ROCS_RefTversky>
0.322 

> <ROCS_RefColorTversky>
0.234 

> <ROCS_RefTverskyCombo>
0.556 

> <ROCS_FitTversky>
1.389 

> <ROCS_FitColorTversky>
0.596 

> <ROCS_FitTverskyCombo>
1.985 

> <ROCS_ColorScore>
-7.183

> <ROCS_Overlap>
2240.515

> <ROCS_Rank>
64                  

$$$$
untitled-dbase-1354_343
  -OEChem-11132311063D

 50 52  0     1  0  0  0  0  0999 V2000
    8.5743    9.7674   23.3305 C   0  0  0  0  0  0  0  0  0  0  0  0
    7.5424   10.3851   24.0371 C   0  0  0  0  0  0  0  0  0  0  0  0
    9.7091   10.4960   22.9739 C   0  0  0  0  0  0  0  0  0  0  0  0
    5.3268   12.0026   29.3205 C   0  0  0  0  0  0  0  0  0  0  0  0
    8.7800   12.4600   24.0305 C   0  0  0  0  0  0  0  0  0  0  0  0
    4.1964   11.5542   28.6112 C   0  0  0  0  0  0  0  0  0  0  0  0
   14.1825   16.3338   20.2269 C   0  0  0  0  0  0  0  0  0  0  0  0
    5.8678   12.9803   28.5217 C   0  0  0  0  0  0  0  0  0  0  0  0
    7.6452   11.7314   24.3871 C   0  0  0  0  0  0  0  0  0  0  0  0
    9.8119   11.8423   23.3239 C   0  0  0  0  0  0  0  0  0  0  0  0
   13.0535   15.8247   20.8339 C   0  0  0  0  0  0  0  0  0  0  0  0
   13.1051   15.6863   18.4296 C   0  0  0  0  0  0  0  0  0  0  0  0
    6.5341   13.6808   25.5321 C   0  0  0  0  0  0  0  0  0  0  0  0
   11.2336   13.9270   23.2272 C   0  0  0  0  0  0  0  0  0  0  0  0
   12.7797   15.4312   17.0092 C   0  0  0  0  0  0  0  0  0  0  0  0
    5.1094   15.4247   26.7096 C   0  0  0  0  0  0  0  0  0  0  0  0
   13.6323   13.4850   22.6211 C   0  0  0  0  0  0  0  0  0  0  0  0
   12.6957   15.7486   22.2901 C   0  0  0  0  0  0  0  0  0  0  0  0
    5.2268   13.9623   26.2784 C   0  0  2  0  0  0  0  0  0  0  0  0
   14.2140   16.2548   18.8483 N   0  0  0  0  0  0  0  0  0  0  0  0
    4.0282   12.1946   27.4511 N   0  0  0  0  0  0  0  0  0  0  0  0
    5.0600   13.0553   27.4254 N   0  0  0  0  0  0  0  0  0  0  0  0
    6.6129   12.3485   25.0943 N   0  0  0  0  0  0  0  0  0  0  0  0
   10.9650   12.5820   22.9614 N   0  0  0  0  0  0  0  0  0  0  0  0
   12.4805   14.3714   22.7291 N   0  0  0  0  0  0  0  0  0  0  0  0
    7.3793   14.5553   25.3650 O   0  0  0  0  0  0  0  0  0  0  0  0
   10.4630   14.6852   23.8201 O   0  0  0  0  0  0  0  0  0  0  0  0
   11.9803   15.2220   19.6397 S   0  0  0  0  0  0  0  0  0  0  0  0
    8.4948    8.7189   23.0589 H   0  0  0  0  0  0  0  0  0  0  0  0
    6.6626    9.8072   24.3088 H   0  0  0  0  0  0  0  0  0  0  0  0
   10.5063   10.0038   22.4225 H   0  0  0  0  0  0  0  0  0  0  0  0
    5.6971   11.6642   30.2767 H   0  0  0  0  0  0  0  0  0  0  0  0
    8.8600   13.5104   24.3032 H   0  0  0  0  0  0  0  0  0  0  0  0
    3.4890   10.7877   28.8930 H   0  0  0  0  0  0  0  0  0  0  0  0
   15.0217   16.7778   20.7457 H   0  0  0  0  0  0  0  0  0  0  0  0
    6.7379   13.6114   28.6388 H   0  0  0  0  0  0  0  0  0  0  0  0
   13.1424   14.4406   16.6936 H   0  0  0  0  0  0  0  0  0  0  0  0
   11.6939   15.4683   16.8238 H   0  0  0  0  0  0  0  0  0  0  0  0
   13.2312   16.1845   16.3431 H   0  0  0  0  0  0  0  0  0  0  0  0
    5.9096   15.6850   27.4110 H   0  0  0  0  0  0  0  0  0  0  0  0
    5.1833   16.0942   25.8457 H   0  0  0  0  0  0  0  0  0  0  0  0
    4.1561   15.6299   27.2089 H   0  0  0  0  0  0  0  0  0  0  0  0
   13.6317   13.0009   21.6334 H   0  0  0  0  0  0  0  0  0  0  0  0
   14.5567   14.0687   22.7427 H   0  0  0  0  0  0  0  0  0  0  0  0
   13.5780   12.7163   23.4061 H   0  0  0  0  0  0  0  0  0  0  0  0
   13.4928   16.1785   22.9065 H   0  0  0  0  0  0  0  0  0  0  0  0
   11.7815   16.3137   22.5001 H   0  0  0  0  0  0  0  0  0  0  0  0
    4.4041   13.7581   25.5799 H   0  0  0  0  0  0  0  0  0  0  0  0
    5.8090   11.7533   25.3238 H   0  0  0  0  0  0  0  0  0  0  0  0
   11.6795   12.0752   22.4487 H   0  0  0  0  0  0  0  0  0  0  0  0
  1  2  1  0  0  0  0
  1  3  2  0  0  0  0
  2  9  2  0  0  0  0
  3 10  1  0  0  0  0
  4  6  1  0  0  0  0
  4  8  2  0  0  0  0
  5  9  1  0  0  0  0
  5 10  2  0  0  0  0
  6 21  2  0  0  0  0
  7 11  2  0  0  0  0
  7 20  1  0  0  0  0
  8 22  1  0  0  0  0
  9 23  1  0  0  0  0
 10 24  1  0  0  0  0
 11 18  1  0  0  0  0
 11 28  1  0  0  0  0
 12 15  1  0  0  0  0
 12 20  2  0  0  0  0
 12 28  1  0  0  0  0
 13 19  1  0  0  0  0
 13 23  1  0  0  0  0
 13 26  2  0  0  0  0
 14 24  1  0  0  0  0
 14 25  1  0  0  0  0
 14 27  2  0  0  0  0
 16 19  1  0  0  0  0
 17 25  1  0  0  0  0
 18 25  1  0  0  0  0
 19 22  1  0  0  0  0
 21 22  1  0  0  0  0
  1 29  1  0  0  0  0
  2 30  1  0  0  0  0
  3 31  1  0  0  0  0
  4 32  1  0  0  0  0
  5 33  1  0  0  0  0
  6 34  1  0  0  0  0
  7 35  1  0  0  0  0
  8 36  1  0  0  0  0
 15 37  1  0  0  0  0
 15 38  1  0  0  0  0
 15 39  1  0  0  0  0
 16 40  1  0  0  0  0
 16 41  1  0  0  0  0
 16 42  1  0  0  0  0
 17 43  1  0  0  0  0
 17 44  1  0  0  0  0
 17 45  1  0  0  0  0
 18 46  1  0  0  0  0
 18 47  1  0  0  0  0
 19 48  1  0  0  0  0
 23 49  1  0  0  0  0
 24 50  1  0  0  0  0
M  END
> <Catalog ID>
Z595117154

> <PlateID>
1041831-R-17

> <Well>
H05

> <MW (desalted)>
398.482

> <ClogP>
0.894

> <HBD>
2

> <TPSA>
92.150

> <RotBonds>
6

> <ROCS_ShapeQuery>
A71EV2A-x0451_0A_A71EV2A-x0310_0A_A71EV2A-x0416_0A_peptide

> <ROCS_TanimotoCombo>
0.556 

> <ROCS_ShapeTanimoto>
0.353 

> <ROCS_ColorTanimoto>
0.203 

> <ROCS_RefTversky>
0.319 

> <ROCS_RefColorTversky>
0.225 

> <ROCS_RefTverskyCombo>
0.543 

> <ROCS_FitTversky>
1.431 

> <ROCS_FitColorTversky>
0.678 

> <ROCS_FitTverskyCombo>
2.109 

> <ROCS_ColorScore>
-6.868

> <ROCS_Overlap>
2217.708

> <ROCS_Rank>
65                  

$$$$
untitled-dbase-103_1029
  -OEChem-11132311063D

 43 45  0     1  0  0  0  0  0999 V2000
    6.9316   12.7944   25.6558 C   0  0  0  0  0  0  0  0  0  0  0  0
    6.5731   11.5861   26.2502 C   0  0  0  0  0  0  0  0  0  0  0  0
   13.2058   17.1448   18.9787 C   0  0  0  0  0  0  0  0  0  0  0  0
    7.8716   12.8318   24.6195 C   0  0  0  0  0  0  0  0  0  0  0  0
    7.1402   10.3797   25.8297 C   0  0  0  0  0  0  0  0  0  0  0  0
   12.2225   16.7407   19.9274 C   0  0  0  0  0  0  0  0  0  0  0  0
    9.6000    9.9365   23.2088 C   0  0  0  0  0  0  0  0  0  0  0  0
   14.1756   16.1835   18.7973 C   0  0  0  0  0  0  0  0  0  0  0  0
    8.4569   11.6282   24.1788 C   0  0  0  0  0  0  0  0  0  0  0  0
    9.4172   11.2998   23.1813 C   0  0  0  0  0  0  0  0  0  0  0  0
    8.0785   10.4324   24.7928 C   0  0  0  0  0  0  0  0  0  0  0  0
   12.4782   15.4857   20.4348 C   0  0  0  0  0  0  0  0  0  0  0  0
   11.7019   14.7097   21.4360 C   0  0  0  0  0  0  0  0  0  0  0  0
   11.5518   13.2878   24.0488 C   0  0  0  0  0  0  0  0  0  0  0  0
   12.7885   13.7228   26.1842 C   0  0  0  0  0  0  0  0  0  0  0  0
   13.8573   12.3749   24.4243 C   0  0  0  0  0  0  0  0  0  0  0  0
   10.1174   12.2645   22.2551 C   0  0  0  0  0  0  0  0  0  0  0  0
   11.5535   12.5764   22.6941 C   0  0  1  0  0  0  0  0  0  0  0  0
    8.7881    9.4221   24.1838 N   0  0  0  0  0  0  0  0  0  0  0  0
   12.2081   13.4602   21.7560 N   0  0  0  0  0  0  0  0  0  0  0  0
   12.6861   13.1351   24.8535 N   0  0  0  0  0  0  0  0  0  0  0  0
   10.6715   15.1907   21.9002 O   0  0  0  0  0  0  0  0  0  0  0  0
   10.5578   13.9296   24.4060 O   0  0  0  0  0  0  0  0  0  0  0  0
   13.8988   14.8004   19.7682 S   0  0  0  0  0  0  0  0  0  0  0  0
    6.4765   13.7193   25.9996 H   0  0  0  0  0  0  0  0  0  0  0  0
    5.8409   11.5803   27.0536 H   0  0  0  0  0  0  0  0  0  0  0  0
   13.2025   18.0929   18.4569 H   0  0  0  0  0  0  0  0  0  0  0  0
    8.1399   13.7817   24.1658 H   0  0  0  0  0  0  0  0  0  0  0  0
    6.8613    9.4398   26.2937 H   0  0  0  0  0  0  0  0  0  0  0  0
   11.3721   17.3443   20.2190 H   0  0  0  0  0  0  0  0  0  0  0  0
   10.2332    9.2855   22.6218 H   0  0  0  0  0  0  0  0  0  0  0  0
   15.0338   16.2280   18.1417 H   0  0  0  0  0  0  0  0  0  0  0  0
   12.4067   13.0107   26.9306 H   0  0  0  0  0  0  0  0  0  0  0  0
   13.8416   13.9536   26.4029 H   0  0  0  0  0  0  0  0  0  0  0  0
   12.1947   14.6480   26.2230 H   0  0  0  0  0  0  0  0  0  0  0  0
   14.5593   13.0439   23.9052 H   0  0  0  0  0  0  0  0  0  0  0  0
   14.3516   11.9358   25.3034 H   0  0  0  0  0  0  0  0  0  0  0  0
   13.5431   11.5720   23.7412 H   0  0  0  0  0  0  0  0  0  0  0  0
   10.1145   11.8593   21.2339 H   0  0  0  0  0  0  0  0  0  0  0  0
    9.5201   13.1835   22.1969 H   0  0  0  0  0  0  0  0  0  0  0  0
   12.1844   11.6840   22.7333 H   0  0  0  0  0  0  0  0  0  0  0  0
    8.7192    8.4424   24.4226 H   0  0  0  0  0  0  0  0  0  0  0  0
   13.0323   13.1032   21.2841 H   0  0  0  0  0  0  0  0  0  0  0  0
  1  2  2  0  0  0  0
  1  4  1  0  0  0  0
  2  5  1  0  0  0  0
  3  6  1  0  0  0  0
  3  8  2  0  0  0  0
  4  9  2  0  0  0  0
  5 11  2  0  0  0  0
  6 12  2  0  0  0  0
  7 10  2  0  0  0  0
  7 19  1  0  0  0  0
  8 24  1  0  0  0  0
  9 10  1  0  0  0  0
  9 11  1  0  0  0  0
 10 17  1  0  0  0  0
 11 19  1  0  0  0  0
 12 13  1  0  0  0  0
 12 24  1  0  0  0  0
 13 20  1  0  0  0  0
 13 22  2  0  0  0  0
 14 18  1  0  0  0  0
 14 21  1  0  0  0  0
 14 23  2  0  0  0  0
 15 21  1  0  0  0  0
 16 21  1  0  0  0  0
 17 18  1  0  0  0  0
 18 20  1  0  0  0  0
  1 25  1  0  0  0  0
  2 26  1  0  0  0  0
  3 27  1  0  0  0  0
  4 28  1  0  0  0  0
  5 29  1  0  0  0  0
  6 30  1  0  0  0  0
  7 31  1  0  0  0  0
  8 32  1  0  0  0  0
 15 33  1  0  0  0  0
 15 34  1  0  0  0  0
 15 35  1  0  0  0  0
 16 36  1  0  0  0  0
 16 37  1  0  0  0  0
 16 38  1  0  0  0  0
 17 39  1  0  0  0  0
 17 40  1  0  0  0  0
 18 41  1  0  0  0  0
 19 42  1  0  0  0  0
 20 43  1  0  0  0  0
M  END
> <Catalog ID>
Z32015116

> <PlateID>
1041831-R-02

> <Well>
C04

> <MW (desalted)>
341.427

> <ClogP>
1.991

> <HBD>
2

> <TPSA>
65.200

> <RotBonds>
5

> <ROCS_ShapeQuery>
A71EV2A-x0451_0A_A71EV2A-x0310_0A_A71EV2A-x0416_0A_peptide

> <ROCS_TanimotoCombo>
0.555 

> <ROCS_ShapeTanimoto>
0.365 

> <ROCS_ColorTanimoto>
0.191 

> <ROCS_RefTversky>
0.320 

> <ROCS_RefColorTversky>
0.203 

> <ROCS_RefTverskyCombo>
0.524 

> <ROCS_FitTversky>
1.615 

> <ROCS_FitColorTversky>
0.751 

> <ROCS_FitTverskyCombo>
2.366 

> <ROCS_ColorScore>
-6.199

> <ROCS_Overlap>
2226.215

> <ROCS_Rank>
66                  

$$$$
untitled-dbase-871_396
  -OEChem-11132311063D

 46 49  0     1  0  0  0  0  0999 V2000
   14.1939   15.6975   18.9497 C   0  0  0  0  0  0  0  0  0  0  0  0
   14.0838   16.0509   20.2945 C   0  0  0  0  0  0  0  0  0  0  0  0
   13.0789   15.2209   18.2603 C   0  0  0  0  0  0  0  0  0  0  0  0
   12.8588   15.9274   20.9501 C   0  0  0  0  0  0  0  0  0  0  0  0
   11.8539   15.0974   18.9158 C   0  0  0  0  0  0  0  0  0  0  0  0
   11.7438   15.4507   20.2607 C   0  0  0  0  0  0  0  0  0  0  0  0
   10.4712   13.8394   23.0177 C   0  0  0  0  0  0  0  0  0  0  0  0
    6.7198   13.2050   25.1224 C   0  0  0  0  0  0  0  0  0  0  0  0
    6.3737   12.0455   26.0492 C   0  0  0  0  0  0  0  0  0  0  0  0
    8.1260   13.0726   24.5352 C   0  0  0  0  0  0  0  0  0  0  0  0
    6.5789   10.7033   25.3598 C   0  0  0  0  0  0  0  0  0  0  0  0
    9.8041   10.1963   22.6699 C   0  0  0  0  0  0  0  0  0  0  0  0
    9.4188    9.0998   23.6549 C   0  0  0  0  0  0  0  0  0  0  0  0
    8.3222   11.7215   23.8208 C   0  0  2  0  0  0  0  0  0  0  0  0
    7.9964   10.5742   24.8024 C   0  0  2  0  0  0  0  0  0  0  0  0
   10.4219   15.3171   20.9673 C   0  0  0  0  0  0  0  0  0  0  0  0
   10.0942   12.5537   22.3402 C   0  0  0  0  0  0  0  0  0  0  0  0
   10.7283   14.0339   24.2907 N   0  0  0  0  0  0  0  0  0  0  0  0
   11.0205   15.3738   24.4100 N   0  0  0  0  0  0  0  0  0  0  0  0
   10.9445   15.9852   23.2342 N   0  0  0  0  0  0  0  0  0  0  0  0
   10.6008   15.0240   22.3655 N   0  0  0  0  0  0  0  0  0  0  0  0
    9.6963   11.5238   23.3020 N   0  0  2  0  0  0  0  0  0  0  0  0
    8.0934    9.3123   24.1360 O   0  0  0  0  0  0  0  0  0  0  0  0
   15.1475   15.7950   18.4391 H   0  0  0  0  0  0  0  0  0  0  0  0
   14.9517   16.4231   20.8312 H   0  0  0  0  0  0  0  0  0  0  0  0
   13.1640   14.9467   17.2129 H   0  0  0  0  0  0  0  0  0  0  0  0
   12.7825   16.2050   21.9981 H   0  0  0  0  0  0  0  0  0  0  0  0
   10.9906   14.7250   18.3707 H   0  0  0  0  0  0  0  0  0  0  0  0
    5.9891   13.2474   24.3052 H   0  0  0  0  0  0  0  0  0  0  0  0
    6.6386   14.1506   25.6705 H   0  0  0  0  0  0  0  0  0  0  0  0
    7.0023   12.0955   26.9466 H   0  0  0  0  0  0  0  0  0  0  0  0
    5.3337   12.1359   26.3822 H   0  0  0  0  0  0  0  0  0  0  0  0
    8.2766   13.9065   23.8408 H   0  0  0  0  0  0  0  0  0  0  0  0
    8.8666   13.1836   25.3377 H   0  0  0  0  0  0  0  0  0  0  0  0
    6.3812    9.8859   26.0635 H   0  0  0  0  0  0  0  0  0  0  0  0
    5.8484   10.5806   24.5494 H   0  0  0  0  0  0  0  0  0  0  0  0
   10.8326   10.0182   22.3344 H   0  0  0  0  0  0  0  0  0  0  0  0
    9.1478   10.1432   21.7911 H   0  0  0  0  0  0  0  0  0  0  0  0
    9.4397    8.1258   23.1558 H   0  0  0  0  0  0  0  0  0  0  0  0
   10.1149    9.0527   24.5012 H   0  0  0  0  0  0  0  0  0  0  0  0
    7.6207   11.6692   22.9747 H   0  0  0  0  0  0  0  0  0  0  0  0
    8.7015   10.5789   25.6462 H   0  0  0  0  0  0  0  0  0  0  0  0
    9.8327   16.2382   20.8825 H   0  0  0  0  0  0  0  0  0  0  0  0
    9.8151   14.5179   20.5247 H   0  0  0  0  0  0  0  0  0  0  0  0
    9.2584   12.7116   21.6500 H   0  0  0  0  0  0  0  0  0  0  0  0
   10.9303   12.1588   21.7536 H   0  0  0  0  0  0  0  0  0  0  0  0
  1  2  2  0  0  0  0
  1  3  1  0  0  0  0
  2  4  1  0  0  0  0
  3  5  2  0  0  0  0
  4  6  2  0  0  0  0
  5  6  1  0  0  0  0
  6 16  1  0  0  0  0
  7 17  1  0  0  0  0
  7 18  2  0  0  0  0
  7 21  1  0  0  0  0
  8  9  1  0  0  0  0
  8 10  1  0  0  0  0
  9 11  1  0  0  0  0
 10 14  1  0  0  0  0
 11 15  1  0  0  0  0
 12 13  1  0  0  0  0
 12 22  1  0  0  0  0
 13 23  1  0  0  0  0
 14 15  1  0  0  0  0
 14 22  1  0  0  0  0
 15 23  1  0  0  0  0
 16 21  1  0  0  0  0
 17 22  1  0  0  0  0
 18 19  1  0  0  0  0
 19 20  2  0  0  0  0
 20 21  1  0  0  0  0
  1 24  1  0  0  0  0
  2 25  1  0  0  0  0
  3 26  1  0  0  0  0
  4 27  1  0  0  0  0
  5 28  1  0  0  0  0
  8 29  1  0  0  0  0
  8 30  1  0  0  0  0
  9 31  1  0  0  0  0
  9 32  1  0  0  0  0
 10 33  1  0  0  0  0
 10 34  1  0  0  0  0
 11 35  1  0  0  0  0
 11 36  1  0  0  0  0
 12 37  1  0  0  0  0
 12 38  1  0  0  0  0
 13 39  1  0  0  0  0
 13 40  1  0  0  0  0
 14 41  1  0  0  0  0
 15 42  1  0  0  0  0
 16 43  1  0  0  0  0
 16 44  1  0  0  0  0
 17 45  1  0  0  0  0
 17 46  1  0  0  0  0
M  END
> <Catalog ID>
Z644684336

> <PlateID>
1041831-R-11

> <Well>
H02

> <MW (desalted)>
313.397

> <ClogP>
2.440

> <HBD>
0

> <TPSA>
56.070

> <RotBonds>
4

> <ROCS_ShapeQuery>
A71EV2A-x0451_0A_A71EV2A-x0310_0A_A71EV2A-x0416_0A_peptide

> <ROCS_TanimotoCombo>
0.555 

> <ROCS_ShapeTanimoto>
0.365 

> <ROCS_ColorTanimoto>
0.191 

> <ROCS_RefTversky>
0.319 

> <ROCS_RefColorTversky>
0.217 

> <ROCS_RefTverskyCombo>
0.536 

> <ROCS_FitTversky>
1.637 

> <ROCS_FitColorTversky>
0.616 

> <ROCS_FitTverskyCombo>
2.253 

> <ROCS_ColorScore>
-6.630

> <ROCS_Overlap>
2218.618

> <ROCS_Rank>
67                  

$$$$
untitled-dbase-1708_826
  -OEChem-11132311063D

 40 42  0     0  0  0  0  0  0999 V2000
   12.2101   15.3775   18.8156 C   0  0  0  0  0  0  0  0  0  0  0  0
   13.2998   16.6937   20.5236 C   0  0  0  0  0  0  0  0  0  0  0  0
   13.3664   15.4300   18.0373 C   0  0  0  0  0  0  0  0  0  0  0  0
   14.4562   16.7462   19.7453 C   0  0  0  0  0  0  0  0  0  0  0  0
    9.7762   11.3069   23.0158 C   0  0  0  0  0  0  0  0  0  0  0  0
    8.1811   11.9056   24.6854 C   0  0  0  0  0  0  0  0  0  0  0  0
    9.2173   12.2929   23.8280 C   0  0  0  0  0  0  0  0  0  0  0  0
   12.1767   16.0094   20.0587 C   0  0  0  0  0  0  0  0  0  0  0  0
   14.4895   16.1144   18.5022 C   0  0  0  0  0  0  0  0  0  0  0  0
    9.2829   10.0098   23.0983 C   0  0  0  0  0  0  0  0  0  0  0  0
    7.3421   12.4990   25.6451 C   0  0  0  0  0  0  0  0  0  0  0  0
    7.7819   10.5779   24.6706 C   0  0  0  0  0  0  0  0  0  0  0  0
    9.7011   13.6599   23.7760 C   0  0  0  0  0  0  0  0  0  0  0  0
   10.9135   15.9826   22.2377 C   0  0  0  0  0  0  0  0  0  0  0  0
    9.8916    8.9628   22.2215 C   0  0  0  0  0  0  0  0  0  0  0  0
    7.3110   13.9034   26.0868 C   0  0  0  0  0  0  0  0  0  0  0  0
    9.4642   15.9037   22.6770 C   0  0  0  0  0  0  0  0  0  0  0  0
    8.2845    9.5878   23.9102 N   0  0  0  0  0  0  0  0  0  0  0  0
    6.4908   11.6224   26.1854 N   0  0  0  0  0  0  0  0  0  0  0  0
   11.0036   15.9557   20.8485 N   0  0  0  0  0  0  0  0  0  0  0  0
    9.0806   14.5227   22.8627 N   0  0  0  0  0  0  0  0  0  0  0  0
   10.6422   14.0282   24.5040 O   0  0  0  0  0  0  0  0  0  0  0  0
   11.8366   16.0680   23.0414 O   0  0  0  0  0  0  0  0  0  0  0  0
    6.7705   10.4098   25.5685 O   0  0  0  0  0  0  0  0  0  0  0  0
   15.9163   16.1790   17.5417 Cl  0  0  0  0  0  0  0  0  0  0  0  0
   11.3406   14.8417   18.4436 H   0  0  0  0  0  0  0  0  0  0  0  0
   13.2847   17.1896   21.4907 H   0  0  0  0  0  0  0  0  0  0  0  0
   13.3784   14.9330   17.0708 H   0  0  0  0  0  0  0  0  0  0  0  0
   15.3239   17.2831   20.1198 H   0  0  0  0  0  0  0  0  0  0  0  0
   10.5832   11.5496   22.3300 H   0  0  0  0  0  0  0  0  0  0  0  0
   10.7331    8.4832   22.7335 H   0  0  0  0  0  0  0  0  0  0  0  0
    9.1568    8.1933   21.9573 H   0  0  0  0  0  0  0  0  0  0  0  0
   10.2535    9.3967   21.2818 H   0  0  0  0  0  0  0  0  0  0  0  0
    6.6155   14.5013   25.4731 H   0  0  0  0  0  0  0  0  0  0  0  0
    6.9937   14.0026   27.1403 H   0  0  0  0  0  0  0  0  0  0  0  0
    8.3047   14.3824   26.0248 H   0  0  0  0  0  0  0  0  0  0  0  0
    8.8224   16.3628   21.9185 H   0  0  0  0  0  0  0  0  0  0  0  0
    9.3470   16.4515   23.6173 H   0  0  0  0  0  0  0  0  0  0  0  0
   10.1318   15.8903   20.3274 H   0  0  0  0  0  0  0  0  0  0  0  0
    8.3610   14.1569   22.2478 H   0  0  0  0  0  0  0  0  0  0  0  0
  1  3  1  0  0  0  0
  1  8  2  0  0  0  0
  2  4  2  0  0  0  0
  2  8  1  0  0  0  0
  3  9  2  0  0  0  0
  4  9  1  0  0  0  0
  5  7  1  0  0  0  0
  5 10  2  0  0  0  0
  6  7  2  0  0  0  0
  6 11  1  0  0  0  0
  6 12  1  0  0  0  0
  7 13  1  0  0  0  0
  8 20  1  0  0  0  0
  9 25  1  0  0  0  0
 10 15  1  0  0  0  0
 10 18  1  0  0  0  0
 11 16  1  0  0  0  0
 11 19  2  0  0  0  0
 12 18  2  0  0  0  0
 12 24  1  0  0  0  0
 13 21  1  0  0  0  0
 13 22  2  0  0  0  0
 14 17  1  0  0  0  0
 14 20  1  0  0  0  0
 14 23  2  0  0  0  0
 17 21  1  0  0  0  0
 19 24  1  0  0  0  0
  1 26  1  0  0  0  0
  2 27  1  0  0  0  0
  3 28  1  0  0  0  0
  4 29  1  0  0  0  0
  5 30  1  0  0  0  0
 15 31  1  0  0  0  0
 15 32  1  0  0  0  0
 15 33  1  0  0  0  0
 16 34  1  0  0  0  0
 16 35  1  0  0  0  0
 16 36  1  0  0  0  0
 17 37  1  0  0  0  0
 17 38  1  0  0  0  0
 20 39  1  0  0  0  0
 21 40  1  0  0  0  0
M  END
> <Catalog ID>
Z806713872

> <PlateID>
1041831-R-22

> <Well>
C09

> <MW (desalted)>
358.779

> <ClogP>
2.949

> <HBD>
2

> <TPSA>
97.120

> <RotBonds>
4

> <ROCS_ShapeQuery>
A71EV2A-x0451_0A_A71EV2A-x0310_0A_A71EV2A-x0416_0A_peptide

> <ROCS_TanimotoCombo>
0.555 

> <ROCS_ShapeTanimoto>
0.335 

> <ROCS_ColorTanimoto>
0.220 

> <ROCS_RefTversky>
0.303 

> <ROCS_RefColorTversky>
0.240 

> <ROCS_RefTverskyCombo>
0.543 

> <ROCS_FitTversky>
1.459 

> <ROCS_FitColorTversky>
0.723 

> <ROCS_FitTverskyCombo>
2.182 

> <ROCS_ColorScore>
-7.345

> <ROCS_Overlap>
2108.368

> <ROCS_Rank>
68                  

$$$$
untitled-dbase-1401_14043
  -OEChem-11132311063D

 47 50  0     0  0  0  0  0  0999 V2000
    4.1302   12.3190   28.6639 C   0  0  0  0  0  0  0  0  0  0  0  0
    4.9700   13.3918   28.3649 C   0  0  0  0  0  0  0  0  0  0  0  0
    4.2908   11.1019   28.0016 C   0  0  0  0  0  0  0  0  0  0  0  0
    8.4530    7.9700   22.1053 C   0  0  0  0  0  0  0  0  0  0  0  0
    7.9522    8.9524   22.9522 C   0  0  0  0  0  0  0  0  0  0  0  0
    5.9703   13.2477   27.4036 C   0  0  0  0  0  0  0  0  0  0  0  0
    5.2911   10.9577   27.0402 C   0  0  0  0  0  0  0  0  0  0  0  0
    9.8005    8.0145   21.7856 C   0  0  0  0  0  0  0  0  0  0  0  0
   10.1340    9.8919   23.0672 C   0  0  0  0  0  0  0  0  0  0  0  0
    8.0048   12.8565   25.4072 C   0  0  0  0  0  0  0  0  0  0  0  0
   12.1272   15.2330   19.1448 C   0  0  0  0  0  0  0  0  0  0  0  0
    8.8022    9.9354   23.4467 C   0  0  0  0  0  0  0  0  0  0  0  0
    8.8010   12.2820   24.4468 C   0  0  0  0  0  0  0  0  0  0  0  0
    6.1309   12.0306   26.7412 C   0  0  0  0  0  0  0  0  0  0  0  0
    8.3131   10.9670   24.3257 C   0  0  0  0  0  0  0  0  0  0  0  0
   12.1619   15.1366   20.5202 C   0  0  0  0  0  0  0  0  0  0  0  0
   14.1240   16.0645   20.2050 C   0  0  0  0  0  0  0  0  0  0  0  0
    9.8746   12.9354   23.7595 C   0  0  0  0  0  0  0  0  0  0  0  0
   15.4532   16.6530   20.4782 C   0  0  0  0  0  0  0  0  0  0  0  0
   11.0711   14.5637   21.3913 C   0  0  0  0  0  0  0  0  0  0  0  0
   11.2260   13.0638   21.6304 C   0  0  0  0  0  0  0  0  0  0  0  0
   10.6569    8.9535   22.2464 N   0  0  0  0  0  0  0  0  0  0  0  0
    7.2866   10.7205   25.1439 N   0  0  0  0  0  0  0  0  0  0  0  0
   13.3063   15.6125   21.1298 N   0  0  0  0  0  0  0  0  0  0  0  0
    7.1230   11.8884   25.7884 N   0  0  0  0  0  0  0  0  0  0  0  0
   10.1627   12.5191   22.4437 N   0  0  0  0  0  0  0  0  0  0  0  0
   10.5529   13.8348   24.3128 O   0  0  0  0  0  0  0  0  0  0  0  0
   13.5803   15.9488   18.5814 S   0  0  0  0  0  0  0  0  0  0  0  0
    3.3523   12.4302   29.4135 H   0  0  0  0  0  0  0  0  0  0  0  0
    4.8460   14.3391   28.8814 H   0  0  0  0  0  0  0  0  0  0  0  0
    3.6373   10.2665   28.2360 H   0  0  0  0  0  0  0  0  0  0  0  0
    7.8086    7.1943   21.7075 H   0  0  0  0  0  0  0  0  0  0  0  0
    6.8981    8.9386   23.2178 H   0  0  0  0  0  0  0  0  0  0  0  0
    6.6186   14.0916   27.1806 H   0  0  0  0  0  0  0  0  0  0  0  0
    5.4058   10.0033   26.5321 H   0  0  0  0  0  0  0  0  0  0  0  0
   10.2393    7.2711   21.1285 H   0  0  0  0  0  0  0  0  0  0  0  0
   10.8493   10.6304   23.4181 H   0  0  0  0  0  0  0  0  0  0  0  0
    7.9946   13.8491   25.8388 H   0  0  0  0  0  0  0  0  0  0  0  0
   11.3450   14.9291   18.4635 H   0  0  0  0  0  0  0  0  0  0  0  0
   16.2357   15.8782   20.4744 H   0  0  0  0  0  0  0  0  0  0  0  0
   15.7274   17.4137   19.7292 H   0  0  0  0  0  0  0  0  0  0  0  0
   15.4846   17.1600   21.4566 H   0  0  0  0  0  0  0  0  0  0  0  0
   10.1040   14.7561   20.9096 H   0  0  0  0  0  0  0  0  0  0  0  0
   11.0424   15.0979   22.3496 H   0  0  0  0  0  0  0  0  0  0  0  0
   11.1986   12.5291   20.6757 H   0  0  0  0  0  0  0  0  0  0  0  0
   12.1739   12.8294   22.1258 H   0  0  0  0  0  0  0  0  0  0  0  0
    9.6333   11.7460   22.0541 H   0  0  0  0  0  0  0  0  0  0  0  0
  1  2  2  0  0  0  0
  1  3  1  0  0  0  0
  2  6  1  0  0  0  0
  3  7  2  0  0  0  0
  4  5  1  0  0  0  0
  4  8  2  0  0  0  0
  5 12  2  0  0  0  0
  6 14  2  0  0  0  0
  7 14  1  0  0  0  0
  8 22  1  0  0  0  0
  9 12  1  0  0  0  0
  9 22  2  0  0  0  0
 10 13  2  0  0  0  0
 10 25  1  0  0  0  0
 11 16  2  0  0  0  0
 11 28  1  0  0  0  0
 12 15  1  0  0  0  0
 13 15  1  0  0  0  0
 13 18  1  0  0  0  0
 14 25  1  0  0  0  0
 15 23  2  0  0  0  0
 16 20  1  0  0  0  0
 16 24  1  0  0  0  0
 17 19  1  0  0  0  0
 17 24  2  0  0  0  0
 17 28  1  0  0  0  0
 18 26  1  0  0  0  0
 18 27  2  0  0  0  0
 20 21  1  0  0  0  0
 21 26  1  0  0  0  0
 23 25  1  0  0  0  0
  1 29  1  0  0  0  0
  2 30  1  0  0  0  0
  3 31  1  0  0  0  0
  4 32  1  0  0  0  0
  5 33  1  0  0  0  0
  6 34  1  0  0  0  0
  7 35  1  0  0  0  0
  8 36  1  0  0  0  0
  9 37  1  0  0  0  0
 10 38  1  0  0  0  0
 11 39  1  0  0  0  0
 19 40  1  0  0  0  0
 19 41  1  0  0  0  0
 19 42  1  0  0  0  0
 20 43  1  0  0  0  0
 20 44  1  0  0  0  0
 21 45  1  0  0  0  0
 21 46  1  0  0  0  0
 26 47  1  0  0  0  0
M  END
> <Catalog ID>
Z243542690

> <PlateID>
1041831-R-18

> <Well>
E02

> <MW (desalted)>
389.473

> <ClogP>
2.446

> <HBD>
1

> <TPSA>
72.700

> <RotBonds>
6

> <ROCS_ShapeQuery>
A71EV2A-x0451_0A_A71EV2A-x0310_0A_A71EV2A-x0416_0A_peptide

> <ROCS_TanimotoCombo>
0.555 

> <ROCS_ShapeTanimoto>
0.375 

> <ROCS_ColorTanimoto>
0.180 

> <ROCS_RefTversky>
0.335 

> <ROCS_RefColorTversky>
0.203 

> <ROCS_RefTverskyCombo>
0.538 

> <ROCS_FitTversky>
1.475 

> <ROCS_FitColorTversky>
0.612 

> <ROCS_FitTverskyCombo>
2.087 

> <ROCS_ColorScore>
-6.207

> <ROCS_Overlap>
2329.963

> <ROCS_Rank>
69                  

$$$$
untitled-dbase-1459_3541
  -OEChem-11132311063D

 46 48  0     1  0  0  0  0  0999 V2000
    7.6836    9.8377   24.1069 C   0  0  0  0  0  0  0  0  0  0  0  0
    7.2819   10.4427   25.2978 C   0  0  0  0  0  0  0  0  0  0  0  0
    8.6374   10.4554   23.2979 C   0  0  0  0  0  0  0  0  0  0  0  0
   12.7353   16.0833   18.4229 C   0  0  0  0  0  0  0  0  0  0  0  0
   11.9060   15.7383   19.5168 C   0  0  0  0  0  0  0  0  0  0  0  0
    8.7876   12.2832   24.8707 C   0  0  0  0  0  0  0  0  0  0  0  0
    7.8339   11.6654   25.6797 C   0  0  0  0  0  0  0  0  0  0  0  0
    9.1893   11.6781   23.6798 C   0  0  0  0  0  0  0  0  0  0  0  0
   14.0298   15.9526   18.8689 C   0  0  0  0  0  0  0  0  0  0  0  0
   12.7530   15.4210   20.5531 C   0  0  0  0  0  0  0  0  0  0  0  0
    4.4769   10.4074   28.1554 C   0  0  0  0  0  0  0  0  0  0  0  0
    5.7210   10.7559   27.8297 C   0  0  0  0  0  0  0  0  0  0  0  0
    3.4711   11.4453   27.9010 C   0  0  0  0  0  0  0  0  0  0  0  0
    5.0089   12.9538   27.0737 C   0  0  0  0  0  0  0  0  0  0  0  0
   10.8130   13.5181   23.0805 C   0  0  0  0  0  0  0  0  0  0  0  0
   15.3386   16.1586   18.2327 C   0  0  0  0  0  0  0  0  0  0  0  0
   13.8247   14.7600   22.7455 C   0  0  0  0  0  0  0  0  0  0  0  0
    7.4012   12.3162   26.9616 C   0  0  0  0  0  0  0  0  0  0  0  0
   12.5203   14.9756   21.9807 C   0  0  2  0  0  0  0  0  0  0  0  0
    3.7057   12.6153   27.4058 N   0  0  0  0  0  0  0  0  0  0  0  0
    6.0187   11.9941   27.2978 N   0  0  0  0  0  0  0  0  0  0  0  0
   10.1438   12.2954   22.8707 N   0  0  0  0  0  0  0  0  0  0  0  0
   11.6986   13.7884   22.0323 N   0  0  0  0  0  0  0  0  0  0  0  0
    5.2617   14.0624   26.5988 O   0  0  0  0  0  0  0  0  0  0  0  0
   10.6622   14.2677   24.0423 O   0  0  0  0  0  0  0  0  0  0  0  0
   14.0493   15.5491   20.1663 O   0  0  0  0  0  0  0  0  0  0  0  0
    7.2541    8.8854   23.8097 H   0  0  0  0  0  0  0  0  0  0  0  0
    6.5379    9.9542   25.9209 H   0  0  0  0  0  0  0  0  0  0  0  0
    8.9428    9.9748   22.3719 H   0  0  0  0  0  0  0  0  0  0  0  0
   12.4255   16.3889   17.4338 H   0  0  0  0  0  0  0  0  0  0  0  0
   10.8258   15.7235   19.5429 H   0  0  0  0  0  0  0  0  0  0  0  0
    9.2161   13.2371   25.1702 H   0  0  0  0  0  0  0  0  0  0  0  0
    4.1993    9.4511   28.5731 H   0  0  0  0  0  0  0  0  0  0  0  0
    6.5509   10.0726   27.9721 H   0  0  0  0  0  0  0  0  0  0  0  0
    2.4364   11.1743   28.1651 H   0  0  0  0  0  0  0  0  0  0  0  0
   15.6920   17.1969   18.3634 H   0  0  0  0  0  0  0  0  0  0  0  0
   16.1168   15.4909   18.6467 H   0  0  0  0  0  0  0  0  0  0  0  0
   15.3147   15.9526   17.1464 H   0  0  0  0  0  0  0  0  0  0  0  0
   14.4432   13.9953   22.2629 H   0  0  0  0  0  0  0  0  0  0  0  0
   14.4041   15.6892   22.7860 H   0  0  0  0  0  0  0  0  0  0  0  0
   13.6463   14.4467   23.7803 H   0  0  0  0  0  0  0  0  0  0  0  0
    8.0353   11.9903   27.7933 H   0  0  0  0  0  0  0  0  0  0  0  0
    7.4847   13.4062   26.8967 H   0  0  0  0  0  0  0  0  0  0  0  0
   11.9479   15.7476   22.5095 H   0  0  0  0  0  0  0  0  0  0  0  0
   10.4020   11.8059   22.0074 H   0  0  0  0  0  0  0  0  0  0  0  0
   11.7671   13.1191   21.2721 H   0  0  0  0  0  0  0  0  0  0  0  0
  1  2  2  0  0  0  0
  1  3  1  0  0  0  0
  2  7  1  0  0  0  0
  3  8  2  0  0  0  0
  4  5  1  0  0  0  0
  4  9  2  0  0  0  0
  5 10  2  0  0  0  0
  6  7  2  0  0  0  0
  6  8  1  0  0  0  0
  7 18  1  0  0  0  0
  8 22  1  0  0  0  0
  9 16  1  0  0  0  0
  9 26  1  0  0  0  0
 10 19  1  0  0  0  0
 10 26  1  0  0  0  0
 11 12  2  0  0  0  0
 11 13  1  0  0  0  0
 12 21  1  0  0  0  0
 13 20  2  0  0  0  0
 14 20  1  0  0  0  0
 14 21  1  0  0  0  0
 14 24  2  0  0  0  0
 15 22  1  0  0  0  0
 15 23  1  0  0  0  0
 15 25  2  0  0  0  0
 17 19  1  0  0  0  0
 18 21  1  0  0  0  0
 19 23  1  0  0  0  0
  1 27  1  0  0  0  0
  2 28  1  0  0  0  0
  3 29  1  0  0  0  0
  4 30  1  0  0  0  0
  5 31  1  0  0  0  0
  6 32  1  0  0  0  0
 11 33  1  0  0  0  0
 12 34  1  0  0  0  0
 13 35  1  0  0  0  0
 16 36  1  0  0  0  0
 16 37  1  0  0  0  0
 16 38  1  0  0  0  0
 17 39  1  0  0  0  0
 17 40  1  0  0  0  0
 17 41  1  0  0  0  0
 18 42  1  0  0  0  0
 18 43  1  0  0  0  0
 19 44  1  0  0  0  0
 22 45  1  0  0  0  0
 23 46  1  0  0  0  0
M  END
> <Catalog ID>
Z595929190

> <PlateID>
1041831-R-19

> <Well>
B10

> <MW (desalted)>
352.387

> <ClogP>
1.306

> <HBD>
2

> <TPSA>
86.940

> <RotBonds>
5

> <ROCS_ShapeQuery>
A71EV2A-x0451_0A_A71EV2A-x0310_0A_A71EV2A-x0416_0A_peptide

> <ROCS_TanimotoCombo>
0.555 

> <ROCS_ShapeTanimoto>
0.326 

> <ROCS_ColorTanimoto>
0.229 

> <ROCS_RefTversky>
0.298 

> <ROCS_RefColorTversky>
0.254 

> <ROCS_RefTverskyCombo>
0.552 

> <ROCS_FitTversky>
1.395 

> <ROCS_FitColorTversky>
0.701 

> <ROCS_FitTverskyCombo>
2.096 

> <ROCS_ColorScore>
-7.783

> <ROCS_Overlap>
2074.071

> <ROCS_Rank>
70                  

$$$$
untitled-dbase-2690_1357
  -OEChem-11132311063D

 41 43  0     1  0  0  0  0  0999 V2000
    7.0161   12.8586   25.6317 C   0  0  0  0  0  0  0  0  0  0  0  0
    6.7368   11.6824   26.3248 C   0  0  0  0  0  0  0  0  0  0  0  0
    7.8601   12.8489   24.5152 C   0  0  0  0  0  0  0  0  0  0  0  0
    7.2900   10.4622   25.9261 C   0  0  0  0  0  0  0  0  0  0  0  0
    9.5181    9.9023   23.1264 C   0  0  0  0  0  0  0  0  0  0  0  0
    8.4296   11.6306   24.0947 C   0  0  0  0  0  0  0  0  0  0  0  0
    9.3049   11.2585   23.0363 C   0  0  0  0  0  0  0  0  0  0  0  0
    8.1320   10.4677   24.8084 C   0  0  0  0  0  0  0  0  0  0  0  0
   13.1373   15.4492   20.4829 C   0  0  0  0  0  0  0  0  0  0  0  0
   14.1305   16.3745   20.2780 C   0  0  0  0  0  0  0  0  0  0  0  0
   13.1145   16.1254   18.4535 C   0  0  0  0  0  0  0  0  0  0  0  0
   12.7025   14.6681   21.6694 C   0  0  0  0  0  0  0  0  0  0  0  0
   10.6615   13.8684   23.7150 C   0  0  0  0  0  0  0  0  0  0  0  0
   15.1200   16.8995   21.2302 C   0  0  0  0  0  0  0  0  0  0  0  0
   12.6048   16.1596   17.0743 C   0  0  0  0  0  0  0  0  0  0  0  0
    9.8875   12.1574   22.0193 C   0  0  0  0  0  0  0  0  0  0  0  0
   11.0758   13.0051   22.5324 C   0  0  1  0  0  0  0  0  0  0  0  0
   14.1110   16.8040   18.9756 N   0  0  0  0  0  0  0  0  0  0  0  0
    8.8063    9.4342   24.1982 N   0  0  0  0  0  0  0  0  0  0  0  0
   11.6287   13.8110   21.4728 N   0  0  0  0  0  0  0  0  0  0  0  0
   13.2833   14.8291   22.7395 O   0  0  0  0  0  0  0  0  0  0  0  0
   10.7561   13.4948   24.8796 O   0  0  0  0  0  0  0  0  0  0  0  0
   12.4725   15.2804   19.3060 O   0  0  0  0  0  0  0  0  0  0  0  0
   10.1833   15.0923   23.3860 O   0  0  0  0  0  0  0  0  0  0  0  0
    6.5736   13.7951   25.9604 H   0  0  0  0  0  0  0  0  0  0  0  0
    6.0786   11.7130   27.1892 H   0  0  0  0  0  0  0  0  0  0  0  0
    8.0673   13.7742   23.9850 H   0  0  0  0  0  0  0  0  0  0  0  0
    7.0729    9.5474   26.4669 H   0  0  0  0  0  0  0  0  0  0  0  0
   10.1107    9.2275   22.5241 H   0  0  0  0  0  0  0  0  0  0  0  0
   16.0406   16.2893   21.2325 H   0  0  0  0  0  0  0  0  0  0  0  0
   15.4141   17.9399   20.9990 H   0  0  0  0  0  0  0  0  0  0  0  0
   14.7351   16.9203   22.2666 H   0  0  0  0  0  0  0  0  0  0  0  0
   13.1144   15.4147   16.4381 H   0  0  0  0  0  0  0  0  0  0  0  0
   11.5204   15.9517   17.0230 H   0  0  0  0  0  0  0  0  0  0  0  0
   12.7433   17.1490   16.6009 H   0  0  0  0  0  0  0  0  0  0  0  0
    9.1032   12.8372   21.6291 H   0  0  0  0  0  0  0  0  0  0  0  0
   10.2172   11.5923   21.1225 H   0  0  0  0  0  0  0  0  0  0  0  0
   11.8909   12.3594   22.8790 H   0  0  0  0  0  0  0  0  0  0  0  0
    8.7793    8.4696   24.4987 H   0  0  0  0  0  0  0  0  0  0  0  0
   11.1600   13.7797   20.5714 H   0  0  0  0  0  0  0  0  0  0  0  0
   10.1547   15.2784   22.4239 H   0  0  0  0  0  0  0  0  0  0  0  0
  1  2  2  0  0  0  0
  1  3  1  0  0  0  0
  2  4  1  0  0  0  0
  3  6  2  0  0  0  0
  4  8  2  0  0  0  0
  5  7  2  0  0  0  0
  5 19  1  0  0  0  0
  6  7  1  0  0  0  0
  6  8  1  0  0  0  0
  7 16  1  0  0  0  0
  8 19  1  0  0  0  0
  9 10  2  0  0  0  0
  9 12  1  0  0  0  0
  9 23  1  0  0  0  0
 10 14  1  0  0  0  0
 10 18  1  0  0  0  0
 11 15  1  0  0  0  0
 11 18  2  0  0  0  0
 11 23  1  0  0  0  0
 12 20  1  0  0  0  0
 12 21  2  0  0  0  0
 13 17  1  0  0  0  0
 13 22  2  0  0  0  0
 13 24  1  0  0  0  0
 16 17  1  0  0  0  0
 17 20  1  0  0  0  0
  1 25  1  0  0  0  0
  2 26  1  0  0  0  0
  3 27  1  0  0  0  0
  4 28  1  0  0  0  0
  5 29  1  0  0  0  0
 14 30  1  0  0  0  0
 14 31  1  0  0  0  0
 14 32  1  0  0  0  0
 15 33  1  0  0  0  0
 15 34  1  0  0  0  0
 15 35  1  0  0  0  0
 16 36  1  0  0  0  0
 16 37  1  0  0  0  0
 17 38  1  0  0  0  0
 19 39  1  0  0  0  0
 20 40  1  0  0  0  0
 24 41  1  0  0  0  0
M  END
> <Catalog ID>
Z1444491195

> <PlateID>
1041831-R-34

> <Well>
E11

> <MW (desalted)>
327.335

> <ClogP>
0.992

> <HBD>
3

> <TPSA>
108.220

> <RotBonds>
5

> <ROCS_ShapeQuery>
A71EV2A-x0451_0A_A71EV2A-x0310_0A_A71EV2A-x0416_0A_peptide

> <ROCS_TanimotoCombo>
0.554 

> <ROCS_ShapeTanimoto>
0.357 

> <ROCS_ColorTanimoto>
0.197 

> <ROCS_RefTversky>
0.316 

> <ROCS_RefColorTversky>
0.224 

> <ROCS_RefTverskyCombo>
0.541 

> <ROCS_FitTversky>
1.560 

> <ROCS_FitColorTversky>
0.618 

> <ROCS_FitTverskyCombo>
2.178 

> <ROCS_ColorScore>
-6.869

> <ROCS_Overlap>
2199.816

> <ROCS_Rank>
71                  

$$$$
untitled-dbase-2210_1582
  -OEChem-11132311063D

 36 38  0     1  0  0  0  0  0999 V2000
    7.0150   12.8583   25.6255 C   0  0  0  0  0  0  0  0  0  0  0  0
    6.7349   11.6818   26.3175 C   0  0  0  0  0  0  0  0  0  0  0  0
    7.8615   12.8495   24.5108 C   0  0  0  0  0  0  0  0  0  0  0  0
    7.2895   10.4620   25.9196 C   0  0  0  0  0  0  0  0  0  0  0  0
   14.1523   16.3775   20.3288 C   0  0  0  0  0  0  0  0  0  0  0  0
   14.0939   16.7893   18.9759 C   0  0  0  0  0  0  0  0  0  0  0  0
    9.5239    9.9043   23.1244 C   0  0  0  0  0  0  0  0  0  0  0  0
    8.4324   11.6317   24.0910 C   0  0  0  0  0  0  0  0  0  0  0  0
    9.3102   11.2604   23.0343 C   0  0  0  0  0  0  0  0  0  0  0  0
    8.1339   10.4683   24.8036 C   0  0  0  0  0  0  0  0  0  0  0  0
   13.1459   15.4540   20.4907 C   0  0  0  0  0  0  0  0  0  0  0  0
   13.0561   16.0878   18.4075 C   0  0  0  0  0  0  0  0  0  0  0  0
   12.7089   14.6722   21.6760 C   0  0  0  0  0  0  0  0  0  0  0  0
   10.6641   13.8707   23.7170 C   0  0  0  0  0  0  0  0  0  0  0  0
    9.8945   12.1600   22.0189 C   0  0  0  0  0  0  0  0  0  0  0  0
   11.0813   13.0081   22.5349 C   0  0  1  0  0  0  0  0  0  0  0  0
    8.8100    9.4354   24.1944 N   0  0  0  0  0  0  0  0  0  0  0  0
   11.6361   13.8147   21.4768 N   0  0  0  0  0  0  0  0  0  0  0  0
   13.2874   14.8331   22.7475 O   0  0  0  0  0  0  0  0  0  0  0  0
   10.7563   13.4968   24.8816 O   0  0  0  0  0  0  0  0  0  0  0  0
   12.4731   15.2716   19.3243 O   0  0  0  0  0  0  0  0  0  0  0  0
   10.1859   15.0945   23.3875 O   0  0  0  0  0  0  0  0  0  0  0  0
   12.5265   16.1904   16.7733 Cl  0  0  0  0  0  0  0  0  0  0  0  0
    6.5714   13.7945   25.9537 H   0  0  0  0  0  0  0  0  0  0  0  0
    6.0748   11.7116   27.1806 H   0  0  0  0  0  0  0  0  0  0  0  0
    8.0693   13.7751   23.9815 H   0  0  0  0  0  0  0  0  0  0  0  0
    7.0717    9.5468   26.4596 H   0  0  0  0  0  0  0  0  0  0  0  0
   14.8433   16.7159   21.0880 H   0  0  0  0  0  0  0  0  0  0  0  0
   14.7316   17.5099   18.4835 H   0  0  0  0  0  0  0  0  0  0  0  0
   10.1181    9.2300   22.5230 H   0  0  0  0  0  0  0  0  0  0  0  0
    9.1107   12.8396   21.6274 H   0  0  0  0  0  0  0  0  0  0  0  0
   10.2264   11.5954   21.1226 H   0  0  0  0  0  0  0  0  0  0  0  0
   11.8960   12.3627   22.8830 H   0  0  0  0  0  0  0  0  0  0  0  0
    8.7829    8.4707   24.4945 H   0  0  0  0  0  0  0  0  0  0  0  0
   11.1692   13.7836   20.5744 H   0  0  0  0  0  0  0  0  0  0  0  0
   10.1592   15.2810   22.4254 H   0  0  0  0  0  0  0  0  0  0  0  0
  1  2  2  0  0  0  0
  1  3  1  0  0  0  0
  2  4  1  0  0  0  0
  3  8  2  0  0  0  0
  4 10  2  0  0  0  0
  5  6  1  0  0  0  0
  5 11  2  0  0  0  0
  6 12  2  0  0  0  0
  7  9  2  0  0  0  0
  7 17  1  0  0  0  0
  8  9  1  0  0  0  0
  8 10  1  0  0  0  0
  9 15  1  0  0  0  0
 10 17  1  0  0  0  0
 11 13  1  0  0  0  0
 11 21  1  0  0  0  0
 12 21  1  0  0  0  0
 12 23  1  0  0  0  0
 13 18  1  0  0  0  0
 13 19  2  0  0  0  0
 14 16  1  0  0  0  0
 14 20  2  0  0  0  0
 14 22  1  0  0  0  0
 15 16  1  0  0  0  0
 16 18  1  0  0  0  0
  1 24  1  0  0  0  0
  2 25  1  0  0  0  0
  3 26  1  0  0  0  0
  4 27  1  0  0  0  0
  5 28  1  0  0  0  0
  6 29  1  0  0  0  0
  7 30  1  0  0  0  0
 15 31  1  0  0  0  0
 15 32  1  0  0  0  0
 16 33  1  0  0  0  0
 17 34  1  0  0  0  0
 18 35  1  0  0  0  0
 22 36  1  0  0  0  0
M  END
> <Catalog ID>
Z352330780

> <PlateID>
1041831-R-28

> <Well>
E11

> <MW (desalted)>
332.738

> <ClogP>
2.461

> <HBD>
3

> <TPSA>
95.330

> <RotBonds>
5

> <ROCS_ShapeQuery>
A71EV2A-x0451_0A_A71EV2A-x0310_0A_A71EV2A-x0416_0A_peptide

> <ROCS_TanimotoCombo>
0.553 

> <ROCS_ShapeTanimoto>
0.356 

> <ROCS_ColorTanimoto>
0.197 

> <ROCS_RefTversky>
0.314 

> <ROCS_RefColorTversky>
0.225 

> <ROCS_RefTverskyCombo>
0.538 

> <ROCS_FitTversky>
1.606 

> <ROCS_FitColorTversky>
0.619 

> <ROCS_FitTverskyCombo>
2.224 

> <ROCS_ColorScore>
-6.877

> <ROCS_Overlap>
2180.421

> <ROCS_Rank>
72                  

$$$$
untitled-dbase-2504_5955
  -OEChem-11132311063D

 39 41  0     1  0  0  0  0  0999 V2000
    7.0165   12.6969   25.6311 C   0  0  0  0  0  0  0  0  0  0  0  0
    6.6828   11.4612   26.1821 C   0  0  0  0  0  0  0  0  0  0  0  0
    7.9319   12.7871   24.5761 C   0  0  0  0  0  0  0  0  0  0  0  0
    7.2510   10.2792   25.6984 C   0  0  0  0  0  0  0  0  0  0  0  0
    9.6533    9.9708   23.0057 C   0  0  0  0  0  0  0  0  0  0  0  0
    8.5177   11.6089   24.0719 C   0  0  0  0  0  0  0  0  0  0  0  0
    9.4575   11.3322   23.0398 C   0  0  0  0  0  0  0  0  0  0  0  0
    8.1645   10.3847   24.6435 C   0  0  0  0  0  0  0  0  0  0  0  0
   11.7918   14.5129   20.8557 C   0  0  0  0  0  0  0  0  0  0  0  0
   10.7413   14.2001   23.7313 C   0  0  0  0  0  0  0  0  0  0  0  0
   13.7319   16.4756   18.6641 C   0  0  0  0  0  0  0  0  0  0  0  0
   12.5350   15.5156   18.5316 C   0  0  0  0  0  0  0  0  0  0  0  0
   13.6071   16.3070   20.1899 C   0  0  0  0  0  0  0  0  0  0  0  0
   12.9243   14.9405   19.9188 C   0  0  0  0  0  0  0  0  0  0  0  0
   10.1128   12.3201   22.1587 C   0  0  0  0  0  0  0  0  0  0  0  0
   11.2718   13.0944   22.8306 C   0  0  1  0  0  0  0  0  0  0  0  0
    8.8689    9.4079   23.9765 N   0  0  0  0  0  0  0  0  0  0  0  0
   12.1786   13.6231   21.8425 N   0  0  0  0  0  0  0  0  0  0  0  0
   10.6647   14.9628   20.6858 O   0  0  0  0  0  0  0  0  0  0  0  0
   10.5156   15.3371   23.3302 O   0  0  0  0  0  0  0  0  0  0  0  0
   10.5279   13.8328   25.0175 O   0  0  0  0  0  0  0  0  0  0  0  0
    6.5611   13.6020   26.0238 H   0  0  0  0  0  0  0  0  0  0  0  0
    5.9696   11.4144   27.0010 H   0  0  0  0  0  0  0  0  0  0  0  0
    8.1809   13.7577   24.1568 H   0  0  0  0  0  0  0  0  0  0  0  0
    6.9915    9.3180   26.1287 H   0  0  0  0  0  0  0  0  0  0  0  0
   10.2786    9.3514   22.3776 H   0  0  0  0  0  0  0  0  0  0  0  0
   14.6653   16.0761   18.2513 H   0  0  0  0  0  0  0  0  0  0  0  0
   13.5758   17.4873   18.2820 H   0  0  0  0  0  0  0  0  0  0  0  0
   11.5646   16.0233   18.5224 H   0  0  0  0  0  0  0  0  0  0  0  0
   12.5840   14.8235   17.6882 H   0  0  0  0  0  0  0  0  0  0  0  0
   14.5534   16.2772   20.7342 H   0  0  0  0  0  0  0  0  0  0  0  0
   12.9465   17.0434   20.6599 H   0  0  0  0  0  0  0  0  0  0  0  0
   13.6740   14.1368   19.8177 H   0  0  0  0  0  0  0  0  0  0  0  0
    9.3614   13.0472   21.7897 H   0  0  0  0  0  0  0  0  0  0  0  0
   10.4960   11.8432   21.2325 H   0  0  0  0  0  0  0  0  0  0  0  0
   11.8683   12.4267   23.4629 H   0  0  0  0  0  0  0  0  0  0  0  0
    8.8145    8.4185   24.1754 H   0  0  0  0  0  0  0  0  0  0  0  0
   13.1516   13.3273   21.8721 H   0  0  0  0  0  0  0  0  0  0  0  0
   10.7447   12.8985   25.2205 H   0  0  0  0  0  0  0  0  0  0  0  0
  1  2  2  0  0  0  0
  1  3  1  0  0  0  0
  2  4  1  0  0  0  0
  3  6  2  0  0  0  0
  4  8  2  0  0  0  0
  5  7  2  0  0  0  0
  5 17  1  0  0  0  0
  6  7  1  0  0  0  0
  6  8  1  0  0  0  0
  7 15  1  0  0  0  0
  8 17  1  0  0  0  0
  9 14  1  0  0  0  0
  9 18  1  0  0  0  0
  9 19  2  0  0  0  0
 10 16  1  0  0  0  0
 10 20  2  0  0  0  0
 10 21  1  0  0  0  0
 11 12  1  0  0  0  0
 11 13  1  0  0  0  0
 12 14  1  0  0  0  0
 13 14  1  0  0  0  0
 15 16  1  0  0  0  0
 16 18  1  0  0  0  0
  1 22  1  0  0  0  0
  2 23  1  0  0  0  0
  3 24  1  0  0  0  0
  4 25  1  0  0  0  0
  5 26  1  0  0  0  0
 11 27  1  0  0  0  0
 11 28  1  0  0  0  0
 12 29  1  0  0  0  0
 12 30  1  0  0  0  0
 13 31  1  0  0  0  0
 13 32  1  0  0  0  0
 14 33  1  0  0  0  0
 15 34  1  0  0  0  0
 15 35  1  0  0  0  0
 16 36  1  0  0  0  0
 17 37  1  0  0  0  0
 18 38  1  0  0  0  0
 21 39  1  0  0  0  0
M  END
> <Catalog ID>
Z85881824

> <PlateID>
1041831-R-32

> <Well>
C05

> <MW (desalted)>
286.326

> <ClogP>
1.723

> <HBD>
3

> <TPSA>
82.190

> <RotBonds>
5

> <ROCS_ShapeQuery>
A71EV2A-x0451_0A_A71EV2A-x0310_0A_A71EV2A-x0416_0A_peptide

> <ROCS_TanimotoCombo>
0.553 

> <ROCS_ShapeTanimoto>
0.359 

> <ROCS_ColorTanimoto>
0.194 

> <ROCS_RefTversky>
0.312 

> <ROCS_RefColorTversky>
0.217 

> <ROCS_RefTverskyCombo>
0.529 

> <ROCS_FitTversky>
1.720 

> <ROCS_FitColorTversky>
0.651 

> <ROCS_FitTverskyCombo>
2.372 

> <ROCS_ColorScore>
-6.620

> <ROCS_Overlap>
2166.178

> <ROCS_Rank>
73                  

$$$$
untitled-dbase-1425_277
  -OEChem-11132311063D

 49 51  0     1  0  0  0  0  0999 V2000
   11.4797   14.9329   19.6631 C   0  0  0  0  0  0  0  0  0  0  0  0
   13.7301   15.1630   20.5114 C   0  0  0  0  0  0  0  0  0  0  0  0
   11.9615   15.0318   18.3579 C   0  0  0  0  0  0  0  0  0  0  0  0
   14.2120   15.2619   19.2061 C   0  0  0  0  0  0  0  0  0  0  0  0
   10.1654   10.9915   22.8065 C   0  0  0  0  0  0  0  0  0  0  0  0
    8.6207   11.8688   24.4000 C   0  0  0  0  0  0  0  0  0  0  0  0
    9.7433   12.0680   23.5868 C   0  0  0  0  0  0  0  0  0  0  0  0
   12.3640   14.9986   20.7399 C   0  0  0  0  0  0  0  0  0  0  0  0
   13.3277   15.1963   18.1294 C   0  0  0  0  0  0  0  0  0  0  0  0
    9.4611    9.7941   22.8747 C   0  0  0  0  0  0  0  0  0  0  0  0
    7.8500   12.6079   25.3194 C   0  0  0  0  0  0  0  0  0  0  0  0
    8.0116   10.6239   24.3728 C   0  0  0  0  0  0  0  0  0  0  0  0
   10.4482   13.3356   23.5474 C   0  0  0  0  0  0  0  0  0  0  0  0
    9.9265    8.6486   22.0331 C   0  0  0  0  0  0  0  0  0  0  0  0
    8.0379   14.0068   25.7436 C   0  0  0  0  0  0  0  0  0  0  0  0
   12.9525   14.9987   23.1987 C   0  0  0  0  0  0  0  0  0  0  0  0
    6.0236    9.6496   25.5574 C   0  0  0  0  0  0  0  0  0  0  0  0
   14.2808   13.6379   16.0278 C   0  0  0  0  0  0  0  0  0  0  0  0
   11.8413   14.8921   22.1563 C   0  0  2  0  0  0  0  0  0  0  0  0
    8.3720    9.5530   23.6441 N   0  0  0  0  0  0  0  0  0  0  0  0
    6.8388   11.9007   25.8345 N   0  0  0  0  0  0  0  0  0  0  0  0
    6.9626   10.6997   25.2408 N   0  0  0  0  0  0  0  0  0  0  0  0
   11.0817   13.6771   22.3451 N   0  0  0  0  0  0  0  0  0  0  0  0
   10.4957   14.0670   24.5545 O   0  0  0  0  0  0  0  0  0  0  0  0
   12.8476   15.8011   15.6518 O   0  0  0  0  0  0  0  0  0  0  0  0
   15.2038   16.0266   16.5141 O   0  0  0  0  0  0  0  0  0  0  0  0
   13.9313   15.3179   16.4957 S   0  0  0  0  0  0  0  0  0  0  0  0
   10.4137   14.8053   19.8314 H   0  0  0  0  0  0  0  0  0  0  0  0
   14.4264   15.2156   21.3442 H   0  0  0  0  0  0  0  0  0  0  0  0
   11.2639   14.9800   17.5261 H   0  0  0  0  0  0  0  0  0  0  0  0
   15.2783   15.3903   19.0395 H   0  0  0  0  0  0  0  0  0  0  0  0
   11.0309   11.0879   22.1568 H   0  0  0  0  0  0  0  0  0  0  0  0
   10.6537    8.0444   22.5863 H   0  0  0  0  0  0  0  0  0  0  0  0
    9.0868    8.0074   21.7409 H   0  0  0  0  0  0  0  0  0  0  0  0
   10.3960    9.0041   21.1084 H   0  0  0  0  0  0  0  0  0  0  0  0
    7.4776   14.7000   25.0937 H   0  0  0  0  0  0  0  0  0  0  0  0
    7.6999   14.1759   26.7811 H   0  0  0  0  0  0  0  0  0  0  0  0
    9.0994   14.3102   25.7178 H   0  0  0  0  0  0  0  0  0  0  0  0
   13.6957   14.2049   23.0657 H   0  0  0  0  0  0  0  0  0  0  0  0
   13.4668   15.9627   23.1144 H   0  0  0  0  0  0  0  0  0  0  0  0
   12.5637   14.9298   24.2209 H   0  0  0  0  0  0  0  0  0  0  0  0
    6.4215    9.0857   26.4052 H   0  0  0  0  0  0  0  0  0  0  0  0
    5.0560   10.0910   25.8121 H   0  0  0  0  0  0  0  0  0  0  0  0
    5.9023    8.9988   24.6870 H   0  0  0  0  0  0  0  0  0  0  0  0
   14.6659   13.6378   15.0068 H   0  0  0  0  0  0  0  0  0  0  0  0
   15.0250   13.2362   16.7171 H   0  0  0  0  0  0  0  0  0  0  0  0
   13.3548   13.0642   16.0873 H   0  0  0  0  0  0  0  0  0  0  0  0
   11.1325   15.7087   22.3403 H   0  0  0  0  0  0  0  0  0  0  0  0
   11.0664   13.0178   21.5738 H   0  0  0  0  0  0  0  0  0  0  0  0
  1  3  1  0  0  0  0
  1  8  2  0  0  0  0
  2  4  2  0  0  0  0
  2  8  1  0  0  0  0
  3  9  2  0  0  0  0
  4  9  1  0  0  0  0
  5  7  1  0  0  0  0
  5 10  2  0  0  0  0
  6  7  2  0  0  0  0
  6 11  1  0  0  0  0
  6 12  1  0  0  0  0
  7 13  1  0  0  0  0
  8 19  1  0  0  0  0
  9 27  1  0  0  0  0
 10 14  1  0  0  0  0
 10 20  1  0  0  0  0
 11 15  1  0  0  0  0
 11 21  2  0  0  0  0
 12 20  2  0  0  0  0
 12 22  1  0  0  0  0
 13 23  1  0  0  0  0
 13 24  2  0  0  0  0
 16 19  1  0  0  0  0
 17 22  1  0  0  0  0
 18 27  1  0  0  0  0
 19 23  1  0  0  0  0
 21 22  1  0  0  0  0
 25 27  2  0  0  0  0
 26 27  2  0  0  0  0
  1 28  1  0  0  0  0
  2 29  1  0  0  0  0
  3 30  1  0  0  0  0
  4 31  1  0  0  0  0
  5 32  1  0  0  0  0
 14 33  1  0  0  0  0
 14 34  1  0  0  0  0
 14 35  1  0  0  0  0
 15 36  1  0  0  0  0
 15 37  1  0  0  0  0
 15 38  1  0  0  0  0
 16 39  1  0  0  0  0
 16 40  1  0  0  0  0
 16 41  1  0  0  0  0
 17 42  1  0  0  0  0
 17 43  1  0  0  0  0
 17 44  1  0  0  0  0
 18 45  1  0  0  0  0
 18 46  1  0  0  0  0
 18 47  1  0  0  0  0
 19 48  1  0  0  0  0
 23 49  1  0  0  0  0
M  END
> <Catalog ID>
Z240313824

> <PlateID>
1041831-R-18

> <Well>
G06

> <MW (desalted)>
386.468

> <ClogP>
1.374

> <HBD>
1

> <TPSA>
93.950

> <RotBonds>
4

> <ROCS_ShapeQuery>
A71EV2A-x0451_0A_A71EV2A-x0310_0A_A71EV2A-x0416_0A_peptide

> <ROCS_TanimotoCombo>
0.552 

> <ROCS_ShapeTanimoto>
0.364 

> <ROCS_ColorTanimoto>
0.188 

> <ROCS_RefTversky>
0.325 

> <ROCS_RefColorTversky>
0.211 

> <ROCS_RefTverskyCombo>
0.536 

> <ROCS_FitTversky>
1.494 

> <ROCS_FitColorTversky>
0.635 

> <ROCS_FitTverskyCombo>
2.129 

> <ROCS_ColorScore>
-6.456

> <ROCS_Overlap>
2260.223

> <ROCS_Rank>
74                  

$$$$
untitled-dbase-471_920
  -OEChem-11132311063D

 49 53  0     1  0  0  0  0  0999 V2000
    7.0000   12.3426   25.4508 C   0  0  0  0  0  0  0  0  0  0  0  0
    7.7356   10.5481   24.6466 C   0  0  0  0  0  0  0  0  0  0  0  0
    9.9927   10.1678   23.0704 C   0  0  0  0  0  0  0  0  0  0  0  0
    9.7063   11.4147   23.4786 C   0  0  0  0  0  0  0  0  0  0  0  0
    9.0540    9.0931   23.5115 C   0  0  0  0  0  0  0  0  0  0  0  0
   12.0739   16.2682   22.6139 C   0  0  0  0  0  0  0  0  0  0  0  0
   14.4101   16.4444   18.2280 C   0  0  0  0  0  0  0  0  0  0  0  0
   13.5286   15.2061   17.9796 C   0  0  0  0  0  0  0  0  0  0  0  0
   13.9409   17.3342   19.3817 C   0  0  0  0  0  0  0  0  0  0  0  0
   12.3340   15.0791   18.9282 C   0  0  0  0  0  0  0  0  0  0  0  0
   11.5535   12.9453   24.0177 C   0  0  0  0  0  0  0  0  0  0  0  0
   10.2465   13.2476   21.9315 C   0  0  0  0  0  0  0  0  0  0  0  0
   11.4674   14.4458   24.2851 C   0  0  0  0  0  0  0  0  0  0  0  0
   10.1632   14.7454   22.2080 C   0  0  0  0  0  0  0  0  0  0  0  0
   12.2381   16.4434   21.1659 C   0  0  0  0  0  0  0  0  0  0  0  0
   13.6324   16.5012   20.5893 C   0  0  1  0  0  0  0  0  0  0  0  0
   12.7708   15.2924   20.3463 C   0  0  2  0  0  0  0  0  0  0  0  0
    9.3646    7.6874   23.0613 C   0  0  0  0  0  0  0  0  0  0  0  0
    6.7485   11.0104   25.3874 N   0  0  0  0  0  0  0  0  0  0  0  0
    8.0811   12.7610   24.7996 N   0  0  0  0  0  0  0  0  0  0  0  0
    7.9982    9.2717   24.2494 N   0  0  0  0  0  0  0  0  0  0  0  0
    8.5688   11.6072   24.2728 N   0  0  0  0  0  0  0  0  0  0  0  0
   10.4500   12.5055   23.1708 N   0  0  0  0  0  0  0  0  0  0  0  0
   11.2969   15.1874   23.0267 N   0  0  0  0  0  0  0  0  0  0  0  0
   12.6144   17.0662   23.3838 O   0  0  0  0  0  0  0  0  0  0  0  0
    6.3739   13.0368   25.9908 H   0  0  0  0  0  0  0  0  0  0  0  0
   10.8492    9.9234   22.4555 H   0  0  0  0  0  0  0  0  0  0  0  0
   15.4508   16.1100   18.4182 H   0  0  0  0  0  0  0  0  0  0  0  0
   14.4612   17.0488   17.3005 H   0  0  0  0  0  0  0  0  0  0  0  0
   13.1745   15.2219   16.9276 H   0  0  0  0  0  0  0  0  0  0  0  0
   14.1523   14.2922   18.0585 H   0  0  0  0  0  0  0  0  0  0  0  0
   14.7224   18.0507   19.6186 H   0  0  0  0  0  0  0  0  0  0  0  0
   13.0584   17.8930   19.0816 H   0  0  0  0  0  0  0  0  0  0  0  0
   11.5695   15.7937   18.6617 H   0  0  0  0  0  0  0  0  0  0  0  0
   11.9247   14.0807   18.8430 H   0  0  0  0  0  0  0  0  0  0  0  0
   12.5237   12.7265   23.5541 H   0  0  0  0  0  0  0  0  0  0  0  0
   11.5222   12.3938   24.9660 H   0  0  0  0  0  0  0  0  0  0  0  0
    9.3213   12.9037   21.4535 H   0  0  0  0  0  0  0  0  0  0  0  0
   11.0614   13.0669   21.2205 H   0  0  0  0  0  0  0  0  0  0  0  0
   10.6427   14.6554   24.9716 H   0  0  0  0  0  0  0  0  0  0  0  0
   12.3890   14.8076   24.7539 H   0  0  0  0  0  0  0  0  0  0  0  0
   10.2015   15.3111   21.2679 H   0  0  0  0  0  0  0  0  0  0  0  0
    9.2054   14.9745   22.6820 H   0  0  0  0  0  0  0  0  0  0  0  0
   11.4755   17.0664   20.7156 H   0  0  0  0  0  0  0  0  0  0  0  0
   14.4868   16.3812   21.2352 H   0  0  0  0  0  0  0  0  0  0  0  0
   13.0277   14.3799   20.8312 H   0  0  0  0  0  0  0  0  0  0  0  0
   10.0011    7.2113   23.7996 H   0  0  0  0  0  0  0  0  0  0  0  0
    9.8721    7.7256   22.1029 H   0  0  0  0  0  0  0  0  0  0  0  0
    8.4365    7.1345   22.9593 H   0  0  0  0  0  0  0  0  0  0  0  0
  1 19  1  0  0  0  0
  1 20  2  0  0  0  0
  2 19  2  0  0  0  0
  2 21  1  0  0  0  0
  2 22  1  0  0  0  0
  3  4  2  0  0  0  0
  3  5  1  0  0  0  0
  4 22  1  0  0  0  0
  4 23  1  0  0  0  0
  5 18  1  0  0  0  0
  5 21  2  0  0  0  0
  6 15  1  0  0  0  0
  6 24  1  0  0  0  0
  6 25  2  0  0  0  0
  7  8  1  0  0  0  0
  7  9  1  0  0  0  0
  8 10  1  0  0  0  0
  9 16  1  0  0  0  0
 10 17  1  0  0  0  0
 11 13  1  0  0  0  0
 11 23  1  0  0  0  0
 12 14  1  0  0  0  0
 12 23  1  0  0  0  0
 13 24  1  0  0  0  0
 14 24  1  0  0  0  0
 15 16  1  0  0  0  0
 15 17  1  0  0  0  0
 16 17  1  0  0  0  0
 20 22  1  0  0  0  0
  1 26  1  0  0  0  0
  3 27  1  0  0  0  0
  7 28  1  0  0  0  0
  7 29  1  0  0  0  0
  8 30  1  0  0  0  0
  8 31  1  0  0  0  0
  9 32  1  0  0  0  0
  9 33  1  0  0  0  0
 10 34  1  0  0  0  0
 10 35  1  0  0  0  0
 11 36  1  0  0  0  0
 11 37  1  0  0  0  0
 12 38  1  0  0  0  0
 12 39  1  0  0  0  0
 13 40  1  0  0  0  0
 13 41  1  0  0  0  0
 14 42  1  0  0  0  0
 14 43  1  0  0  0  0
 15 44  1  0  0  0  0
 16 45  1  0  0  0  0
 17 46  1  0  0  0  0
 18 47  1  0  0  0  0
 18 48  1  0  0  0  0
 18 49  1  0  0  0  0
M  END
> <Catalog ID>
Z1311402963

> <PlateID>
1041831-R-06

> <Well>
H02

> <MW (desalted)>
340.423

> <ClogP>
1.582

> <HBD>
0

> <TPSA>
66.630

> <RotBonds>
2

> <ROCS_ShapeQuery>
A71EV2A-x0451_0A_A71EV2A-x0310_0A_A71EV2A-x0416_0A_peptide

> <ROCS_TanimotoCombo>
0.552 

> <ROCS_ShapeTanimoto>
0.388 

> <ROCS_ColorTanimoto>
0.165 

> <ROCS_RefTversky>
0.338 

> <ROCS_RefColorTversky>
0.196 

> <ROCS_RefTverskyCombo>
0.534 

> <ROCS_FitTversky>
1.606 

> <ROCS_FitColorTversky>
0.505 

> <ROCS_FitTverskyCombo>
2.111 

> <ROCS_ColorScore>
-6.016

> <ROCS_Overlap>
2352.459

> <ROCS_Rank>
75                  

$$$$
untitled-dbase-192_2238
  -OEChem-11132311063D

 55 58  0     1  0  0  0  0  0999 V2000
   12.3874   14.2247   29.1178 C   0  0  0  0  0  0  0  0  0  0  0  0
    6.3619   12.4870   25.7239 C   0  0  0  0  0  0  0  0  0  0  0  0
   12.8908   13.1413   29.8351 C   0  0  0  0  0  0  0  0  0  0  0  0
    6.3292   11.1777   26.1817 C   0  0  0  0  0  0  0  0  0  0  0  0
   12.5847   14.3226   27.7356 C   0  0  0  0  0  0  0  0  0  0  0  0
    7.2436   12.8382   24.7062 C   0  0  0  0  0  0  0  0  0  0  0  0
   13.6054   12.1236   29.1967 C   0  0  0  0  0  0  0  0  0  0  0  0
    7.1844   10.2228   25.6274 C   0  0  0  0  0  0  0  0  0  0  0  0
   14.3842   11.9058   25.6665 C   0  0  0  0  0  0  0  0  0  0  0  0
   13.3021   13.3087   27.0703 C   0  0  0  0  0  0  0  0  0  0  0  0
    8.1112   11.8858   24.1388 C   0  0  0  0  0  0  0  0  0  0  0  0
   13.6813   13.0875   25.7167 C   0  0  0  0  0  0  0  0  0  0  0  0
   13.7949   12.2348   27.8147 C   0  0  0  0  0  0  0  0  0  0  0  0
    8.1013   10.5487   24.6061 C   0  0  0  0  0  0  0  0  0  0  0  0
   11.1370   13.1905   23.8041 C   0  0  0  0  0  0  0  0  0  0  0  0
   12.2266   15.2550   22.0289 C   0  0  0  0  0  0  0  0  0  0  0  0
    8.9843   12.3173   22.9814 C   0  0  0  0  0  0  0  0  0  0  0  0
   10.4081    9.8338   24.1805 C   0  0  0  0  0  0  0  0  0  0  0  0
   10.9100   10.7674   23.0857 C   0  0  0  0  0  0  0  0  0  0  0  0
   12.3228   15.7606   20.6276 C   0  0  0  0  0  0  0  0  0  0  0  0
    8.5326    8.1939   24.0152 C   0  0  0  0  0  0  0  0  0  0  0  0
   13.3753   13.9813   24.5400 C   0  0  0  0  0  0  0  0  0  0  0  0
   12.6020   13.2502   23.4510 C   0  0  2  0  0  0  0  0  0  0  0  0
   14.4472   11.3988   26.9367 N   0  0  0  0  0  0  0  0  0  0  0  0
    8.9664    9.5836   24.0793 N   0  0  1  0  0  0  0  0  0  0  0  0
   10.4042   12.1299   23.2641 N   0  0  0  0  0  0  0  0  0  0  0  0
   12.6150   13.9323   22.1893 N   0  0  0  0  0  0  0  0  0  0  0  0
   10.6563   14.0590   24.5371 O   0  0  0  0  0  0  0  0  0  0  0  0
   11.8302   16.0028   22.9151 O   0  0  0  0  0  0  0  0  0  0  0  0
   11.8345   15.0034   29.6364 H   0  0  0  0  0  0  0  0  0  0  0  0
    5.7008   13.2335   26.1555 H   0  0  0  0  0  0  0  0  0  0  0  0
   12.7260   13.0855   30.9081 H   0  0  0  0  0  0  0  0  0  0  0  0
    5.6452   10.8971   26.9774 H   0  0  0  0  0  0  0  0  0  0  0  0
   12.1851   15.1731   27.1906 H   0  0  0  0  0  0  0  0  0  0  0  0
    7.2402   13.8635   24.3501 H   0  0  0  0  0  0  0  0  0  0  0  0
   13.9978   11.2812   29.7561 H   0  0  0  0  0  0  0  0  0  0  0  0
    7.1294    9.2202   26.0353 H   0  0  0  0  0  0  0  0  0  0  0  0
   14.8439   11.3789   24.8417 H   0  0  0  0  0  0  0  0  0  0  0  0
    8.7344   11.7306   22.0928 H   0  0  0  0  0  0  0  0  0  0  0  0
    8.7947   13.3633   22.7268 H   0  0  0  0  0  0  0  0  0  0  0  0
   10.9625    8.8837   24.1056 H   0  0  0  0  0  0  0  0  0  0  0  0
   10.6612   10.2103   25.1857 H   0  0  0  0  0  0  0  0  0  0  0  0
   11.9979   10.8216   23.1157 H   0  0  0  0  0  0  0  0  0  0  0  0
   10.6164   10.3746   22.1159 H   0  0  0  0  0  0  0  0  0  0  0  0
   11.3931   15.6008   20.0582 H   0  0  0  0  0  0  0  0  0  0  0  0
   12.5080   16.8459   20.5840 H   0  0  0  0  0  0  0  0  0  0  0  0
   13.1187   15.3061   20.0162 H   0  0  0  0  0  0  0  0  0  0  0  0
    9.3326    7.5793   23.5767 H   0  0  0  0  0  0  0  0  0  0  0  0
    8.3075    7.8330   25.0297 H   0  0  0  0  0  0  0  0  0  0  0  0
    7.6298    8.1201   23.3911 H   0  0  0  0  0  0  0  0  0  0  0  0
   12.8010   14.8460   24.8993 H   0  0  0  0  0  0  0  0  0  0  0  0
   14.3099   14.3999   24.1422 H   0  0  0  0  0  0  0  0  0  0  0  0
   12.9524   12.2300   23.2942 H   0  0  0  0  0  0  0  0  0  0  0  0
   14.9062   10.5357   27.1935 H   0  0  0  0  0  0  0  0  0  0  0  0
   12.9268   13.4172   21.3651 H   0  0  0  0  0  0  0  0  0  0  0  0
  1  3  2  0  0  0  0
  1  5  1  0  0  0  0
  2  4  2  0  0  0  0
  2  6  1  0  0  0  0
  3  7  1  0  0  0  0
  4  8  1  0  0  0  0
  5 10  2  0  0  0  0
  6 11  2  0  0  0  0
  7 13  2  0  0  0  0
  8 14  2  0  0  0  0
  9 12  2  0  0  0  0
  9 24  1  0  0  0  0
 10 12  1  0  0  0  0
 10 13  1  0  0  0  0
 11 14  1  0  0  0  0
 11 17  1  0  0  0  0
 12 22  1  0  0  0  0
 13 24  1  0  0  0  0
 14 25  1  0  0  0  0
 15 23  1  0  0  0  0
 15 26  1  0  0  0  0
 15 28  2  0  0  0  0
 16 20  1  0  0  0  0
 16 27  1  0  0  0  0
 16 29  2  0  0  0  0
 17 26  1  0  0  0  0
 18 19  1  0  0  0  0
 18 25  1  0  0  0  0
 19 26  1  0  0  0  0
 21 25  1  0  0  0  0
 22 23  1  0  0  0  0
 23 27  1  0  0  0  0
  1 30  1  0  0  0  0
  2 31  1  0  0  0  0
  3 32  1  0  0  0  0
  4 33  1  0  0  0  0
  5 34  1  0  0  0  0
  6 35  1  0  0  0  0
  7 36  1  0  0  0  0
  8 37  1  0  0  0  0
  9 38  1  0  0  0  0
 17 39  1  0  0  0  0
 17 40  1  0  0  0  0
 18 41  1  0  0  0  0
 18 42  1  0  0  0  0
 19 43  1  0  0  0  0
 19 44  1  0  0  0  0
 20 45  1  0  0  0  0
 20 46  1  0  0  0  0
 20 47  1  0  0  0  0
 21 48  1  0  0  0  0
 21 49  1  0  0  0  0
 21 50  1  0  0  0  0
 22 51  1  0  0  0  0
 22 52  1  0  0  0  0
 23 53  1  0  0  0  0
 24 54  1  0  0  0  0
 27 55  1  0  0  0  0
M  END
> <Catalog ID>
Z1083845368

> <PlateID>
1041831-R-03

> <Well>
D03

> <MW (desalted)>
390.478

> <ClogP>
2.450

> <HBD>
2

> <TPSA>
68.440

> <RotBonds>
4

> <ROCS_ShapeQuery>
A71EV2A-x0451_0A_A71EV2A-x0310_0A_A71EV2A-x0416_0A_peptide

> <ROCS_TanimotoCombo>
0.552 

> <ROCS_ShapeTanimoto>
0.387 

> <ROCS_ColorTanimoto>
0.165 

> <ROCS_RefTversky>
0.344 

> <ROCS_RefColorTversky>
0.185 

> <ROCS_RefTverskyCombo>
0.529 

> <ROCS_FitTversky>
1.477 

> <ROCS_FitColorTversky>
0.612 

> <ROCS_FitTverskyCombo>
2.090 

> <ROCS_ColorScore>
-5.636

> <ROCS_Overlap>
2394.091

> <ROCS_Rank>
76                  

$$$$
untitled-dbase-874_2997
  -OEChem-11132311063D

 36 38  0     1  0  0  0  0  0999 V2000
    7.0130   12.8407   25.6650 C   0  0  0  0  0  0  0  0  0  0  0  0
    6.7347   11.6610   26.3525 C   0  0  0  0  0  0  0  0  0  0  0  0
   13.9663   17.1182   19.1264 C   0  0  0  0  0  0  0  0  0  0  0  0
    7.8519   12.8361   24.5447 C   0  0  0  0  0  0  0  0  0  0  0  0
    7.2839   10.4422   25.9442 C   0  0  0  0  0  0  0  0  0  0  0  0
   13.6989   16.6976   20.4613 C   0  0  0  0  0  0  0  0  0  0  0  0
    9.4982    9.8946   23.1312 C   0  0  0  0  0  0  0  0  0  0  0  0
   13.5774   16.1764   18.1994 C   0  0  0  0  0  0  0  0  0  0  0  0
    8.4172   11.6192   24.1144 C   0  0  0  0  0  0  0  0  0  0  0  0
    9.2871   11.2517   23.0499 C   0  0  0  0  0  0  0  0  0  0  0  0
    8.1207   10.4527   24.8227 C   0  0  0  0  0  0  0  0  0  0  0  0
   13.1155   15.4503   20.5036 C   0  0  0  0  0  0  0  0  0  0  0  0
   12.6846   14.6630   21.6875 C   0  0  0  0  0  0  0  0  0  0  0  0
   10.6516   13.8551   23.7377 C   0  0  0  0  0  0  0  0  0  0  0  0
    9.8667   12.1554   22.0355 C   0  0  0  0  0  0  0  0  0  0  0  0
   11.0589   12.9980   22.5482 C   0  0  1  0  0  0  0  0  0  0  0  0
    8.7904    9.4215   24.2034 N   0  0  0  0  0  0  0  0  0  0  0  0
   11.6085   13.8091   21.4908 N   0  0  0  0  0  0  0  0  0  0  0  0
   13.2706   14.8167   22.7559 O   0  0  0  0  0  0  0  0  0  0  0  0
   10.7507   13.4746   24.8996 O   0  0  0  0  0  0  0  0  0  0  0  0
   10.1741   15.0817   23.4180 O   0  0  0  0  0  0  0  0  0  0  0  0
   12.8928   14.7918   18.9386 S   0  0  0  0  0  0  0  0  0  0  0  0
    6.5737   13.7761   26.0012 H   0  0  0  0  0  0  0  0  0  0  0  0
    6.0805   11.6877   27.2201 H   0  0  0  0  0  0  0  0  0  0  0  0
   14.4218   18.0630   18.8600 H   0  0  0  0  0  0  0  0  0  0  0  0
    8.0584   13.7640   24.0189 H   0  0  0  0  0  0  0  0  0  0  0  0
    7.0675    9.5246   26.4807 H   0  0  0  0  0  0  0  0  0  0  0  0
   13.9249   17.2848   21.3425 H   0  0  0  0  0  0  0  0  0  0  0  0
   10.0868    9.2223   22.5222 H   0  0  0  0  0  0  0  0  0  0  0  0
   13.6635   16.2352   17.1236 H   0  0  0  0  0  0  0  0  0  0  0  0
    9.0819   12.8389   21.6529 H   0  0  0  0  0  0  0  0  0  0  0  0
   10.1913   11.5950   21.1340 H   0  0  0  0  0  0  0  0  0  0  0  0
   11.8744   12.3488   22.8873 H   0  0  0  0  0  0  0  0  0  0  0  0
    8.7630    8.4552   24.4985 H   0  0  0  0  0  0  0  0  0  0  0  0
   11.1355   13.7839   20.5913 H   0  0  0  0  0  0  0  0  0  0  0  0
   10.1414   15.2735   22.4571 H   0  0  0  0  0  0  0  0  0  0  0  0
  1  2  2  0  0  0  0
  1  4  1  0  0  0  0
  2  5  1  0  0  0  0
  3  6  1  0  0  0  0
  3  8  2  0  0  0  0
  4  9  2  0  0  0  0
  5 11  2  0  0  0  0
  6 12  2  0  0  0  0
  7 10  2  0  0  0  0
  7 17  1  0  0  0  0
  8 22  1  0  0  0  0
  9 10  1  0  0  0  0
  9 11  1  0  0  0  0
 10 15  1  0  0  0  0
 11 17  1  0  0  0  0
 12 13  1  0  0  0  0
 12 22  1  0  0  0  0
 13 18  1  0  0  0  0
 13 19  2  0  0  0  0
 14 16  1  0  0  0  0
 14 20  2  0  0  0  0
 14 21  1  0  0  0  0
 15 16  1  0  0  0  0
 16 18  1  0  0  0  0
  1 23  1  0  0  0  0
  2 24  1  0  0  0  0
  3 25  1  0  0  0  0
  4 26  1  0  0  0  0
  5 27  1  0  0  0  0
  6 28  1  0  0  0  0
  7 29  1  0  0  0  0
  8 30  1  0  0  0  0
 15 31  1  0  0  0  0
 15 32  1  0  0  0  0
 16 33  1  0  0  0  0
 17 34  1  0  0  0  0
 18 35  1  0  0  0  0
 21 36  1  0  0  0  0
M  END
> <Catalog ID>
Z85881802

> <PlateID>
1041831-R-11

> <Well>
H05

> <MW (desalted)>
314.359

> <ClogP>
2.209

> <HBD>
3

> <TPSA>
82.190

> <RotBonds>
5

> <ROCS_ShapeQuery>
A71EV2A-x0451_0A_A71EV2A-x0310_0A_A71EV2A-x0416_0A_peptide

> <ROCS_TanimotoCombo>
0.552 

> <ROCS_ShapeTanimoto>
0.351 

> <ROCS_ColorTanimoto>
0.201 

> <ROCS_RefTversky>
0.309 

> <ROCS_RefColorTversky>
0.223 

> <ROCS_RefTverskyCombo>
0.532 

> <ROCS_FitTversky>
1.647 

> <ROCS_FitColorTversky>
0.671 

> <ROCS_FitTverskyCombo>
2.318 

> <ROCS_ColorScore>
-6.819

> <ROCS_Overlap>
2143.048

> <ROCS_Rank>
77                  

$$$$
untitled-dbase-3140_1029
  -OEChem-11132311063D

 38 40  0     1  0  0  0  0  0999 V2000
    7.3001   10.4704   25.9407 C   0  0  0  0  0  0  0  0  0  0  0  0
    6.7473   11.6915   26.3372 C   0  0  0  0  0  0  0  0  0  0  0  0
    7.8567   12.8514   24.5149 C   0  0  0  0  0  0  0  0  0  0  0  0
    9.5110    9.9012   23.1292 C   0  0  0  0  0  0  0  0  0  0  0  0
   13.1558   16.1736   18.4603 C   0  0  0  0  0  0  0  0  0  0  0  0
    8.4256   11.6321   24.0964 C   0  0  0  0  0  0  0  0  0  0  0  0
    9.2948   11.2566   23.0341 C   0  0  0  0  0  0  0  0  0  0  0  0
    8.1348   10.4721   24.8175 C   0  0  0  0  0  0  0  0  0  0  0  0
    7.0200   12.8649   25.6368 C   0  0  0  0  0  0  0  0  0  0  0  0
   13.0984   15.4433   20.4318 C   0  0  0  0  0  0  0  0  0  0  0  0
   14.1250   16.3518   20.3590 C   0  0  0  0  0  0  0  0  0  0  0  0
   12.6745   14.6667   21.6252 C   0  0  0  0  0  0  0  0  0  0  0  0
   10.6514   13.8723   23.6905 C   0  0  0  0  0  0  0  0  0  0  0  0
   15.1160   16.8777   21.3046 C   0  0  0  0  0  0  0  0  0  0  0  0
    9.8674   12.1521   22.0086 C   0  0  0  0  0  0  0  0  0  0  0  0
   11.0581   13.0045   22.5085 C   0  0  1  0  0  0  0  0  0  0  0  0
   12.4809   15.3336   19.2121 N   0  0  0  0  0  0  0  0  0  0  0  0
    8.8070    9.4369   24.2078 N   0  0  0  0  0  0  0  0  0  0  0  0
   11.6010   13.8067   21.4409 N   0  0  0  0  0  0  0  0  0  0  0  0
   13.2635   14.8337   22.6900 O   0  0  0  0  0  0  0  0  0  0  0  0
   10.7559   13.5042   24.8559 O   0  0  0  0  0  0  0  0  0  0  0  0
   14.1709   16.8312   19.0848 O   0  0  0  0  0  0  0  0  0  0  0  0
   10.1681   15.0937   23.3598 O   0  0  0  0  0  0  0  0  0  0  0  0
    6.2475   14.4965   26.2039 Br  0  0  0  0  0  0  0  0  0  0  0  0
    7.0877    9.5577   26.4873 H   0  0  0  0  0  0  0  0  0  0  0  0
    6.0960   11.7069   27.2086 H   0  0  0  0  0  0  0  0  0  0  0  0
    8.0705   13.7659   23.9678 H   0  0  0  0  0  0  0  0  0  0  0  0
   10.1021    9.2246   22.5279 H   0  0  0  0  0  0  0  0  0  0  0  0
   13.0035   16.4030   17.4165 H   0  0  0  0  0  0  0  0  0  0  0  0
   16.0391   16.2692   21.3058 H   0  0  0  0  0  0  0  0  0  0  0  0
   15.4104   17.9190   21.0727 H   0  0  0  0  0  0  0  0  0  0  0  0
   14.7373   16.9006   22.3444 H   0  0  0  0  0  0  0  0  0  0  0  0
    9.0788   12.8286   21.6215 H   0  0  0  0  0  0  0  0  0  0  0  0
   10.1913   11.5836   21.1118 H   0  0  0  0  0  0  0  0  0  0  0  0
   11.8772   12.3620   22.8516 H   0  0  0  0  0  0  0  0  0  0  0  0
    8.7832    8.4740   24.5137 H   0  0  0  0  0  0  0  0  0  0  0  0
   11.1252   13.7704   20.5434 H   0  0  0  0  0  0  0  0  0  0  0  0
   10.1315   15.2754   22.3971 H   0  0  0  0  0  0  0  0  0  0  0  0
  1  2  1  0  0  0  0
  1  8  2  0  0  0  0
  2  9  2  0  0  0  0
  3  6  2  0  0  0  0
  3  9  1  0  0  0  0
  4  7  2  0  0  0  0
  4 18  1  0  0  0  0
  5 17  2  0  0  0  0
  5 22  1  0  0  0  0
  6  7  1  0  0  0  0
  6  8  1  0  0  0  0
  7 15  1  0  0  0  0
  8 18  1  0  0  0  0
  9 24  1  0  0  0  0
 10 11  2  0  0  0  0
 10 12  1  0  0  0  0
 10 17  1  0  0  0  0
 11 14  1  0  0  0  0
 11 22  1  0  0  0  0
 12 19  1  0  0  0  0
 12 20  2  0  0  0  0
 13 16  1  0  0  0  0
 13 21  2  0  0  0  0
 13 23  1  0  0  0  0
 15 16  1  0  0  0  0
 16 19  1  0  0  0  0
  1 25  1  0  0  0  0
  2 26  1  0  0  0  0
  3 27  1  0  0  0  0
  4 28  1  0  0  0  0
  5 29  1  0  0  0  0
 14 30  1  0  0  0  0
 14 31  1  0  0  0  0
 14 32  1  0  0  0  0
 15 33  1  0  0  0  0
 15 34  1  0  0  0  0
 16 35  1  0  0  0  0
 18 36  1  0  0  0  0
 19 37  1  0  0  0  0
 23 38  1  0  0  0  0
M  END
> <Catalog ID>
Z1603562018

> <PlateID>
1041831-R-40

> <Well>
B11

> <MW (desalted)>
392.204

> <ClogP>
2.104

> <HBD>
3

> <TPSA>
108.220

> <RotBonds>
5

> <ROCS_ShapeQuery>
A71EV2A-x0451_0A_A71EV2A-x0310_0A_A71EV2A-x0416_0A_peptide

> <ROCS_TanimotoCombo>
0.552 

> <ROCS_ShapeTanimoto>
0.361 

> <ROCS_ColorTanimoto>
0.191 

> <ROCS_RefTversky>
0.319 

> <ROCS_RefColorTversky>
0.223 

> <ROCS_RefTverskyCombo>
0.542 

> <ROCS_FitTversky>
1.583 

> <ROCS_FitColorTversky>
0.568 

> <ROCS_FitTverskyCombo>
2.151 

> <ROCS_ColorScore>
-6.850

> <ROCS_Overlap>
2215.889

> <ROCS_Rank>
78                  

$$$$
untitled-dbase-1146_2174
  -OEChem-11132311063D

 40 42  0     1  0  0  0  0  0999 V2000
    6.1737   11.0612   25.7418 C   0  0  0  0  0  0  0  0  0  0  0  0
    6.5817   12.4007   25.8062 C   0  0  0  0  0  0  0  0  0  0  0  0
    6.9401   10.1225   25.0518 C   0  0  0  0  0  0  0  0  0  0  0  0
    7.7606   12.8209   25.1818 C   0  0  0  0  0  0  0  0  0  0  0  0
    8.1075   10.5474   24.4357 C   0  0  0  0  0  0  0  0  0  0  0  0
    8.5170   11.8809   24.4972 C   0  0  0  0  0  0  0  0  0  0  0  0
   10.4259   13.2376   23.6443 C   0  0  0  0  0  0  0  0  0  0  0  0
    9.0656    9.7111   23.6526 C   0  0  0  0  0  0  0  0  0  0  0  0
   14.3673   16.1494   18.5648 C   0  0  0  0  0  0  0  0  0  0  0  0
   13.1856   15.2276   18.7357 C   0  0  0  0  0  0  0  0  0  0  0  0
   10.1283   10.7356   23.2411 C   0  0  0  0  0  0  0  0  0  0  0  0
   13.9698   17.3271   19.4252 C   0  0  0  0  0  0  0  0  0  0  0  0
   12.7806   15.4652   20.1828 C   0  0  1  0  0  0  0  0  0  0  0  0
   11.2199   13.3510   22.3642 C   0  0  0  0  0  0  0  0  0  0  0  0
   13.4440   14.4959   21.1516 C   0  0  0  0  0  0  0  0  0  0  0  0
    9.7281   12.0469   23.7935 N   0  0  0  0  0  0  0  0  0  0  0  0
   10.4432   14.1697   24.4484 O   0  0  0  0  0  0  0  0  0  0  0  0
   13.4496   13.7697   23.6626 O   0  0  0  0  0  0  0  0  0  0  0  0
   12.0509   15.7538   22.9708 O   0  0  0  0  0  0  0  0  0  0  0  0
   13.2045   16.7987   20.5165 O   0  0  0  0  0  0  0  0  0  0  0  0
   12.5675   14.4182   22.7006 S   0  0  0  0  0  0  0  0  0  0  0  0
    5.2548   10.7537   26.2330 H   0  0  0  0  0  0  0  0  0  0  0  0
    5.9737   13.1207   26.3476 H   0  0  0  0  0  0  0  0  0  0  0  0
    6.6258    9.0854   25.0013 H   0  0  0  0  0  0  0  0  0  0  0  0
    8.0451   13.8634   25.2521 H   0  0  0  0  0  0  0  0  0  0  0  0
    9.4969    8.9223   24.2765 H   0  0  0  0  0  0  0  0  0  0  0  0
    8.5771    9.2745   22.7762 H   0  0  0  0  0  0  0  0  0  0  0  0
   15.3199   15.7036   18.8626 H   0  0  0  0  0  0  0  0  0  0  0  0
   14.4473   16.4603   17.5164 H   0  0  0  0  0  0  0  0  0  0  0  0
   12.3700   15.4311   18.0285 H   0  0  0  0  0  0  0  0  0  0  0  0
   13.5067   14.1853   18.5829 H   0  0  0  0  0  0  0  0  0  0  0  0
   11.1152   10.4679   23.6347 H   0  0  0  0  0  0  0  0  0  0  0  0
   10.2067   10.8150   22.1513 H   0  0  0  0  0  0  0  0  0  0  0  0
   14.8487   17.8256   19.8455 H   0  0  0  0  0  0  0  0  0  0  0  0
   13.3754   18.0644   18.8800 H   0  0  0  0  0  0  0  0  0  0  0  0
   11.7023   15.4207   20.2996 H   0  0  0  0  0  0  0  0  0  0  0  0
   10.6102   13.7926   21.5869 H   0  0  0  0  0  0  0  0  0  0  0  0
   11.5940   12.3794   22.0714 H   0  0  0  0  0  0  0  0  0  0  0  0
   14.4682   14.8065   21.3760 H   0  0  0  0  0  0  0  0  0  0  0  0
   13.4628   13.4830   20.7405 H   0  0  0  0  0  0  0  0  0  0  0  0
  1  2  2  0  0  0  0
  1  3  1  0  0  0  0
  2  4  1  0  0  0  0
  3  5  2  0  0  0  0
  4  6  2  0  0  0  0
  5  6  1  0  0  0  0
  5  8  1  0  0  0  0
  6 16  1  0  0  0  0
  7 14  1  0  0  0  0
  7 16  1  0  0  0  0
  7 17  2  0  0  0  0
  8 11  1  0  0  0  0
  9 10  1  0  0  0  0
  9 12  1  0  0  0  0
 10 13  1  0  0  0  0
 11 16  1  0  0  0  0
 12 20  1  0  0  0  0
 13 15  1  0  0  0  0
 13 20  1  0  0  0  0
 14 21  1  0  0  0  0
 15 21  1  0  0  0  0
 18 21  2  0  0  0  0
 19 21  2  0  0  0  0
  1 22  1  0  0  0  0
  2 23  1  0  0  0  0
  3 24  1  0  0  0  0
  4 25  1  0  0  0  0
  8 26  1  0  0  0  0
  8 27  1  0  0  0  0
  9 28  1  0  0  0  0
  9 29  1  0  0  0  0
 10 30  1  0  0  0  0
 10 31  1  0  0  0  0
 11 32  1  0  0  0  0
 11 33  1  0  0  0  0
 12 34  1  0  0  0  0
 12 35  1  0  0  0  0
 13 36  1  0  0  0  0
 14 37  1  0  0  0  0
 14 38  1  0  0  0  0
 15 39  1  0  0  0  0
 15 40  1  0  0  0  0
M  END
> <Catalog ID>
Z340421474

> <PlateID>
1041831-R-15

> <Well>
C07

> <MW (desalted)>
309.381

> <ClogP>
1.329

> <HBD>
0

> <TPSA>
63.680

> <RotBonds>
4

> <ROCS_ShapeQuery>
A71EV2A-x0451_0A_A71EV2A-x0310_0A_A71EV2A-x0416_0A_peptide

> <ROCS_TanimotoCombo>
0.552 

> <ROCS_ShapeTanimoto>
0.340 

> <ROCS_ColorTanimoto>
0.212 

> <ROCS_RefTversky>
0.299 

> <ROCS_RefColorTversky>
0.223 

> <ROCS_RefTverskyCombo>
0.521 

> <ROCS_FitTversky>
1.673 

> <ROCS_FitColorTversky>
0.822 

> <ROCS_FitTverskyCombo>
2.495 

> <ROCS_ColorScore>
-6.783

> <ROCS_Overlap>
2074.376

> <ROCS_Rank>
79                  

$$$$
untitled-dbase-2498_4976
  -OEChem-11132311063D

 39 41  0     1  0  0  0  0  0999 V2000
    7.0063   12.8413   25.6848 C   0  0  0  0  0  0  0  0  0  0  0  0
   12.5913   16.4966   18.4258 C   0  0  0  0  0  0  0  0  0  0  0  0
    6.7211   11.6655   26.3761 C   0  0  0  0  0  0  0  0  0  0  0  0
   13.9293   16.8625   18.2790 C   0  0  0  0  0  0  0  0  0  0  0  0
    7.8442   12.8278   24.5638 C   0  0  0  0  0  0  0  0  0  0  0  0
   12.1871   15.7634   19.5415 C   0  0  0  0  0  0  0  0  0  0  0  0
    7.2621   10.4419   25.9712 C   0  0  0  0  0  0  0  0  0  0  0  0
   14.8631   16.4951   19.2478 C   0  0  0  0  0  0  0  0  0  0  0  0
    9.4706    9.8716   23.1580 C   0  0  0  0  0  0  0  0  0  0  0  0
    8.4014   11.6061   24.1368 C   0  0  0  0  0  0  0  0  0  0  0  0
   13.1210   15.3961   20.5104 C   0  0  0  0  0  0  0  0  0  0  0  0
    9.2680   11.2298   23.0727 C   0  0  0  0  0  0  0  0  0  0  0  0
    8.0981   10.4437   24.8489 C   0  0  0  0  0  0  0  0  0  0  0  0
   14.4590   15.7619   20.3635 C   0  0  0  0  0  0  0  0  0  0  0  0
   12.6861   14.6152   21.6971 C   0  0  0  0  0  0  0  0  0  0  0  0
   10.6496   13.8265   23.7514 C   0  0  0  0  0  0  0  0  0  0  0  0
    9.8525   12.1267   22.0551 C   0  0  0  0  0  0  0  0  0  0  0  0
   11.0505   12.9632   22.5642 C   0  0  1  0  0  0  0  0  0  0  0  0
    8.7607    9.4064   24.2323 N   0  0  0  0  0  0  0  0  0  0  0  0
   11.6043   13.7676   21.5038 N   0  0  0  0  0  0  0  0  0  0  0  0
   13.2739   14.7685   22.7645 O   0  0  0  0  0  0  0  0  0  0  0  0
   10.7473   13.4490   24.9144 O   0  0  0  0  0  0  0  0  0  0  0  0
   10.1797   15.0552   23.4283 O   0  0  0  0  0  0  0  0  0  0  0  0
   15.3658   15.4143   21.2881 F   0  0  0  0  0  0  0  0  0  0  0  0
    6.5733   13.7804   26.0185 H   0  0  0  0  0  0  0  0  0  0  0  0
   11.8643   16.7824   17.6714 H   0  0  0  0  0  0  0  0  0  0  0  0
    6.0678   11.6990   27.2442 H   0  0  0  0  0  0  0  0  0  0  0  0
   14.2440   17.4334   17.4103 H   0  0  0  0  0  0  0  0  0  0  0  0
    8.0561   13.7528   24.0351 H   0  0  0  0  0  0  0  0  0  0  0  0
   11.1417   15.4842   19.6452 H   0  0  0  0  0  0  0  0  0  0  0  0
    7.0404    9.5273   26.5106 H   0  0  0  0  0  0  0  0  0  0  0  0
   15.9049   16.7799   19.1337 H   0  0  0  0  0  0  0  0  0  0  0  0
   10.0544    9.1937   22.5506 H   0  0  0  0  0  0  0  0  0  0  0  0
    9.0717   12.8140   21.6710 H   0  0  0  0  0  0  0  0  0  0  0  0
   10.1728   11.5614   21.1550 H   0  0  0  0  0  0  0  0  0  0  0  0
   11.8621   12.3099   22.9046 H   0  0  0  0  0  0  0  0  0  0  0  0
    8.7274    8.4412   24.5303 H   0  0  0  0  0  0  0  0  0  0  0  0
   11.1305   13.7426   20.6049 H   0  0  0  0  0  0  0  0  0  0  0  0
   10.1474   15.2443   22.4669 H   0  0  0  0  0  0  0  0  0  0  0  0
  1  3  2  0  0  0  0
  1  5  1  0  0  0  0
  2  4  2  0  0  0  0
  2  6  1  0  0  0  0
  3  7  1  0  0  0  0
  4  8  1  0  0  0  0
  5 10  2  0  0  0  0
  6 11  2  0  0  0  0
  7 13  2  0  0  0  0
  8 14  2  0  0  0  0
  9 12  2  0  0  0  0
  9 19  1  0  0  0  0
 10 12  1  0  0  0  0
 10 13  1  0  0  0  0
 11 14  1  0  0  0  0
 11 15  1  0  0  0  0
 12 17  1  0  0  0  0
 13 19  1  0  0  0  0
 14 24  1  0  0  0  0
 15 20  1  0  0  0  0
 15 21  2  0  0  0  0
 16 18  1  0  0  0  0
 16 22  2  0  0  0  0
 16 23  1  0  0  0  0
 17 18  1  0  0  0  0
 18 20  1  0  0  0  0
  1 25  1  0  0  0  0
  2 26  1  0  0  0  0
  3 27  1  0  0  0  0
  4 28  1  0  0  0  0
  5 29  1  0  0  0  0
  6 30  1  0  0  0  0
  7 31  1  0  0  0  0
  8 32  1  0  0  0  0
  9 33  1  0  0  0  0
 17 34  1  0  0  0  0
 17 35  1  0  0  0  0
 18 36  1  0  0  0  0
 19 37  1  0  0  0  0
 20 38  1  0  0  0  0
 23 39  1  0  0  0  0
M  END
> <Catalog ID>
Z85882325

> <PlateID>
1041831-R-32

> <Well>
B09

> <MW (desalted)>
326.322

> <ClogP>
2.305

> <HBD>
3

> <TPSA>
82.190

> <RotBonds>
5

> <ROCS_ShapeQuery>
A71EV2A-x0451_0A_A71EV2A-x0310_0A_A71EV2A-x0416_0A_peptide

> <ROCS_TanimotoCombo>
0.552 

> <ROCS_ShapeTanimoto>
0.354 

> <ROCS_ColorTanimoto>
0.198 

> <ROCS_RefTversky>
0.314 

> <ROCS_RefColorTversky>
0.220 

> <ROCS_RefTverskyCombo>
0.534 

> <ROCS_FitTversky>
1.551 

> <ROCS_FitColorTversky>
0.662 

> <ROCS_FitTverskyCombo>
2.213 

> <ROCS_ColorScore>
-6.725

> <ROCS_Overlap>
2184.877

> <ROCS_Rank>
80                  

$$$$
untitled-dbase-1366_1023
  -OEChem-11132311063D

 39 41  0     1  0  0  0  0  0999 V2000
    7.0057   12.8415   25.6849 C   0  0  0  0  0  0  0  0  0  0  0  0
    6.7207   11.6657   26.3764 C   0  0  0  0  0  0  0  0  0  0  0  0
    7.8434   12.8281   24.5637 C   0  0  0  0  0  0  0  0  0  0  0  0
   14.4449   15.8148   20.3962 C   0  0  0  0  0  0  0  0  0  0  0  0
   12.2007   15.7119   19.5075 C   0  0  0  0  0  0  0  0  0  0  0  0
    7.2618   10.4422   25.9714 C   0  0  0  0  0  0  0  0  0  0  0  0
   14.8526   16.5481   19.2820 C   0  0  0  0  0  0  0  0  0  0  0  0
   12.6083   16.4453   18.3933 C   0  0  0  0  0  0  0  0  0  0  0  0
    9.4697    9.8719   23.1578 C   0  0  0  0  0  0  0  0  0  0  0  0
    8.4006   11.6063   24.1367 C   0  0  0  0  0  0  0  0  0  0  0  0
   13.1190   15.3966   20.5090 C   0  0  0  0  0  0  0  0  0  0  0  0
    9.2670   11.2301   23.0724 C   0  0  0  0  0  0  0  0  0  0  0  0
    8.0975   10.4439   24.8489 C   0  0  0  0  0  0  0  0  0  0  0  0
   13.9343   16.8634   18.2805 C   0  0  0  0  0  0  0  0  0  0  0  0
   12.6844   14.6157   21.6958 C   0  0  0  0  0  0  0  0  0  0  0  0
   10.6485   13.8270   23.7506 C   0  0  0  0  0  0  0  0  0  0  0  0
    9.8511   12.1270   22.0546 C   0  0  0  0  0  0  0  0  0  0  0  0
   11.0492   12.9637   22.5634 C   0  0  1  0  0  0  0  0  0  0  0  0
    8.7600    9.4067   24.2322 N   0  0  0  0  0  0  0  0  0  0  0  0
   11.6027   13.7680   21.5029 N   0  0  0  0  0  0  0  0  0  0  0  0
   13.2725   14.7691   22.7631 O   0  0  0  0  0  0  0  0  0  0  0  0
   10.7464   13.4495   24.9136 O   0  0  0  0  0  0  0  0  0  0  0  0
   10.1784   15.0556   23.4276 O   0  0  0  0  0  0  0  0  0  0  0  0
   14.4369   17.7693   16.9067 Cl  0  0  0  0  0  0  0  0  0  0  0  0
    6.5726   13.7806   26.0187 H   0  0  0  0  0  0  0  0  0  0  0  0
    6.0676   11.6992   27.2446 H   0  0  0  0  0  0  0  0  0  0  0  0
    8.0551   13.7530   24.0349 H   0  0  0  0  0  0  0  0  0  0  0  0
   15.1689   15.5741   21.1705 H   0  0  0  0  0  0  0  0  0  0  0  0
   11.1649   15.3915   19.5851 H   0  0  0  0  0  0  0  0  0  0  0  0
    7.0403    9.5276   26.5109 H   0  0  0  0  0  0  0  0  0  0  0  0
   15.8887   16.8681   19.2074 H   0  0  0  0  0  0  0  0  0  0  0  0
   11.8816   16.6833   17.6207 H   0  0  0  0  0  0  0  0  0  0  0  0
   10.0534    9.1940   22.5503 H   0  0  0  0  0  0  0  0  0  0  0  0
    9.0702   12.8142   21.6707 H   0  0  0  0  0  0  0  0  0  0  0  0
   10.1713   11.5617   21.1545 H   0  0  0  0  0  0  0  0  0  0  0  0
   11.8609   12.3104   22.9037 H   0  0  0  0  0  0  0  0  0  0  0  0
    8.7269    8.4415   24.5303 H   0  0  0  0  0  0  0  0  0  0  0  0
   11.1287   13.7430   20.6041 H   0  0  0  0  0  0  0  0  0  0  0  0
   10.1459   15.2446   22.4662 H   0  0  0  0  0  0  0  0  0  0  0  0
  1  2  2  0  0  0  0
  1  3  1  0  0  0  0
  2  6  1  0  0  0  0
  3 10  2  0  0  0  0
  4  7  1  0  0  0  0
  4 11  2  0  0  0  0
  5  8  2  0  0  0  0
  5 11  1  0  0  0  0
  6 13  2  0  0  0  0
  7 14  2  0  0  0  0
  8 14  1  0  0  0  0
  9 12  2  0  0  0  0
  9 19  1  0  0  0  0
 10 12  1  0  0  0  0
 10 13  1  0  0  0  0
 11 15  1  0  0  0  0
 12 17  1  0  0  0  0
 13 19  1  0  0  0  0
 14 24  1  0  0  0  0
 15 20  1  0  0  0  0
 15 21  2  0  0  0  0
 16 18  1  0  0  0  0
 16 22  2  0  0  0  0
 16 23  1  0  0  0  0
 17 18  1  0  0  0  0
 18 20  1  0  0  0  0
  1 25  1  0  0  0  0
  2 26  1  0  0  0  0
  3 27  1  0  0  0  0
  4 28  1  0  0  0  0
  5 29  1  0  0  0  0
  6 30  1  0  0  0  0
  7 31  1  0  0  0  0
  8 32  1  0  0  0  0
  9 33  1  0  0  0  0
 17 34  1  0  0  0  0
 17 35  1  0  0  0  0
 18 36  1  0  0  0  0
 19 37  1  0  0  0  0
 20 38  1  0  0  0  0
 23 39  1  0  0  0  0
M  END
> <Catalog ID>
Z85881728

> <PlateID>
1041831-R-18

> <Well>
A07

> <MW (desalted)>
342.776

> <ClogP>
3.285

> <HBD>
3

> <TPSA>
82.190

> <RotBonds>
5

> <ROCS_ShapeQuery>
A71EV2A-x0451_0A_A71EV2A-x0310_0A_A71EV2A-x0416_0A_peptide

> <ROCS_TanimotoCombo>
0.552 

> <ROCS_ShapeTanimoto>
0.354 

> <ROCS_ColorTanimoto>
0.198 

> <ROCS_RefTversky>
0.314 

> <ROCS_RefColorTversky>
0.220 

> <ROCS_RefTverskyCombo>
0.534 

> <ROCS_FitTversky>
1.565 

> <ROCS_FitColorTversky>
0.662 

> <ROCS_FitTverskyCombo>
2.227 

> <ROCS_ColorScore>
-6.724

> <ROCS_Overlap>
2180.742

> <ROCS_Rank>
81                  

$$$$
untitled-dbase-3026_2981
  -OEChem-11132311063D

 47 50  0     1  0  0  0  0  0999 V2000
   12.6023   16.7662   18.4349 C   0  0  0  0  0  0  0  0  0  0  0  0
   12.5048   17.1298   19.7759 C   0  0  0  0  0  0  0  0  0  0  0  0
    7.9109   12.7497   24.5413 C   0  0  0  0  0  0  0  0  0  0  0  0
   13.3037   15.6171   18.0732 C   0  0  0  0  0  0  0  0  0  0  0  0
   13.1007   16.3400   20.7597 C   0  0  0  0  0  0  0  0  0  0  0  0
    6.9141   12.7493   25.5238 C   0  0  0  0  0  0  0  0  0  0  0  0
    6.9795   10.3244   25.6651 C   0  0  0  0  0  0  0  0  0  0  0  0
    9.5532    9.7837   23.1752 C   0  0  0  0  0  0  0  0  0  0  0  0
    8.4528   11.5220   24.1116 C   0  0  0  0  0  0  0  0  0  0  0  0
   13.9158   14.8255   19.0533 C   0  0  0  0  0  0  0  0  0  0  0  0
   13.7942   15.1720   20.4112 C   0  0  0  0  0  0  0  0  0  0  0  0
    9.4476   11.1554   23.1624 C   0  0  0  0  0  0  0  0  0  0  0  0
    7.9755   10.3401   24.6823 C   0  0  0  0  0  0  0  0  0  0  0  0
    6.4571   11.5542   26.0757 C   0  0  0  0  0  0  0  0  0  0  0  0
   13.5368   13.9412   22.5707 C   0  0  0  0  0  0  0  0  0  0  0  0
   10.8307   13.9344   23.8851 C   0  0  0  0  0  0  0  0  0  0  0  0
   14.6582   13.5752   18.6629 C   0  0  0  0  0  0  0  0  0  0  0  0
   15.6210   13.1542   19.7650 C   0  0  0  0  0  0  0  0  0  0  0  0
   14.4645   14.3259   21.4678 C   0  0  1  0  0  0  0  0  0  0  0  0
   10.2485   12.0939   22.2923 C   0  0  0  0  0  0  0  0  0  0  0  0
   11.3862   12.7893   23.0510 C   0  0  1  0  0  0  0  0  0  0  0  0
    8.6613    9.3009   24.0948 N   0  0  0  0  0  0  0  0  0  0  0  0
   12.4133   13.2568   22.1479 N   0  0  0  0  0  0  0  0  0  0  0  0
   13.8152   14.2398   23.7262 O   0  0  0  0  0  0  0  0  0  0  0  0
   10.4689   13.7979   25.0492 O   0  0  0  0  0  0  0  0  0  0  0  0
   14.9036   13.0473   20.9931 O   0  0  0  0  0  0  0  0  0  0  0  0
   10.7706   15.1270   23.2457 O   0  0  0  0  0  0  0  0  0  0  0  0
    5.5014   11.5833   27.0149 F   0  0  0  0  0  0  0  0  0  0  0  0
   12.1344   17.3797   17.6705 H   0  0  0  0  0  0  0  0  0  0  0  0
   11.9647   18.0294   20.0565 H   0  0  0  0  0  0  0  0  0  0  0  0
    8.2560   13.6898   24.1204 H   0  0  0  0  0  0  0  0  0  0  0  0
   13.3743   15.3439   17.0236 H   0  0  0  0  0  0  0  0  0  0  0  0
   13.0200   16.6435   21.8005 H   0  0  0  0  0  0  0  0  0  0  0  0
    6.4931   13.6933   25.8595 H   0  0  0  0  0  0  0  0  0  0  0  0
    6.6231    9.3948   26.0957 H   0  0  0  0  0  0  0  0  0  0  0  0
   10.1821    9.1066   22.6138 H   0  0  0  0  0  0  0  0  0  0  0  0
   13.9164   12.7843   18.4985 H   0  0  0  0  0  0  0  0  0  0  0  0
   15.2143   13.7300   17.7318 H   0  0  0  0  0  0  0  0  0  0  0  0
   16.0477   12.1730   19.5340 H   0  0  0  0  0  0  0  0  0  0  0  0
   16.4515   13.8617   19.8803 H   0  0  0  0  0  0  0  0  0  0  0  0
   15.3232   14.8597   21.8904 H   0  0  0  0  0  0  0  0  0  0  0  0
    9.5595   12.8372   21.8694 H   0  0  0  0  0  0  0  0  0  0  0  0
   10.6493   11.5469   21.4279 H   0  0  0  0  0  0  0  0  0  0  0  0
   11.8829   12.1012   23.7448 H   0  0  0  0  0  0  0  0  0  0  0  0
    8.5257    8.3231   24.3117 H   0  0  0  0  0  0  0  0  0  0  0  0
   12.3040   13.0735   21.1551 H   0  0  0  0  0  0  0  0  0  0  0  0
   11.0873   15.1134   22.3180 H   0  0  0  0  0  0  0  0  0  0  0  0
  1  2  2  0  0  0  0
  1  4  1  0  0  0  0
  2  5  1  0  0  0  0
  3  6  1  0  0  0  0
  3  9  2  0  0  0  0
  4 10  2  0  0  0  0
  5 11  2  0  0  0  0
  6 14  2  0  0  0  0
  7 13  2  0  0  0  0
  7 14  1  0  0  0  0
  8 12  2  0  0  0  0
  8 22  1  0  0  0  0
  9 12  1  0  0  0  0
  9 13  1  0  0  0  0
 10 11  1  0  0  0  0
 10 17  1  0  0  0  0
 11 19  1  0  0  0  0
 12 20  1  0  0  0  0
 13 22  1  0  0  0  0
 14 28  1  0  0  0  0
 15 19  1  0  0  0  0
 15 23  1  0  0  0  0
 15 24  2  0  0  0  0
 16 21  1  0  0  0  0
 16 25  2  0  0  0  0
 16 27  1  0  0  0  0
 17 18  1  0  0  0  0
 18 26  1  0  0  0  0
 19 26  1  0  0  0  0
 20 21  1  0  0  0  0
 21 23  1  0  0  0  0
  1 29  1  0  0  0  0
  2 30  1  0  0  0  0
  3 31  1  0  0  0  0
  4 32  1  0  0  0  0
  5 33  1  0  0  0  0
  6 34  1  0  0  0  0
  7 35  1  0  0  0  0
  8 36  1  0  0  0  0
 17 37  1  0  0  0  0
 17 38  1  0  0  0  0
 18 39  1  0  0  0  0
 18 40  1  0  0  0  0
 19 41  1  0  0  0  0
 20 42  1  0  0  0  0
 20 43  1  0  0  0  0
 21 44  1  0  0  0  0
 22 45  1  0  0  0  0
 23 46  1  0  0  0  0
 27 47  1  0  0  0  0
M  END
> <Catalog ID>
Z1603710034

> <PlateID>
1041831-R-38

> <Well>
G07

> <MW (desalted)>
382.385

> <ClogP>
2.892

> <HBD>
3

> <TPSA>
91.420

> <RotBonds>
5

> <ROCS_ShapeQuery>
A71EV2A-x0451_0A_A71EV2A-x0310_0A_A71EV2A-x0416_0A_peptide

> <ROCS_TanimotoCombo>
0.551 

> <ROCS_ShapeTanimoto>
0.352 

> <ROCS_ColorTanimoto>
0.200 

> <ROCS_RefTversky>
0.320 

> <ROCS_RefColorTversky>
0.232 

> <ROCS_RefTverskyCombo>
0.551 

> <ROCS_FitTversky>
1.400 

> <ROCS_FitColorTversky>
0.589 

> <ROCS_FitTverskyCombo>
1.989 

> <ROCS_ColorScore>
-7.109

> <ROCS_Overlap>
2224.449

> <ROCS_Rank>
82                  

$$$$
untitled-dbase-356_5761
  -OEChem-11132311063D

 40 42  0     1  0  0  0  0  0999 V2000
    7.8768   12.8527   24.3531 C   0  0  0  0  0  0  0  0  0  0  0  0
    6.9234   12.8250   25.3774 C   0  0  0  0  0  0  0  0  0  0  0  0
    7.2278   10.4319   25.6688 C   0  0  0  0  0  0  0  0  0  0  0  0
    9.7435    9.9685   23.1050 C   0  0  0  0  0  0  0  0  0  0  0  0
    8.5175   11.6550   23.9780 C   0  0  0  0  0  0  0  0  0  0  0  0
    9.5055   11.3203   23.0102 C   0  0  0  0  0  0  0  0  0  0  0  0
    8.1789   10.4747   24.6432 C   0  0  0  0  0  0  0  0  0  0  0  0
    6.6055   11.6321   26.0238 C   0  0  0  0  0  0  0  0  0  0  0  0
   13.2268   14.3599   21.8048 C   0  0  0  0  0  0  0  0  0  0  0  0
   10.7187   13.9524   23.8544 C   0  0  0  0  0  0  0  0  0  0  0  0
   12.8245   16.4625   20.5285 C   0  0  0  0  0  0  0  0  0  0  0  0
   12.9179   16.7547   19.0508 C   0  0  0  0  0  0  0  0  0  0  0  0
   13.5095   14.5275   19.3233 C   0  0  0  0  0  0  0  0  0  0  0  0
   13.6759   15.2203   20.6674 C   0  0  2  0  0  0  0  0  0  0  0  0
   10.1634   12.2485   22.0682 C   0  0  0  0  0  0  0  0  0  0  0  0
   11.2718   13.1176   22.7087 C   0  0  1  0  0  0  0  0  0  0  0  0
    8.9384    9.4672   24.0925 N   0  0  0  0  0  0  0  0  0  0  0  0
   11.9069   13.9527   21.7202 N   0  0  0  0  0  0  0  0  0  0  0  0
   14.0166   14.0797   22.6990 O   0  0  0  0  0  0  0  0  0  0  0  0
   10.7058   13.5639   25.0178 O   0  0  0  0  0  0  0  0  0  0  0  0
   12.9463   15.4784   18.4071 O   0  0  0  0  0  0  0  0  0  0  0  0
   10.2440   15.1689   23.4943 O   0  0  0  0  0  0  0  0  0  0  0  0
    5.6885   11.6346   27.0013 F   0  0  0  0  0  0  0  0  0  0  0  0
    8.1130   13.7906   23.8585 H   0  0  0  0  0  0  0  0  0  0  0  0
    6.4266   13.7458   25.6713 H   0  0  0  0  0  0  0  0  0  0  0  0
    6.9797    9.5041   26.1729 H   0  0  0  0  0  0  0  0  0  0  0  0
   10.4125    9.3172   22.5599 H   0  0  0  0  0  0  0  0  0  0  0  0
   13.2795   17.2840   21.0932 H   0  0  0  0  0  0  0  0  0  0  0  0
   11.7915   16.3452   20.8653 H   0  0  0  0  0  0  0  0  0  0  0  0
   12.0384   17.2926   18.6936 H   0  0  0  0  0  0  0  0  0  0  0  0
   13.8111   17.3205   18.7893 H   0  0  0  0  0  0  0  0  0  0  0  0
   14.4806   14.2226   18.9166 H   0  0  0  0  0  0  0  0  0  0  0  0
   12.8619   13.6450   19.3643 H   0  0  0  0  0  0  0  0  0  0  0  0
   14.7409   15.4706   20.8591 H   0  0  0  0  0  0  0  0  0  0  0  0
    9.4046   12.9145   21.6097 H   0  0  0  0  0  0  0  0  0  0  0  0
   10.5959   11.7052   21.2022 H   0  0  0  0  0  0  0  0  0  0  0  0
   12.0647   12.4871   23.1275 H   0  0  0  0  0  0  0  0  0  0  0  0
    8.9064    8.4979   24.3766 H   0  0  0  0  0  0  0  0  0  0  0  0
   11.3573   14.2580   20.9204 H   0  0  0  0  0  0  0  0  0  0  0  0
   10.3071   15.3687   22.5366 H   0  0  0  0  0  0  0  0  0  0  0  0
  1  2  1  0  0  0  0
  1  5  2  0  0  0  0
  2  8  2  0  0  0  0
  3  7  2  0  0  0  0
  3  8  1  0  0  0  0
  4  6  2  0  0  0  0
  4 17  1  0  0  0  0
  5  6  1  0  0  0  0
  5  7  1  0  0  0  0
  6 15  1  0  0  0  0
  7 17  1  0  0  0  0
  8 23  1  0  0  0  0
  9 14  1  0  0  0  0
  9 18  1  0  0  0  0
  9 19  2  0  0  0  0
 10 16  1  0  0  0  0
 10 20  2  0  0  0  0
 10 22  1  0  0  0  0
 11 12  1  0  0  0  0
 11 14  1  0  0  0  0
 12 21  1  0  0  0  0
 13 14  1  0  0  0  0
 13 21  1  0  0  0  0
 15 16  1  0  0  0  0
 16 18  1  0  0  0  0
  1 24  1  0  0  0  0
  2 25  1  0  0  0  0
  3 26  1  0  0  0  0
  4 27  1  0  0  0  0
 11 28  1  0  0  0  0
 11 29  1  0  0  0  0
 12 30  1  0  0  0  0
 12 31  1  0  0  0  0
 13 32  1  0  0  0  0
 13 33  1  0  0  0  0
 14 34  1  0  0  0  0
 15 35  1  0  0  0  0
 15 36  1  0  0  0  0
 16 37  1  0  0  0  0
 17 38  1  0  0  0  0
 18 39  1  0  0  0  0
 22 40  1  0  0  0  0
M  END
> <Catalog ID>
Z1603708496

> <PlateID>
1041831-R-05

> <Well>
D07

> <MW (desalted)>
320.316

> <ClogP>
1.349

> <HBD>
3

> <TPSA>
91.420

> <RotBonds>
5

> <ROCS_ShapeQuery>
A71EV2A-x0451_0A_A71EV2A-x0310_0A_A71EV2A-x0416_0A_peptide

> <ROCS_TanimotoCombo>
0.551 

> <ROCS_ShapeTanimoto>
0.356 

> <ROCS_ColorTanimoto>
0.195 

> <ROCS_RefTversky>
0.314 

> <ROCS_RefColorTversky>
0.222 

> <ROCS_RefTverskyCombo>
0.536 

> <ROCS_FitTversky>
1.608 

> <ROCS_FitColorTversky>
0.612 

> <ROCS_FitTverskyCombo>
2.221 

> <ROCS_ColorScore>
-6.805

> <ROCS_Overlap>
2181.169

> <ROCS_Rank>
83                  

$$$$
untitled-dbase-1463_1239
  -OEChem-11132311063D

 49 52  0     0  0  0  0  0  0999 V2000
    6.1737   12.7968   25.5920 C   0  0  0  0  0  0  0  0  0  0  0  0
    5.7811   11.4746   25.7596 C   0  0  0  0  0  0  0  0  0  0  0  0
    7.3564   13.0818   24.9157 C   0  0  0  0  0  0  0  0  0  0  0  0
    6.5714   10.4411   25.2507 C   0  0  0  0  0  0  0  0  0  0  0  0
   10.1087   11.2516   23.2257 C   0  0  0  0  0  0  0  0  0  0  0  0
    8.1512   12.0420   24.4039 C   0  0  0  0  0  0  0  0  0  0  0  0
    9.3463   12.3005   23.7192 C   0  0  0  0  0  0  0  0  0  0  0  0
    7.7586   10.6973   24.5702 C   0  0  0  0  0  0  0  0  0  0  0  0
    9.6433    9.9697   23.4373 C   0  0  0  0  0  0  0  0  0  0  0  0
   13.3523   15.9366   20.9545 C   0  0  0  0  0  0  0  0  0  0  0  0
   11.3890   15.7763   21.8822 C   0  0  0  0  0  0  0  0  0  0  0  0
    9.8451   13.6530   23.4894 C   0  0  0  0  0  0  0  0  0  0  0  0
   14.1284   16.0477   19.7101 C   0  0  0  0  0  0  0  0  0  0  0  0
   13.0524   15.6934   18.6458 C   0  0  0  0  0  0  0  0  0  0  0  0
   11.6829   15.9587   19.3069 C   0  0  0  0  0  0  0  0  0  0  0  0
   10.2110    7.5352   23.7608 C   0  0  0  0  0  0  0  0  0  0  0  0
   11.9370    9.1190   22.8295 C   0  0  0  0  0  0  0  0  0  0  0  0
    8.5846   13.7158   21.3268 C   0  0  0  0  0  0  0  0  0  0  0  0
    9.8969   15.6883   22.0240 C   0  0  0  0  0  0  0  0  0  0  0  0
   10.4312    8.8102   22.9255 C   0  0  0  0  0  0  0  0  0  0  0  0
    8.4965    9.6774   24.0924 N   0  0  0  0  0  0  0  0  0  0  0  0
   13.5659   15.8588   22.2417 N   0  0  0  0  0  0  0  0  0  0  0  0
   12.3039   15.7563   22.8381 N   0  0  0  0  0  0  0  0  0  0  0  0
   12.0194   15.8951   20.7089 N   0  0  0  0  0  0  0  0  0  0  0  0
    9.4552   14.3274   22.3209 N   0  0  0  0  0  0  0  0  0  0  0  0
   10.5809   14.1298   24.3602 O   0  0  0  0  0  0  0  0  0  0  0  0
    5.5631   13.6027   25.9874 H   0  0  0  0  0  0  0  0  0  0  0  0
    4.8588   11.2440   26.2850 H   0  0  0  0  0  0  0  0  0  0  0  0
    7.6404   14.1250   24.8003 H   0  0  0  0  0  0  0  0  0  0  0  0
    6.2421    9.4137   25.3961 H   0  0  0  0  0  0  0  0  0  0  0  0
   11.0371   11.4296   22.6920 H   0  0  0  0  0  0  0  0  0  0  0  0
   14.4883   17.0717   19.5697 H   0  0  0  0  0  0  0  0  0  0  0  0
   14.9730   15.3554   19.6707 H   0  0  0  0  0  0  0  0  0  0  0  0
   13.1845   16.2535   17.7151 H   0  0  0  0  0  0  0  0  0  0  0  0
   13.1312   14.6263   18.3992 H   0  0  0  0  0  0  0  0  0  0  0  0
   11.3090   16.9644   19.0956 H   0  0  0  0  0  0  0  0  0  0  0  0
   10.9389   15.1961   19.0662 H   0  0  0  0  0  0  0  0  0  0  0  0
   10.5065    7.6812   24.8055 H   0  0  0  0  0  0  0  0  0  0  0  0
   10.7902    6.6933   23.3662 H   0  0  0  0  0  0  0  0  0  0  0  0
    9.1534    7.2487   23.7501 H   0  0  0  0  0  0  0  0  0  0  0  0
   12.3384    9.3775   23.8157 H   0  0  0  0  0  0  0  0  0  0  0  0
   12.1303    9.9622   22.1574 H   0  0  0  0  0  0  0  0  0  0  0  0
   12.5020    8.2588   22.4539 H   0  0  0  0  0  0  0  0  0  0  0  0
    7.5354   13.9388   21.5706 H   0  0  0  0  0  0  0  0  0  0  0  0
    8.8236   14.1200   20.3320 H   0  0  0  0  0  0  0  0  0  0  0  0
    8.7373   12.6264   21.3263 H   0  0  0  0  0  0  0  0  0  0  0  0
    9.5467   16.3403   22.8315 H   0  0  0  0  0  0  0  0  0  0  0  0
    9.3953   16.0101   21.1053 H   0  0  0  0  0  0  0  0  0  0  0  0
   10.1058    8.5609   21.8979 H   0  0  0  0  0  0  0  0  0  0  0  0
  1  2  2  0  0  0  0
  1  3  1  0  0  0  0
  2  4  1  0  0  0  0
  3  6  2  0  0  0  0
  4  8  2  0  0  0  0
  5  7  2  0  0  0  0
  5  9  1  0  0  0  0
  6  7  1  0  0  0  0
  6  8  1  0  0  0  0
  7 12  1  0  0  0  0
  8 21  1  0  0  0  0
  9 20  1  0  0  0  0
  9 21  2  0  0  0  0
 10 13  1  0  0  0  0
 10 22  2  0  0  0  0
 10 24  1  0  0  0  0
 11 19  1  0  0  0  0
 11 23  2  0  0  0  0
 11 24  1  0  0  0  0
 12 25  1  0  0  0  0
 12 26  2  0  0  0  0
 13 14  1  0  0  0  0
 14 15  1  0  0  0  0
 15 24  1  0  0  0  0
 16 20  1  0  0  0  0
 17 20  1  0  0  0  0
 18 25  1  0  0  0  0
 19 25  1  0  0  0  0
 22 23  1  0  0  0  0
  1 27  1  0  0  0  0
  2 28  1  0  0  0  0
  3 29  1  0  0  0  0
  4 30  1  0  0  0  0
  5 31  1  0  0  0  0
 13 32  1  0  0  0  0
 13 33  1  0  0  0  0
 14 34  1  0  0  0  0
 14 35  1  0  0  0  0
 15 36  1  0  0  0  0
 15 37  1  0  0  0  0
 16 38  1  0  0  0  0
 16 39  1  0  0  0  0
 16 40  1  0  0  0  0
 17 41  1  0  0  0  0
 17 42  1  0  0  0  0
 17 43  1  0  0  0  0
 18 44  1  0  0  0  0
 18 45  1  0  0  0  0
 18 46  1  0  0  0  0
 19 47  1  0  0  0  0
 19 48  1  0  0  0  0
 20 49  1  0  0  0  0
M  END
> <Catalog ID>
Z594993074

> <PlateID>
1041831-R-19

> <Well>
C04

> <MW (desalted)>
349.430

> <ClogP>
1.566

> <HBD>
0

> <TPSA>
63.910

> <RotBonds>
4

> <ROCS_ShapeQuery>
A71EV2A-x0451_0A_A71EV2A-x0310_0A_A71EV2A-x0416_0A_peptide

> <ROCS_TanimotoCombo>
0.551 

> <ROCS_ShapeTanimoto>
0.364 

> <ROCS_ColorTanimoto>
0.187 

> <ROCS_RefTversky>
0.325 

> <ROCS_RefColorTversky>
0.212 

> <ROCS_RefTverskyCombo>
0.536 

> <ROCS_FitTversky>
1.496 

> <ROCS_FitColorTversky>
0.619 

> <ROCS_FitTverskyCombo>
2.114 

> <ROCS_ColorScore>
-6.473

> <ROCS_Overlap>
2257.580

> <ROCS_Rank>
84                  

$$$$
untitled-dbase-1643_505
  -OEChem-11132311063D

 42 45  0     0  0  0  0  0  0999 V2000
    7.6933    8.0922   22.7807 C   0  0  0  0  0  0  0  0  0  0  0  0
   10.1038    8.1059   22.6192 C   0  0  0  0  0  0  0  0  0  0  0  0
    7.6687    6.7818   22.3033 C   0  0  0  0  0  0  0  0  0  0  0  0
   10.0793    6.7955   22.1419 C   0  0  0  0  0  0  0  0  0  0  0  0
   15.1454   15.1812   24.1635 C   0  0  0  0  0  0  0  0  0  0  0  0
    8.4528   11.9208   24.4596 C   0  0  0  0  0  0  0  0  0  0  0  0
    8.9108    8.7543   22.9386 C   0  0  0  0  0  0  0  0  0  0  0  0
    8.8617    6.1334   21.9839 C   0  0  0  0  0  0  0  0  0  0  0  0
   14.6756   13.9088   24.4135 C   0  0  0  0  0  0  0  0  0  0  0  0
    9.6041   12.0641   23.6915 C   0  0  0  0  0  0  0  0  0  0  0  0
    8.0552   10.6346   24.2589 C   0  0  0  0  0  0  0  0  0  0  0  0
   13.1796   14.5279   22.9341 C   0  0  0  0  0  0  0  0  0  0  0  0
   10.4300   13.2260   23.5374 C   0  0  0  0  0  0  0  0  0  0  0  0
   15.2888   12.9987   25.3395 C   0  0  0  0  0  0  0  0  0  0  0  0
    7.5465   12.6332   25.3720 C   0  0  0  0  0  0  0  0  0  0  0  0
    6.8408   10.2271   24.9738 C   0  0  0  0  0  0  0  0  0  0  0  0
    6.6739   11.4532   25.9420 C   0  0  0  0  0  0  0  0  0  0  0  0
   11.9932   14.4939   22.0146 C   0  0  0  0  0  0  0  0  0  0  0  0
   13.5482   13.5326   23.7098 N   0  0  0  0  0  0  0  0  0  0  0  0
    9.9129   10.9259   23.0425 N   0  0  0  0  0  0  0  0  0  0  0  0
    8.9351   10.0610   23.4147 N   0  0  0  0  0  0  0  0  0  0  0  0
   11.1088   13.3907   22.3135 N   0  0  0  0  0  0  0  0  0  0  0  0
   10.5628   14.0591   24.4657 O   0  0  0  0  0  0  0  0  0  0  0  0
   15.9182   13.3111   26.3687 O   0  0  0  0  0  0  0  0  0  0  0  0
   15.1233   11.6850   24.9937 O   0  0  0  0  0  0  0  0  0  0  0  0
    8.8381    4.8751   21.5256 F   0  0  0  0  0  0  0  0  0  0  0  0
   14.1438   15.9460   23.0004 S   0  0  0  0  0  0  0  0  0  0  0  0
    6.7557    8.5857   23.0250 H   0  0  0  0  0  0  0  0  0  0  0  0
   11.0599    8.6099   22.7385 H   0  0  0  0  0  0  0  0  0  0  0  0
    6.7210    6.2663   22.1793 H   0  0  0  0  0  0  0  0  0  0  0  0
   11.0078    6.2898   21.8939 H   0  0  0  0  0  0  0  0  0  0  0  0
   16.0006   15.6859   24.5907 H   0  0  0  0  0  0  0  0  0  0  0  0
    8.0704   13.1574   26.1756 H   0  0  0  0  0  0  0  0  0  0  0  0
    6.9159   13.3402   24.8234 H   0  0  0  0  0  0  0  0  0  0  0  0
    5.9854   10.1558   24.2955 H   0  0  0  0  0  0  0  0  0  0  0  0
    6.9521    9.2951   25.5330 H   0  0  0  0  0  0  0  0  0  0  0  0
    7.0554   11.1775   26.9341 H   0  0  0  0  0  0  0  0  0  0  0  0
    5.6247   11.7408   26.0641 H   0  0  0  0  0  0  0  0  0  0  0  0
   11.4153   15.4210   22.0956 H   0  0  0  0  0  0  0  0  0  0  0  0
   12.3081   14.3972   20.9703 H   0  0  0  0  0  0  0  0  0  0  0  0
   11.0253   12.6628   21.6114 H   0  0  0  0  0  0  0  0  0  0  0  0
   14.6128   11.5543   24.1663 H   0  0  0  0  0  0  0  0  0  0  0  0
  1  3  1  0  0  0  0
  1  7  2  0  0  0  0
  2  4  2  0  0  0  0
  2  7  1  0  0  0  0
  3  8  2  0  0  0  0
  4  8  1  0  0  0  0
  5  9  2  0  0  0  0
  5 27  1  0  0  0  0
  6 10  1  0  0  0  0
  6 11  2  0  0  0  0
  6 15  1  0  0  0  0
  7 21  1  0  0  0  0
  8 26  1  0  0  0  0
  9 14  1  0  0  0  0
  9 19  1  0  0  0  0
 10 13  1  0  0  0  0
 10 20  2  0  0  0  0
 11 16  1  0  0  0  0
 11 21  1  0  0  0  0
 12 18  1  0  0  0  0
 12 19  2  0  0  0  0
 12 27  1  0  0  0  0
 13 22  1  0  0  0  0
 13 23  2  0  0  0  0
 14 24  2  0  0  0  0
 14 25  1  0  0  0  0
 15 17  1  0  0  0  0
 16 17  1  0  0  0  0
 18 22  1  0  0  0  0
 20 21  1  0  0  0  0
  1 28  1  0  0  0  0
  2 29  1  0  0  0  0
  3 30  1  0  0  0  0
  4 31  1  0  0  0  0
  5 32  1  0  0  0  0
 15 33  1  0  0  0  0
 15 34  1  0  0  0  0
 16 35  1  0  0  0  0
 16 36  1  0  0  0  0
 17 37  1  0  0  0  0
 17 38  1  0  0  0  0
 18 39  1  0  0  0  0
 18 40  1  0  0  0  0
 22 41  1  0  0  0  0
 25 42  1  0  0  0  0
M  END
> <Catalog ID>
Z1445400518

> <PlateID>
1041831-R-21

> <Well>
E04

> <MW (desalted)>
386.400

> <ClogP>
3.163

> <HBD>
2

> <TPSA>
97.110

> <RotBonds>
5

> <ROCS_ShapeQuery>
A71EV2A-x0451_0A_A71EV2A-x0310_0A_A71EV2A-x0416_0A_peptide

> <ROCS_TanimotoCombo>
0.550 

> <ROCS_ShapeTanimoto>
0.344 

> <ROCS_ColorTanimoto>
0.206 

> <ROCS_RefTversky>
0.313 

> <ROCS_RefColorTversky>
0.238 

> <ROCS_RefTverskyCombo>
0.551 

> <ROCS_FitTversky>
1.411 

> <ROCS_FitColorTversky>
0.604 

> <ROCS_FitTverskyCombo>
2.016 

> <ROCS_ColorScore>
-7.306

> <ROCS_Overlap>
2177.373

> <ROCS_Rank>
85                  

$$$$
untitled-dbase-3019_9577
  -OEChem-11132311063D

 43 45  0     1  0  0  0  0  0999 V2000
    7.0564   10.2159   25.7337 C   0  0  0  0  0  0  0  0  0  0  0  0
    6.2386   11.2990   26.0681 C   0  0  0  0  0  0  0  0  0  0  0  0
    7.3952   12.7347   24.4876 C   0  0  0  0  0  0  0  0  0  0  0  0
    9.7480   10.1971   23.3106 C   0  0  0  0  0  0  0  0  0  0  0  0
    8.2318   11.6574   24.1342 C   0  0  0  0  0  0  0  0  0  0  0  0
    9.3104   11.4983   23.2197 C   0  0  0  0  0  0  0  0  0  0  0  0
    8.0435   10.4253   24.7641 C   0  0  0  0  0  0  0  0  0  0  0  0
    6.4036   12.5399   25.4559 C   0  0  0  0  0  0  0  0  0  0  0  0
   11.4105   15.0793   21.5435 C   0  0  0  0  0  0  0  0  0  0  0  0
   11.6296   13.2079   23.9767 C   0  0  0  0  0  0  0  0  0  0  0  0
   14.3312   16.7758   19.7536 C   0  0  0  0  0  0  0  0  0  0  0  0
   13.5794   16.0614   20.8718 C   0  0  0  0  0  0  0  0  0  0  0  0
   14.0309   16.1332   18.4060 C   0  0  0  0  0  0  0  0  0  0  0  0
   11.9192   15.3404   19.1295 C   0  0  0  0  0  0  0  0  0  0  0  0
   12.0970   15.9329   20.5244 C   0  0  1  0  0  0  0  0  0  0  0  0
    9.8801   12.5591   22.3088 C   0  0  0  0  0  0  0  0  0  0  0  0
   11.3789   12.7984   22.5328 C   0  0  1  0  0  0  0  0  0  0  0  0
    8.9776    9.5577   24.2445 N   0  0  0  0  0  0  0  0  0  0  0  0
   11.8973   13.7881   21.6159 N   0  0  0  0  0  0  0  0  0  0  0  0
   10.5051   15.5547   22.2187 O   0  0  0  0  0  0  0  0  0  0  0  0
   10.8000   13.8048   24.6549 O   0  0  0  0  0  0  0  0  0  0  0  0
   12.6253   16.1125   18.1583 O   0  0  0  0  0  0  0  0  0  0  0  0
   12.8432   12.8563   24.4651 O   0  0  0  0  0  0  0  0  0  0  0  0
    5.2720   13.9792   25.9340 Br  0  0  0  0  0  0  0  0  0  0  0  0
    6.9275    9.2505   26.2116 H   0  0  0  0  0  0  0  0  0  0  0  0
    5.4661   11.1523   26.8201 H   0  0  0  0  0  0  0  0  0  0  0  0
    7.5253   13.7021   24.0094 H   0  0  0  0  0  0  0  0  0  0  0  0
   10.5379    9.6677   22.7961 H   0  0  0  0  0  0  0  0  0  0  0  0
   14.0641   17.8375   19.7356 H   0  0  0  0  0  0  0  0  0  0  0  0
   15.4077   16.7107   19.9512 H   0  0  0  0  0  0  0  0  0  0  0  0
   14.0278   15.0846   21.0530 H   0  0  0  0  0  0  0  0  0  0  0  0
   13.6756   16.6469   21.7881 H   0  0  0  0  0  0  0  0  0  0  0  0
   14.5400   16.6587   17.5884 H   0  0  0  0  0  0  0  0  0  0  0  0
   14.3851   15.0967   18.4016 H   0  0  0  0  0  0  0  0  0  0  0  0
   12.3111   14.3233   19.0877 H   0  0  0  0  0  0  0  0  0  0  0  0
   10.8629   15.3073   18.8552 H   0  0  0  0  0  0  0  0  0  0  0  0
   11.6263   16.9142   20.5685 H   0  0  0  0  0  0  0  0  0  0  0  0
    9.3155   13.4868   22.4721 H   0  0  0  0  0  0  0  0  0  0  0  0
    9.6929   12.2876   21.2609 H   0  0  0  0  0  0  0  0  0  0  0  0
   11.9600   11.8862   22.3546 H   0  0  0  0  0  0  0  0  0  0  0  0
    9.0788    8.5892   24.5148 H   0  0  0  0  0  0  0  0  0  0  0  0
   12.6556   13.5218   20.9950 H   0  0  0  0  0  0  0  0  0  0  0  0
   13.4214   12.3832   23.8304 H   0  0  0  0  0  0  0  0  0  0  0  0
  1  2  1  0  0  0  0
  1  7  2  0  0  0  0
  2  8  2  0  0  0  0
  3  5  2  0  0  0  0
  3  8  1  0  0  0  0
  4  6  2  0  0  0  0
  4 18  1  0  0  0  0
  5  6  1  0  0  0  0
  5  7  1  0  0  0  0
  6 16  1  0  0  0  0
  7 18  1  0  0  0  0
  8 24  1  0  0  0  0
  9 15  1  0  0  0  0
  9 19  1  0  0  0  0
  9 20  2  0  0  0  0
 10 17  1  0  0  0  0
 10 21  2  0  0  0  0
 10 23  1  0  0  0  0
 11 12  1  0  0  0  0
 11 13  1  0  0  0  0
 12 15  1  0  0  0  0
 13 22  1  0  0  0  0
 14 15  1  0  0  0  0
 14 22  1  0  0  0  0
 16 17  1  0  0  0  0
 17 19  1  0  0  0  0
  1 25  1  0  0  0  0
  2 26  1  0  0  0  0
  3 27  1  0  0  0  0
  4 28  1  0  0  0  0
 11 29  1  0  0  0  0
 11 30  1  0  0  0  0
 12 31  1  0  0  0  0
 12 32  1  0  0  0  0
 13 33  1  0  0  0  0
 13 34  1  0  0  0  0
 14 35  1  0  0  0  0
 14 36  1  0  0  0  0
 15 37  1  0  0  0  0
 16 38  1  0  0  0  0
 16 39  1  0  0  0  0
 17 40  1  0  0  0  0
 18 41  1  0  0  0  0
 19 42  1  0  0  0  0
 23 43  1  0  0  0  0
M  END
> <Catalog ID>
Z1603562132

> <PlateID>
1041831-R-38

> <Well>
F10

> <MW (desalted)>
395.248

> <ClogP>
2.498

> <HBD>
3

> <TPSA>
91.420

> <RotBonds>
5

> <ROCS_ShapeQuery>
A71EV2A-x0451_0A_A71EV2A-x0310_0A_A71EV2A-x0416_0A_peptide

> <ROCS_TanimotoCombo>
0.550 

> <ROCS_ShapeTanimoto>
0.373 

> <ROCS_ColorTanimoto>
0.178 

> <ROCS_RefTversky>
0.325 

> <ROCS_RefColorTversky>
0.210 

> <ROCS_RefTverskyCombo>
0.535 

> <ROCS_FitTversky>
1.644 

> <ROCS_FitColorTversky>
0.534 

> <ROCS_FitTverskyCombo>
2.178 

> <ROCS_ColorScore>
-6.444

> <ROCS_Overlap>
2260.675

> <ROCS_Rank>
86                  

$$$$
untitled-dbase-957_3729
  -OEChem-11132311063D

 41 43  0     1  0  0  0  0  0999 V2000
    6.9017   12.8924   25.2182 C   0  0  0  0  0  0  0  0  0  0  0  0
    6.5029   11.7331   25.8807 C   0  0  0  0  0  0  0  0  0  0  0  0
    7.9201   12.8549   24.2589 C   0  0  0  0  0  0  0  0  0  0  0  0
    7.1069   10.5026   25.6070 C   0  0  0  0  0  0  0  0  0  0  0  0
    9.7673    9.8727   23.2317 C   0  0  0  0  0  0  0  0  0  0  0  0
    8.5438   11.6257   23.9662 C   0  0  0  0  0  0  0  0  0  0  0  0
   12.4173   15.3720   20.0809 C   0  0  0  0  0  0  0  0  0  0  0  0
    9.5810   11.2271   23.0773 C   0  0  0  0  0  0  0  0  0  0  0  0
    8.1236   10.4803   24.6457 C   0  0  0  0  0  0  0  0  0  0  0  0
   12.1287   15.8969   18.8093 C   0  0  0  0  0  0  0  0  0  0  0  0
   13.7461   15.6545   20.2559 C   0  0  0  0  0  0  0  0  0  0  0  0
   11.5329   14.6693   21.0458 C   0  0  0  0  0  0  0  0  0  0  0  0
   10.8224   13.8480   23.9154 C   0  0  0  0  0  0  0  0  0  0  0  0
   10.8433   15.8839   18.0913 C   0  0  0  0  0  0  0  0  0  0  0  0
   14.7093   15.4039   21.3366 C   0  0  0  0  0  0  0  0  0  0  0  0
   10.3310   12.1010   22.1523 C   0  0  0  0  0  0  0  0  0  0  0  0
   11.4226   12.9569   22.8379 C   0  0  1  0  0  0  0  0  0  0  0  0
   13.1969   16.4617   18.2393 N   0  0  0  0  0  0  0  0  0  0  0  0
    8.8835    9.4312   24.1796 N   0  0  0  0  0  0  0  0  0  0  0  0
   12.1499   13.7368   21.8680 N   0  0  0  0  0  0  0  0  0  0  0  0
   10.3316   14.9248   21.0548 O   0  0  0  0  0  0  0  0  0  0  0  0
   10.3995   14.9769   23.6888 O   0  0  0  0  0  0  0  0  0  0  0  0
   14.2227   16.3047   19.1637 O   0  0  0  0  0  0  0  0  0  0  0  0
   10.7823   13.2969   25.1522 O   0  0  0  0  0  0  0  0  0  0  0  0
    6.4167   13.8374   25.4477 H   0  0  0  0  0  0  0  0  0  0  0  0
    5.7099   11.7852   26.6222 H   0  0  0  0  0  0  0  0  0  0  0  0
    8.2189   13.7672   23.7505 H   0  0  0  0  0  0  0  0  0  0  0  0
    6.7966    9.6009   26.1240 H   0  0  0  0  0  0  0  0  0  0  0  0
   10.4476    9.1827   22.7518 H   0  0  0  0  0  0  0  0  0  0  0  0
   10.2449   16.7815   18.3241 H   0  0  0  0  0  0  0  0  0  0  0  0
   10.9777   15.8495   16.9953 H   0  0  0  0  0  0  0  0  0  0  0  0
   10.2309   15.0007   18.3478 H   0  0  0  0  0  0  0  0  0  0  0  0
   15.2223   14.4345   21.2040 H   0  0  0  0  0  0  0  0  0  0  0  0
   15.4904   16.1848   21.3934 H   0  0  0  0  0  0  0  0  0  0  0  0
   14.2291   15.3888   22.3330 H   0  0  0  0  0  0  0  0  0  0  0  0
    9.6273   12.7739   21.6218 H   0  0  0  0  0  0  0  0  0  0  0  0
   10.8020   11.5146   21.3359 H   0  0  0  0  0  0  0  0  0  0  0  0
   12.1642   12.3170   23.3299 H   0  0  0  0  0  0  0  0  0  0  0  0
    8.8004    8.4738   24.4925 H   0  0  0  0  0  0  0  0  0  0  0  0
   13.1401   13.5358   21.7574 H   0  0  0  0  0  0  0  0  0  0  0  0
   11.1492   12.3896   25.2110 H   0  0  0  0  0  0  0  0  0  0  0  0
  1  2  2  0  0  0  0
  1  3  1  0  0  0  0
  2  4  1  0  0  0  0
  3  6  2  0  0  0  0
  4  9  2  0  0  0  0
  5  8  2  0  0  0  0
  5 19  1  0  0  0  0
  6  8  1  0  0  0  0
  6  9  1  0  0  0  0
  7 10  1  0  0  0  0
  7 11  2  0  0  0  0
  7 12  1  0  0  0  0
  8 16  1  0  0  0  0
  9 19  1  0  0  0  0
 10 14  1  0  0  0  0
 10 18  2  0  0  0  0
 11 15  1  0  0  0  0
 11 23  1  0  0  0  0
 12 20  1  0  0  0  0
 12 21  2  0  0  0  0
 13 17  1  0  0  0  0
 13 22  2  0  0  0  0
 13 24  1  0  0  0  0
 16 17  1  0  0  0  0
 17 20  1  0  0  0  0
 18 23  1  0  0  0  0
  1 25  1  0  0  0  0
  2 26  1  0  0  0  0
  3 27  1  0  0  0  0
  4 28  1  0  0  0  0
  5 29  1  0  0  0  0
 14 30  1  0  0  0  0
 14 31  1  0  0  0  0
 14 32  1  0  0  0  0
 15 33  1  0  0  0  0
 15 34  1  0  0  0  0
 15 35  1  0  0  0  0
 16 36  1  0  0  0  0
 16 37  1  0  0  0  0
 17 38  1  0  0  0  0
 19 39  1  0  0  0  0
 20 40  1  0  0  0  0
 24 41  1  0  0  0  0
M  END
> <Catalog ID>
Z85882211

> <PlateID>
1041831-R-12

> <Well>
H08

> <MW (desalted)>
327.335

> <ClogP>
1.014

> <HBD>
3

> <TPSA>
108.220

> <RotBonds>
5

> <ROCS_ShapeQuery>
A71EV2A-x0451_0A_A71EV2A-x0310_0A_A71EV2A-x0416_0A_peptide

> <ROCS_TanimotoCombo>
0.550 

> <ROCS_ShapeTanimoto>
0.370 

> <ROCS_ColorTanimoto>
0.180 

> <ROCS_RefTversky>
0.325 

> <ROCS_RefColorTversky>
0.208 

> <ROCS_RefTverskyCombo>
0.532 

> <ROCS_FitTversky>
1.606 

> <ROCS_FitColorTversky>
0.572 

> <ROCS_FitTverskyCombo>
2.177 

> <ROCS_ColorScore>
-6.355

> <ROCS_Overlap>
2258.257

> <ROCS_Rank>
87                  

$$$$
untitled-dbase-2771_2810
  -OEChem-11132311063D

 51 54  0     1  0  0  0  0  0999 V2000
    5.5971   12.5117   26.0726 C   0  0  0  0  0  0  0  0  0  0  0  0
    5.6825   11.2671   26.6840 C   0  0  0  0  0  0  0  0  0  0  0  0
    6.4392   12.8198   25.0036 C   0  0  0  0  0  0  0  0  0  0  0  0
    6.5991   10.3286   26.2155 C   0  0  0  0  0  0  0  0  0  0  0  0
    7.3848   11.8926   24.5261 C   0  0  0  0  0  0  0  0  0  0  0  0
    7.4341   10.6221   25.1273 C   0  0  0  0  0  0  0  0  0  0  0  0
   12.6314   15.0718   22.0755 C   0  0  0  0  0  0  0  0  0  0  0  0
   10.6531   12.7341   23.8854 C   0  0  0  0  0  0  0  0  0  0  0  0
    8.2686   12.3239   23.3796 C   0  0  0  0  0  0  0  0  0  0  0  0
   13.1691   16.6089   18.0619 C   0  0  0  0  0  0  0  0  0  0  0  0
   13.4580   15.1239   18.3339 C   0  0  0  0  0  0  0  0  0  0  0  0
   12.2442   16.8811   20.3784 C   0  0  0  0  0  0  0  0  0  0  0  0
   14.5482   16.4277   19.9912 C   0  0  0  0  0  0  0  0  0  0  0  0
    9.8869   10.4340   23.1729 C   0  0  0  0  0  0  0  0  0  0  0  0
    8.6782    9.5414   23.4178 C   0  0  0  0  0  0  0  0  0  0  0  0
   12.4817   15.3792   20.6224 C   0  0  1  0  0  0  0  0  0  0  0  0
   13.3999   17.2655   19.4350 C   0  0  1  0  0  0  0  0  0  0  0  0
   13.7848   15.1086   19.8376 C   0  0  1  0  0  0  0  0  0  0  0  0
   12.0459   12.1640   24.0001 C   0  0  0  0  0  0  0  0  0  0  0  0
   13.0779   13.2287   23.6836 C   0  0  0  0  0  0  0  0  0  0  0  0
    9.6449   11.8419   23.5056 N   0  0  0  0  0  0  0  0  0  0  0  0
   12.8954   13.7423   22.3455 N   0  0  0  0  0  0  0  0  0  0  0  0
   12.5182   15.9728   22.8984 O   0  0  0  0  0  0  0  0  0  0  0  0
   10.4668   13.9289   24.1291 O   0  0  0  0  0  0  0  0  0  0  0  0
    8.2780    9.5961   24.7847 O   0  0  0  0  0  0  0  0  0  0  0  0
    4.8711   13.2404   26.4182 H   0  0  0  0  0  0  0  0  0  0  0  0
    5.0359   11.0240   27.5210 H   0  0  0  0  0  0  0  0  0  0  0  0
    6.3497   13.7989   24.5312 H   0  0  0  0  0  0  0  0  0  0  0  0
    6.6697    9.3571   26.7093 H   0  0  0  0  0  0  0  0  0  0  0  0
    7.8486   11.9461   22.4347 H   0  0  0  0  0  0  0  0  0  0  0  0
    8.2580   13.4171   23.2852 H   0  0  0  0  0  0  0  0  0  0  0  0
   13.8735   16.9990   17.3188 H   0  0  0  0  0  0  0  0  0  0  0  0
   12.1533   16.7680   17.6866 H   0  0  0  0  0  0  0  0  0  0  0  0
   12.6074   14.4843   18.0783 H   0  0  0  0  0  0  0  0  0  0  0  0
   14.3211   14.7939   17.7446 H   0  0  0  0  0  0  0  0  0  0  0  0
   11.2673   17.0689   19.9199 H   0  0  0  0  0  0  0  0  0  0  0  0
   12.2987   17.4571   21.3096 H   0  0  0  0  0  0  0  0  0  0  0  0
   15.4544   16.4752   19.3776 H   0  0  0  0  0  0  0  0  0  0  0  0
   14.7983   16.6734   21.0280 H   0  0  0  0  0  0  0  0  0  0  0  0
   10.7397   10.0568   23.7639 H   0  0  0  0  0  0  0  0  0  0  0  0
   10.1964   10.3941   22.1127 H   0  0  0  0  0  0  0  0  0  0  0  0
    7.8371    9.9308   22.8356 H   0  0  0  0  0  0  0  0  0  0  0  0
    8.8465    8.5128   23.0756 H   0  0  0  0  0  0  0  0  0  0  0  0
   11.6446   14.7808   20.2413 H   0  0  0  0  0  0  0  0  0  0  0  0
   13.5809   18.3408   19.3814 H   0  0  0  0  0  0  0  0  0  0  0  0
   14.3325   14.2206   20.1614 H   0  0  0  0  0  0  0  0  0  0  0  0
   12.1100   11.3484   23.2791 H   0  0  0  0  0  0  0  0  0  0  0  0
   12.1623   11.7670   25.0088 H   0  0  0  0  0  0  0  0  0  0  0  0
   12.9645   14.0546   24.3934 H   0  0  0  0  0  0  0  0  0  0  0  0
   14.0970   12.8400   23.7823 H   0  0  0  0  0  0  0  0  0  0  0  0
   12.9644   13.0951   21.5657 H   0  0  0  0  0  0  0  0  0  0  0  0
  1  2  2  0  0  0  0
  1  3  1  0  0  0  0
  2  4  1  0  0  0  0
  3  5  2  0  0  0  0
  4  6  2  0  0  0  0
  5  6  1  0  0  0  0
  5  9  1  0  0  0  0
  6 25  1  0  0  0  0
  7 16  1  0  0  0  0
  7 22  1  0  0  0  0
  7 23  2  0  0  0  0
  8 19  1  0  0  0  0
  8 21  1  0  0  0  0
  8 24  2  0  0  0  0
  9 21  1  0  0  0  0
 10 11  1  0  0  0  0
 10 17  1  0  0  0  0
 11 18  1  0  0  0  0
 12 16  1  0  0  0  0
 12 17  1  0  0  0  0
 13 17  1  0  0  0  0
 13 18  1  0  0  0  0
 14 15  1  0  0  0  0
 14 21  1  0  0  0  0
 15 25  1  0  0  0  0
 16 18  1  0  0  0  0
 19 20  1  0  0  0  0
 20 22  1  0  0  0  0
  1 26  1  0  0  0  0
  2 27  1  0  0  0  0
  3 28  1  0  0  0  0
  4 29  1  0  0  0  0
  9 30  1  0  0  0  0
  9 31  1  0  0  0  0
 10 32  1  0  0  0  0
 10 33  1  0  0  0  0
 11 34  1  0  0  0  0
 11 35  1  0  0  0  0
 12 36  1  0  0  0  0
 12 37  1  0  0  0  0
 13 38  1  0  0  0  0
 13 39  1  0  0  0  0
 14 40  1  0  0  0  0
 14 41  1  0  0  0  0
 15 42  1  0  0  0  0
 15 43  1  0  0  0  0
 16 44  1  0  0  0  0
 17 45  1  0  0  0  0
 18 46  1  0  0  0  0
 19 47  1  0  0  0  0
 19 48  1  0  0  0  0
 20 49  1  0  0  0  0
 20 50  1  0  0  0  0
 22 51  1  0  0  0  0
M  END
> <Catalog ID>
Z1188607326

> <PlateID>
1041831-R-35

> <Well>
F02

> <MW (desalted)>
342.432

> <ClogP>
2.747

> <HBD>
1

> <TPSA>
58.640

> <RotBonds>
4

> <ROCS_ShapeQuery>
A71EV2A-x0451_0A_A71EV2A-x0310_0A_A71EV2A-x0416_0A_peptide

> <ROCS_TanimotoCombo>
0.550 

> <ROCS_ShapeTanimoto>
0.348 

> <ROCS_ColorTanimoto>
0.201 

> <ROCS_RefTversky>
0.312 

> <ROCS_RefColorTversky>
0.240 

> <ROCS_RefTverskyCombo>
0.552 

> <ROCS_FitTversky>
1.508 

> <ROCS_FitColorTversky>
0.556 

> <ROCS_FitTverskyCombo>
2.064 

> <ROCS_ColorScore>
-7.384

> <ROCS_Overlap>
2167.073

> <ROCS_Rank>
88                  

$$$$
untitled-dbase-1766_521
  -OEChem-11132311063D

 47 50  0     1  0  0  0  0  0999 V2000
   10.1602    6.4855   21.7176 C   0  0  0  0  0  0  0  0  0  0  0  0
    9.3036    7.1867   22.5996 C   0  0  0  0  0  0  0  0  0  0  0  0
    9.9246   10.9088   22.9934 C   0  0  0  0  0  0  0  0  0  0  0  0
   11.0385    7.4180   21.2163 C   0  0  0  0  0  0  0  0  0  0  0  0
    8.3835   11.9127   24.5126 C   0  0  0  0  0  0  0  0  0  0  0  0
    9.4731   12.0554   23.6457 C   0  0  0  0  0  0  0  0  0  0  0  0
    9.2791    9.7013   23.2340 C   0  0  0  0  0  0  0  0  0  0  0  0
    9.7197    8.4975   22.5746 C   0  0  0  0  0  0  0  0  0  0  0  0
    7.6047   12.7259   25.3547 C   0  0  0  0  0  0  0  0  0  0  0  0
    7.8295   10.6507   24.6641 C   0  0  0  0  0  0  0  0  0  0  0  0
   10.1250   13.3532   23.4242 C   0  0  0  0  0  0  0  0  0  0  0  0
    9.1200   13.6083   21.1047 C   0  0  0  0  0  0  0  0  0  0  0  0
    9.7092   13.4708   19.7011 C   0  0  0  0  0  0  0  0  0  0  0  0
   11.6857   14.6773   20.3450 C   0  0  0  0  0  0  0  0  0  0  0  0
   11.1667   14.8768   21.7775 C   0  0  1  0  0  0  0  0  0  0  0  0
    7.7310   14.1727   25.5997 C   0  0  0  0  0  0  0  0  0  0  0  0
   11.1082   14.4696   18.0153 C   0  0  0  0  0  0  0  0  0  0  0  0
   10.6166   16.2900   22.0000 C   0  0  0  0  0  0  0  0  0  0  0  0
    8.2238    9.5137   24.0618 N   0  0  0  0  0  0  0  0  0  0  0  0
    6.6460   12.0366   25.9798 N   0  0  0  0  0  0  0  0  0  0  0  0
   10.1471   13.8717   22.1225 N   0  0  0  0  0  0  0  0  0  0  0  0
   10.5866   14.6003   19.3752 N   0  0  1  0  0  0  0  0  0  0  0  0
    9.8935   16.7067   20.8483 N   0  0  0  0  0  0  0  0  0  0  0  0
   10.6013   13.8981   24.4191 O   0  0  0  0  0  0  0  0  0  0  0  0
   10.7767    8.6469   21.7338 O   0  0  0  0  0  0  0  0  0  0  0  0
    6.7900   10.7263   25.5422 O   0  0  0  0  0  0  0  0  0  0  0  0
   10.1398    5.4324   21.4775 H   0  0  0  0  0  0  0  0  0  0  0  0
    8.4860    6.7817   23.1792 H   0  0  0  0  0  0  0  0  0  0  0  0
   10.7670   10.9640   22.3084 H   0  0  0  0  0  0  0  0  0  0  0  0
   11.8631    7.3700   20.5203 H   0  0  0  0  0  0  0  0  0  0  0  0
    8.4147   14.4475   21.1402 H   0  0  0  0  0  0  0  0  0  0  0  0
    8.5539   12.7037   21.3447 H   0  0  0  0  0  0  0  0  0  0  0  0
   10.2509   12.5185   19.6246 H   0  0  0  0  0  0  0  0  0  0  0  0
    8.8782   13.4279   18.9864 H   0  0  0  0  0  0  0  0  0  0  0  0
   12.3490   15.5134   20.0898 H   0  0  0  0  0  0  0  0  0  0  0  0
   12.2972   13.7652   20.3074 H   0  0  0  0  0  0  0  0  0  0  0  0
   12.0154   14.7523   22.4608 H   0  0  0  0  0  0  0  0  0  0  0  0
    7.1202   14.7543   24.8880 H   0  0  0  0  0  0  0  0  0  0  0  0
    7.4104   14.4526   26.6190 H   0  0  0  0  0  0  0  0  0  0  0  0
    8.7747   14.5222   25.5050 H   0  0  0  0  0  0  0  0  0  0  0  0
   11.7629   15.3242   17.7894 H   0  0  0  0  0  0  0  0  0  0  0  0
   11.6829   13.5354   17.9314 H   0  0  0  0  0  0  0  0  0  0  0  0
   10.2711   14.4505   17.3019 H   0  0  0  0  0  0  0  0  0  0  0  0
    9.9663   16.2439   22.8699 H   0  0  0  0  0  0  0  0  0  0  0  0
   11.4708   16.9386   22.1767 H   0  0  0  0  0  0  0  0  0  0  0  0
   10.2844   17.5560   20.4794 H   0  0  0  0  0  0  0  0  0  0  0  0
    9.9344   15.9984   20.1364 H   0  0  0  0  0  0  0  0  0  0  0  0
  1  2  1  0  0  0  0
  1  4  2  0  0  0  0
  2  8  2  0  0  0  0
  3  6  1  0  0  0  0
  3  7  2  0  0  0  0
  4 25  1  0  0  0  0
  5  6  2  0  0  0  0
  5  9  1  0  0  0  0
  5 10  1  0  0  0  0
  6 11  1  0  0  0  0
  7  8  1  0  0  0  0
  7 19  1  0  0  0  0
  8 25  1  0  0  0  0
  9 16  1  0  0  0  0
  9 20  2  0  0  0  0
 10 19  2  0  0  0  0
 10 26  1  0  0  0  0
 11 21  1  0  0  0  0
 11 24  2  0  0  0  0
 12 13  1  0  0  0  0
 12 21  1  0  0  0  0
 13 22  1  0  0  0  0
 14 15  1  0  0  0  0
 14 22  1  0  0  0  0
 15 18  1  0  0  0  0
 15 21  1  0  0  0  0
 17 22  1  0  0  0  0
 18 23  1  0  0  0  0
 20 26  1  0  0  0  0
  1 27  1  0  0  0  0
  2 28  1  0  0  0  0
  3 29  1  0  0  0  0
  4 30  1  0  0  0  0
 12 31  1  0  0  0  0
 12 32  1  0  0  0  0
 13 33  1  0  0  0  0
 13 34  1  0  0  0  0
 14 35  1  0  0  0  0
 14 36  1  0  0  0  0
 15 37  1  0  0  0  0
 16 38  1  0  0  0  0
 16 39  1  0  0  0  0
 16 40  1  0  0  0  0
 17 41  1  0  0  0  0
 17 42  1  0  0  0  0
 17 43  1  0  0  0  0
 18 44  1  0  0  0  0
 18 45  1  0  0  0  0
 23 46  1  0  0  0  0
 23 47  1  0  0  0  0
M  END
> <Catalog ID>
Z1457885570

> <PlateID>
1041831-R-23

> <Well>
A07

> <MW (desalted)>
355.391

> <ClogP>
1.549

> <HBD>
1

> <TPSA>
101.630

> <RotBonds>
3

> <ROCS_ShapeQuery>
A71EV2A-x0451_0A_A71EV2A-x0310_0A_A71EV2A-x0416_0A_peptide

> <ROCS_TanimotoCombo>
0.550 

> <ROCS_ShapeTanimoto>
0.342 

> <ROCS_ColorTanimoto>
0.207 

> <ROCS_RefTversky>
0.311 

> <ROCS_RefColorTversky>
0.239 

> <ROCS_RefTverskyCombo>
0.550 

> <ROCS_FitTversky>
1.427 

> <ROCS_FitColorTversky>
0.608 

> <ROCS_FitTverskyCombo>
2.035 

> <ROCS_ColorScore>
-7.334

> <ROCS_Overlap>
2161.042

> <ROCS_Rank>
89                  

$$$$
untitled-dbase-806_95
  -OEChem-11132311063D

 45 48  0     1  0  0  0  0  0999 V2000
    8.2924   12.6383   25.5192 C   0  0  0  0  0  0  0  0  0  0  0  0
    7.0676   12.0409   25.7664 C   0  0  0  0  0  0  0  0  0  0  0  0
    7.9964   10.8231   24.3288 C   0  0  0  0  0  0  0  0  0  0  0  0
   10.0939   10.7166   23.0625 C   0  0  0  0  0  0  0  0  0  0  0  0
   10.0628   11.7871   23.8807 C   0  0  0  0  0  0  0  0  0  0  0  0
   10.8907   13.9411   23.0599 C   0  0  0  0  0  0  0  0  0  0  0  0
   14.1330   16.9630   19.6728 C   0  0  0  0  0  0  0  0  0  0  0  0
   14.2566   15.9491   20.8201 C   0  0  0  0  0  0  0  0  0  0  0  0
   13.3789   14.8353   18.9180 C   0  0  0  0  0  0  0  0  0  0  0  0
   11.6932   16.4341   19.4303 C   0  0  0  0  0  0  0  0  0  0  0  0
   13.0742   16.3234   18.7587 C   0  0  1  0  0  0  0  0  0  0  0  0
   13.2245   14.8707   20.4401 C   0  0  2  0  0  0  0  0  0  0  0  0
   11.8087   15.4668   20.6282 C   0  0  2  0  0  0  0  0  0  0  0  0
    6.0178   12.4882   26.6960 C   0  0  0  0  0  0  0  0  0  0  0  0
    9.3302   15.0270   20.7262 C   0  0  0  0  0  0  0  0  0  0  0  0
   11.1249   12.8151   24.0482 C   0  0  0  0  0  0  0  0  0  0  0  0
   10.7141   14.4055   20.6218 C   0  0  2  0  0  0  0  0  0  0  0  0
    6.8883   10.8971   25.0125 N   0  0  0  0  0  0  0  0  0  0  0  0
    8.8747   11.8322   24.5866 N   0  0  0  0  0  0  0  0  0  0  0  0
   10.9207   13.4919   21.7706 N   0  0  0  0  0  0  0  0  0  0  0  0
   10.6991   15.0995   23.4261 O   0  0  0  0  0  0  0  0  0  0  0  0
    8.6305    9.7226   23.1469 S   0  0  0  0  0  0  0  0  0  0  0  0
    8.7688   13.5254   25.9130 H   0  0  0  0  0  0  0  0  0  0  0  0
   10.9114   10.4556   22.4047 H   0  0  0  0  0  0  0  0  0  0  0  0
   13.8361   17.9543   20.0295 H   0  0  0  0  0  0  0  0  0  0  0  0
   15.0921   17.0595   19.1517 H   0  0  0  0  0  0  0  0  0  0  0  0
   15.2682   15.5277   20.8429 H   0  0  0  0  0  0  0  0  0  0  0  0
   14.0559   16.4032   21.7955 H   0  0  0  0  0  0  0  0  0  0  0  0
   12.6527   14.1888   18.4161 H   0  0  0  0  0  0  0  0  0  0  0  0
   14.3898   14.5655   18.5939 H   0  0  0  0  0  0  0  0  0  0  0  0
   11.4749   17.4566   19.7555 H   0  0  0  0  0  0  0  0  0  0  0  0
   10.9044   16.1239   18.7352 H   0  0  0  0  0  0  0  0  0  0  0  0
   13.0932   16.7023   17.7350 H   0  0  0  0  0  0  0  0  0  0  0  0
   13.3850   13.9192   20.9515 H   0  0  0  0  0  0  0  0  0  0  0  0
   11.7417   16.0199   21.5729 H   0  0  0  0  0  0  0  0  0  0  0  0
    5.3065   13.1711   26.2000 H   0  0  0  0  0  0  0  0  0  0  0  0
    5.4352   11.6436   27.1063 H   0  0  0  0  0  0  0  0  0  0  0  0
    6.4333   13.0204   27.5709 H   0  0  0  0  0  0  0  0  0  0  0  0
    9.2417   15.6215   21.6421 H   0  0  0  0  0  0  0  0  0  0  0  0
    8.5552   14.2539   20.7477 H   0  0  0  0  0  0  0  0  0  0  0  0
    9.1246   15.6929   19.8806 H   0  0  0  0  0  0  0  0  0  0  0  0
   12.1090   12.3836   23.8393 H   0  0  0  0  0  0  0  0  0  0  0  0
   11.1263   13.1743   25.0814 H   0  0  0  0  0  0  0  0  0  0  0  0
   10.7832   13.8163   19.7020 H   0  0  0  0  0  0  0  0  0  0  0  0
   11.0863   12.5221   21.5972 H   0  0  0  0  0  0  0  0  0  0  0  0
  1  2  2  0  0  0  0
  1 19  1  0  0  0  0
  2 14  1  0  0  0  0
  2 18  1  0  0  0  0
  3 18  2  0  0  0  0
  3 19  1  0  0  0  0
  3 22  1  0  0  0  0
  4  5  2  0  0  0  0
  4 22  1  0  0  0  0
  5 16  1  0  0  0  0
  5 19  1  0  0  0  0
  6 16  1  0  0  0  0
  6 20  1  0  0  0  0
  6 21  2  0  0  0  0
  7  8  1  0  0  0  0
  7 11  1  0  0  0  0
  8 12  1  0  0  0  0
  9 11  1  0  0  0  0
  9 12  1  0  0  0  0
 10 11  1  0  0  0  0
 10 13  1  0  0  0  0
 12 13  1  0  0  0  0
 13 17  1  0  0  0  0
 15 17  1  0  0  0  0
 17 20  1  0  0  0  0
  1 23  1  0  0  0  0
  4 24  1  0  0  0  0
  7 25  1  0  0  0  0
  7 26  1  0  0  0  0
  8 27  1  0  0  0  0
  8 28  1  0  0  0  0
  9 29  1  0  0  0  0
  9 30  1  0  0  0  0
 10 31  1  0  0  0  0
 10 32  1  0  0  0  0
 11 33  1  0  0  0  0
 12 34  1  0  0  0  0
 13 35  1  0  0  0  0
 14 36  1  0  0  0  0
 14 37  1  0  0  0  0
 14 38  1  0  0  0  0
 15 39  1  0  0  0  0
 15 40  1  0  0  0  0
 15 41  1  0  0  0  0
 16 42  1  0  0  0  0
 16 43  1  0  0  0  0
 17 44  1  0  0  0  0
 20 45  1  0  0  0  0
M  END
> <Catalog ID>
Z169610904

> <PlateID>
1041831-R-11

> <Well>
A07

> <MW (desalted)>
317.449

> <ClogP>
3.448

> <HBD>
1

> <TPSA>
46.400

> <RotBonds>
4

> <ROCS_ShapeQuery>
A71EV2A-x0451_0A_A71EV2A-x0310_0A_A71EV2A-x0416_0A_peptide

> <ROCS_TanimotoCombo>
0.550 

> <ROCS_ShapeTanimoto>
0.331 

> <ROCS_ColorTanimoto>
0.218 

> <ROCS_RefTversky>
0.296 

> <ROCS_RefColorTversky>
0.257 

> <ROCS_RefTverskyCombo>
0.552 

> <ROCS_FitTversky>
1.574 

> <ROCS_FitColorTversky>
0.592 

> <ROCS_FitTverskyCombo>
2.166 

> <ROCS_ColorScore>
-7.894

> <ROCS_Overlap>
2053.691

> <ROCS_Rank>
90                  

$$$$
untitled-dbase-1359_242
  -OEChem-11132311063D

 48 51  0     1  0  0  0  0  0999 V2000
   11.9871   15.3092   21.9463 C   0  0  0  0  0  0  0  0  0  0  0  0
   10.9275   12.1082   22.6796 C   0  0  0  0  0  0  0  0  0  0  0  0
   14.1467   16.5475   19.4097 C   0  0  0  0  0  0  0  0  0  0  0  0
   13.0508   16.0718   18.4728 C   0  0  0  0  0  0  0  0  0  0  0  0
    7.9103   12.4974   26.3406 C   0  0  0  0  0  0  0  0  0  0  0  0
    6.7349   11.5439   26.1591 C   0  0  0  0  0  0  0  0  0  0  0  0
   14.1204   15.5303   20.5448 C   0  0  0  0  0  0  0  0  0  0  0  0
   11.9374   15.6639   19.4257 C   0  0  0  0  0  0  0  0  0  0  0  0
    9.1286   12.0338   25.5467 C   0  0  0  0  0  0  0  0  0  0  0  0
    6.3808   11.3715   24.6838 C   0  0  0  0  0  0  0  0  0  0  0  0
   10.2142    9.8853   23.4741 C   0  0  0  0  0  0  0  0  0  0  0  0
    8.9336    9.0804   23.3198 C   0  0  0  0  0  0  0  0  0  0  0  0
   12.6628   15.0327   20.6277 C   0  0  0  0  0  0  0  0  0  0  0  0
    8.7966   11.8538   24.0537 C   0  0  2  0  0  0  0  0  0  0  0  0
    7.5801   10.9369   23.8372 C   0  0  1  0  0  0  0  0  0  0  0  0
   10.4184   13.3153   21.9318 C   0  0  0  0  0  0  0  0  0  0  0  0
   12.2123   16.3035   22.7739 N   0  0  0  0  0  0  0  0  0  0  0  0
   11.3471   16.1128   23.8276 N   0  0  0  0  0  0  0  0  0  0  0  0
   10.6081   15.0250   23.6471 N   0  0  0  0  0  0  0  0  0  0  0  0
   11.0101   14.5244   22.4705 N   0  0  0  0  0  0  0  0  0  0  0  0
    9.9713   11.3229   23.3288 N   0  0  0  0  0  0  0  0  0  0  0  0
   12.1369   11.8637   22.6781 O   0  0  0  0  0  0  0  0  0  0  0  0
    7.9126    9.5864   24.1785 O   0  0  0  0  0  0  0  0  0  0  0  0
   15.1210   16.5232   18.9023 H   0  0  0  0  0  0  0  0  0  0  0  0
   13.9767   17.5700   19.7665 H   0  0  0  0  0  0  0  0  0  0  0  0
   12.7171   16.8952   17.8344 H   0  0  0  0  0  0  0  0  0  0  0  0
   13.3756   15.2482   17.8350 H   0  0  0  0  0  0  0  0  0  0  0  0
    7.6214   13.5043   26.0152 H   0  0  0  0  0  0  0  0  0  0  0  0
    8.1683   12.5663   27.4033 H   0  0  0  0  0  0  0  0  0  0  0  0
    6.9803   10.5690   26.5983 H   0  0  0  0  0  0  0  0  0  0  0  0
    5.8637   11.9269   26.7026 H   0  0  0  0  0  0  0  0  0  0  0  0
   14.8232   14.7061   20.3641 H   0  0  0  0  0  0  0  0  0  0  0  0
   14.4301   16.0176   21.4817 H   0  0  0  0  0  0  0  0  0  0  0  0
   11.2995   16.5102   19.6860 H   0  0  0  0  0  0  0  0  0  0  0  0
   11.3110   14.9081   18.9429 H   0  0  0  0  0  0  0  0  0  0  0  0
    9.9345   12.7676   25.6647 H   0  0  0  0  0  0  0  0  0  0  0  0
    9.4870   11.0922   25.9786 H   0  0  0  0  0  0  0  0  0  0  0  0
    5.5784   10.6288   24.6004 H   0  0  0  0  0  0  0  0  0  0  0  0
    5.9909   12.3208   24.2967 H   0  0  0  0  0  0  0  0  0  0  0  0
   10.6275    9.7416   24.4791 H   0  0  0  0  0  0  0  0  0  0  0  0
   10.9579    9.5246   22.7604 H   0  0  0  0  0  0  0  0  0  0  0  0
    8.5804    9.0880   22.2826 H   0  0  0  0  0  0  0  0  0  0  0  0
    9.1151    8.0382   23.5982 H   0  0  0  0  0  0  0  0  0  0  0  0
   12.6547   13.9185   20.4848 H   0  0  0  0  0  0  0  0  0  0  0  0
    8.5527   12.8391   23.6467 H   0  0  0  0  0  0  0  0  0  0  0  0
    7.2733   10.9626   22.7823 H   0  0  0  0  0  0  0  0  0  0  0  0
    9.3370   13.3621   22.0369 H   0  0  0  0  0  0  0  0  0  0  0  0
   10.6863   13.2164   20.8824 H   0  0  0  0  0  0  0  0  0  0  0  0
  1 13  1  0  0  0  0
  1 17  2  0  0  0  0
  1 20  1  0  0  0  0
  2 16  1  0  0  0  0
  2 21  1  0  0  0  0
  2 22  2  0  0  0  0
  3  4  1  0  0  0  0
  3  7  1  0  0  0  0
  4  8  1  0  0  0  0
  5  6  1  0  0  0  0
  5  9  1  0  0  0  0
  6 10  1  0  0  0  0
  7 13  1  0  0  0  0
  8 13  1  0  0  0  0
  9 14  1  0  0  0  0
 10 15  1  0  0  0  0
 11 12  1  0  0  0  0
 11 21  1  0  0  0  0
 12 23  1  0  0  0  0
 14 15  1  0  0  0  0
 14 21  1  0  0  0  0
 15 23  1  0  0  0  0
 16 20  1  0  0  0  0
 17 18  1  0  0  0  0
 18 19  2  0  0  0  0
 19 20  1  0  0  0  0
  3 24  1  0  0  0  0
  3 25  1  0  0  0  0
  4 26  1  0  0  0  0
  4 27  1  0  0  0  0
  5 28  1  0  0  0  0
  5 29  1  0  0  0  0
  6 30  1  0  0  0  0
  6 31  1  0  0  0  0
  7 32  1  0  0  0  0
  7 33  1  0  0  0  0
  8 34  1  0  0  0  0
  8 35  1  0  0  0  0
  9 36  1  0  0  0  0
  9 37  1  0  0  0  0
 10 38  1  0  0  0  0
 10 39  1  0  0  0  0
 11 40  1  0  0  0  0
 11 41  1  0  0  0  0
 12 42  1  0  0  0  0
 12 43  1  0  0  0  0
 13 44  1  0  0  0  0
 14 45  1  0  0  0  0
 15 46  1  0  0  0  0
 16 47  1  0  0  0  0
 16 48  1  0  0  0  0
M  END
> <Catalog ID>
Z803266702

> <PlateID>
1041831-R-17

> <Well>
H10

> <MW (desalted)>
319.402

> <ClogP>
2.333

> <HBD>
0

> <TPSA>
73.140

> <RotBonds>
3

> <ROCS_ShapeQuery>
A71EV2A-x0451_0A_A71EV2A-x0310_0A_A71EV2A-x0416_0A_peptide

> <ROCS_TanimotoCombo>
0.549 

> <ROCS_ShapeTanimoto>
0.352 

> <ROCS_ColorTanimoto>
0.197 

> <ROCS_RefTversky>
0.311 

> <ROCS_RefColorTversky>
0.222 

> <ROCS_RefTverskyCombo>
0.534 

> <ROCS_FitTversky>
1.601 

> <ROCS_FitColorTversky>
0.632 

> <ROCS_FitTverskyCombo>
2.233 

> <ROCS_ColorScore>
-6.808

> <ROCS_Overlap>
2162.836

> <ROCS_Rank>
91                  

$$$$
untitled-dbase-1635_368
  -OEChem-11132311063D

 50 53  0     0  0  0  0  0  0999 V2000
   13.6119   16.1270   18.0200 C   0  0  0  0  0  0  0  0  0  0  0  0
   14.0305   14.9703   18.6709 C   0  0  0  0  0  0  0  0  0  0  0  0
   12.6294   16.9346   18.5937 C   0  0  0  0  0  0  0  0  0  0  0  0
   13.4684   14.6167   19.8978 C   0  0  0  0  0  0  0  0  0  0  0  0
   11.0627   17.3952   20.4201 C   0  0  0  0  0  0  0  0  0  0  0  0
   10.5005   17.0416   21.6470 C   0  0  0  0  0  0  0  0  0  0  0  0
   12.0526   16.5941   19.8280 C   0  0  0  0  0  0  0  0  0  0  0  0
   12.4784   15.4178   20.4899 C   0  0  0  0  0  0  0  0  0  0  0  0
    9.6337   11.6330   23.9946 C   0  0  0  0  0  0  0  0  0  0  0  0
   11.9016   15.0773   21.7242 C   0  0  0  0  0  0  0  0  0  0  0  0
   10.9191   15.8849   22.2978 C   0  0  0  0  0  0  0  0  0  0  0  0
    9.5527   10.3258   23.5008 C   0  0  0  0  0  0  0  0  0  0  0  0
    8.4033   11.8731   24.5624 C   0  0  0  0  0  0  0  0  0  0  0  0
    5.7923   11.6779   25.4840 C   0  0  0  0  0  0  0  0  0  0  0  0
    6.3317   10.6226   24.8542 C   0  0  0  0  0  0  0  0  0  0  0  0
    6.6724   12.8758   25.6270 C   0  0  0  0  0  0  0  0  0  0  0  0
   10.7275   12.5573   23.9465 C   0  0  0  0  0  0  0  0  0  0  0  0
   10.5955    9.5610   22.7940 C   0  0  0  0  0  0  0  0  0  0  0  0
    5.5724    9.3492   24.6341 C   0  0  0  0  0  0  0  0  0  0  0  0
    6.0876   14.0737   26.3329 C   0  0  0  0  0  0  0  0  0  0  0  0
   10.9878   16.0716   24.6677 C   0  0  0  0  0  0  0  0  0  0  0  0
   12.3194   13.8401   22.4652 C   0  0  0  0  0  0  0  0  0  0  0  0
    8.3691    9.7592   23.7272 N   0  0  0  0  0  0  0  0  0  0  0  0
    7.8960   12.9663   25.1955 N   0  0  0  0  0  0  0  0  0  0  0  0
    7.6501   10.7112   24.3846 N   0  0  0  0  0  0  0  0  0  0  0  0
   11.2113   12.9370   22.6781 N   0  0  0  0  0  0  0  0  0  0  0  0
   11.2540   13.0008   24.9956 O   0  0  0  0  0  0  0  0  0  0  0  0
   10.3562   15.5603   23.4959 O   0  0  0  0  0  0  0  0  0  0  0  0
   14.0506   16.4022   17.0654 H   0  0  0  0  0  0  0  0  0  0  0  0
   14.7955   14.3422   18.2239 H   0  0  0  0  0  0  0  0  0  0  0  0
   12.3175   17.8340   18.0670 H   0  0  0  0  0  0  0  0  0  0  0  0
   13.8226   13.7053   20.3739 H   0  0  0  0  0  0  0  0  0  0  0  0
   10.7199   18.3039   19.9297 H   0  0  0  0  0  0  0  0  0  0  0  0
    9.7359   17.6750   22.0888 H   0  0  0  0  0  0  0  0  0  0  0  0
    4.7842   11.6925   25.8763 H   0  0  0  0  0  0  0  0  0  0  0  0
   11.2229    8.9926   23.5014 H   0  0  0  0  0  0  0  0  0  0  0  0
   10.1677    8.8404   22.0749 H   0  0  0  0  0  0  0  0  0  0  0  0
   11.2643   10.2143   22.2061 H   0  0  0  0  0  0  0  0  0  0  0  0
    5.0447    9.3997   23.6840 H   0  0  0  0  0  0  0  0  0  0  0  0
    4.8560    9.2078   25.4411 H   0  0  0  0  0  0  0  0  0  0  0  0
    6.2649    8.5098   24.6217 H   0  0  0  0  0  0  0  0  0  0  0  0
    6.2945   13.9952   27.3950 H   0  0  0  0  0  0  0  0  0  0  0  0
    5.0158   14.0968   26.1642 H   0  0  0  0  0  0  0  0  0  0  0  0
    6.5379   14.9761   25.9325 H   0  0  0  0  0  0  0  0  0  0  0  0
   10.4396   15.7390   25.5526 H   0  0  0  0  0  0  0  0  0  0  0  0
   11.0056   17.1636   24.6261 H   0  0  0  0  0  0  0  0  0  0  0  0
   12.0120   15.6939   24.7130 H   0  0  0  0  0  0  0  0  0  0  0  0
   13.0929   13.2996   21.9088 H   0  0  0  0  0  0  0  0  0  0  0  0
   12.7393   14.0917   23.4448 H   0  0  0  0  0  0  0  0  0  0  0  0
   10.8007   12.5081   21.8552 H   0  0  0  0  0  0  0  0  0  0  0  0
  1  2  2  0  0  0  0
  1  3  1  0  0  0  0
  2  4  1  0  0  0  0
  3  7  2  0  0  0  0
  4  8  2  0  0  0  0
  5  6  2  0  0  0  0
  5  7  1  0  0  0  0
  6 11  1  0  0  0  0
  7  8  1  0  0  0  0
  8 10  1  0  0  0  0
  9 12  1  0  0  0  0
  9 13  2  0  0  0  0
  9 17  1  0  0  0  0
 10 11  2  0  0  0  0
 10 22  1  0  0  0  0
 11 28  1  0  0  0  0
 12 18  1  0  0  0  0
 12 23  2  0  0  0  0
 13 24  1  0  0  0  0
 13 25  1  0  0  0  0
 14 15  2  0  0  0  0
 14 16  1  0  0  0  0
 15 19  1  0  0  0  0
 15 25  1  0  0  0  0
 16 20  1  0  0  0  0
 16 24  2  0  0  0  0
 17 26  1  0  0  0  0
 17 27  2  0  0  0  0
 21 28  1  0  0  0  0
 22 26  1  0  0  0  0
 23 25  1  0  0  0  0
  1 29  1  0  0  0  0
  2 30  1  0  0  0  0
  3 31  1  0  0  0  0
  4 32  1  0  0  0  0
  5 33  1  0  0  0  0
  6 34  1  0  0  0  0
 14 35  1  0  0  0  0
 18 36  1  0  0  0  0
 18 37  1  0  0  0  0
 18 38  1  0  0  0  0
 19 39  1  0  0  0  0
 19 40  1  0  0  0  0
 19 41  1  0  0  0  0
 20 42  1  0  0  0  0
 20 43  1  0  0  0  0
 20 44  1  0  0  0  0
 21 45  1  0  0  0  0
 21 46  1  0  0  0  0
 21 47  1  0  0  0  0
 22 48  1  0  0  0  0
 22 49  1  0  0  0  0
 26 50  1  0  0  0  0
M  END
> <Catalog ID>
Z645758468

> <PlateID>
1041831-R-21

> <Well>
D06

> <MW (desalted)>
374.436

> <ClogP>
3.665

> <HBD>
1

> <TPSA>
68.520

> <RotBonds>
4

> <ROCS_ShapeQuery>
A71EV2A-x0451_0A_A71EV2A-x0310_0A_A71EV2A-x0416_0A_peptide

> <ROCS_TanimotoCombo>
0.549 

> <ROCS_ShapeTanimoto>
0.370 

> <ROCS_ColorTanimoto>
0.180 

> <ROCS_RefTversky>
0.332 

> <ROCS_RefColorTversky>
0.203 

> <ROCS_RefTverskyCombo>
0.535 

> <ROCS_FitTversky>
1.444 

> <ROCS_FitColorTversky>
0.611 

> <ROCS_FitTverskyCombo>
2.055 

> <ROCS_ColorScore>
-6.209

> <ROCS_Overlap>
2310.179

> <ROCS_Rank>
92                  

$$$$
untitled-dbase-1000_2773
  -OEChem-11132311063D

 44 47  0     1  0  0  0  0  0999 V2000
    9.1643    7.9082   21.9519 C   0  0  0  0  0  0  0  0  0  0  0  0
   10.0534    8.3726   22.9211 C   0  0  0  0  0  0  0  0  0  0  0  0
    7.8914    8.4692   21.8470 C   0  0  0  0  0  0  0  0  0  0  0  0
    4.5062   12.7235   28.8348 C   0  0  0  0  0  0  0  0  0  0  0  0
    9.6697    9.3978   23.7856 C   0  0  0  0  0  0  0  0  0  0  0  0
    7.5077    9.4944   22.7115 C   0  0  0  0  0  0  0  0  0  0  0  0
    5.7685   12.8870   28.2160 C   0  0  0  0  0  0  0  0  0  0  0  0
   12.9161   14.1836   22.6621 C   0  0  0  0  0  0  0  0  0  0  0  0
   10.8127   15.1183   21.9644 C   0  0  0  0  0  0  0  0  0  0  0  0
   13.3248   15.4713   22.9697 C   0  0  0  0  0  0  0  0  0  0  0  0
   11.3155   16.3641   22.3034 C   0  0  0  0  0  0  0  0  0  0  0  0
    3.7907   11.8730   28.0244 C   0  0  0  0  0  0  0  0  0  0  0  0
    8.3968    9.9587   23.6808 C   0  0  0  0  0  0  0  0  0  0  0  0
   11.6347   14.0123   22.1504 C   0  0  0  0  0  0  0  0  0  0  0  0
    8.0014   11.0141   24.5708 C   0  0  0  0  0  0  0  0  0  0  0  0
    5.7345   12.1246   27.0716 C   0  0  0  0  0  0  0  0  0  0  0  0
    8.6618   12.2224   24.6485 C   0  0  0  0  0  0  0  0  0  0  0  0
    6.7680   11.9653   26.1148 C   0  0  0  0  0  0  0  0  0  0  0  0
    9.8005   12.7130   23.9430 C   0  0  0  0  0  0  0  0  0  0  0  0
   10.7753   12.4967   20.3182 C   0  0  0  0  0  0  0  0  0  0  0  0
   11.1367   12.6276   21.7964 C   0  0  2  0  0  0  0  0  0  0  0  0
   12.5548   16.5699   22.8029 N   0  0  0  0  0  0  0  0  0  0  0  0
    6.9155   10.8647   25.4112 N   0  0  0  0  0  0  0  0  0  0  0  0
   10.0197   12.2432   22.6290 N   0  0  0  0  0  0  0  0  0  0  0  0
   10.6042   13.5240   24.4714 O   0  0  0  0  0  0  0  0  0  0  0  0
    4.5324   11.5032   26.9475 O   0  0  0  0  0  0  0  0  0  0  0  0
    7.8997   13.2205   25.8166 S   0  0  0  0  0  0  0  0  0  0  0  0
    9.4632    7.1107   21.2780 H   0  0  0  0  0  0  0  0  0  0  0  0
   11.0449    7.9369   23.0021 H   0  0  0  0  0  0  0  0  0  0  0  0
    7.1998    8.1083   21.0914 H   0  0  0  0  0  0  0  0  0  0  0  0
    4.1613   13.1699   29.7562 H   0  0  0  0  0  0  0  0  0  0  0  0
   10.3742    9.7489   24.5360 H   0  0  0  0  0  0  0  0  0  0  0  0
    6.5119    9.9212   22.6168 H   0  0  0  0  0  0  0  0  0  0  0  0
    6.5952   13.4888   28.5679 H   0  0  0  0  0  0  0  0  0  0  0  0
   13.5820   13.3416   22.8180 H   0  0  0  0  0  0  0  0  0  0  0  0
    9.8085   15.0168   21.5675 H   0  0  0  0  0  0  0  0  0  0  0  0
   14.3157   15.6586   23.3705 H   0  0  0  0  0  0  0  0  0  0  0  0
   10.7141   17.2583   22.1773 H   0  0  0  0  0  0  0  0  0  0  0  0
    2.7954   11.4560   28.0709 H   0  0  0  0  0  0  0  0  0  0  0  0
    9.9884   13.2063   20.0401 H   0  0  0  0  0  0  0  0  0  0  0  0
   11.6505   12.6972   19.6898 H   0  0  0  0  0  0  0  0  0  0  0  0
   10.4248   11.4887   20.0695 H   0  0  0  0  0  0  0  0  0  0  0  0
   11.9249   11.8959   22.0127 H   0  0  0  0  0  0  0  0  0  0  0  0
    9.3871   11.5419   22.2577 H   0  0  0  0  0  0  0  0  0  0  0  0
  1  2  2  0  0  0  0
  1  3  1  0  0  0  0
  2  5  1  0  0  0  0
  3  6  2  0  0  0  0
  4  7  1  0  0  0  0
  4 12  2  0  0  0  0
  5 13  2  0  0  0  0
  6 13  1  0  0  0  0
  7 16  2  0  0  0  0
  8 10  1  0  0  0  0
  8 14  2  0  0  0  0
  9 11  2  0  0  0  0
  9 14  1  0  0  0  0
 10 22  2  0  0  0  0
 11 22  1  0  0  0  0
 12 26  1  0  0  0  0
 13 15  1  0  0  0  0
 14 21  1  0  0  0  0
 15 17  2  0  0  0  0
 15 23  1  0  0  0  0
 16 18  1  0  0  0  0
 16 26  1  0  0  0  0
 17 19  1  0  0  0  0
 17 27  1  0  0  0  0
 18 23  2  0  0  0  0
 18 27  1  0  0  0  0
 19 24  1  0  0  0  0
 19 25  2  0  0  0  0
 20 21  1  0  0  0  0
 21 24  1  0  0  0  0
  1 28  1  0  0  0  0
  2 29  1  0  0  0  0
  3 30  1  0  0  0  0
  4 31  1  0  0  0  0
  5 32  1  0  0  0  0
  6 33  1  0  0  0  0
  7 34  1  0  0  0  0
  8 35  1  0  0  0  0
  9 36  1  0  0  0  0
 10 37  1  0  0  0  0
 11 38  1  0  0  0  0
 12 39  1  0  0  0  0
 20 40  1  0  0  0  0
 20 41  1  0  0  0  0
 20 42  1  0  0  0  0
 21 43  1  0  0  0  0
 24 44  1  0  0  0  0
M  END
> <Catalog ID>
Z295945070

> <PlateID>
1041831-R-13

> <Well>
D11

> <MW (desalted)>
375.444

> <ClogP>
3.867

> <HBD>
1

> <TPSA>
68.020

> <RotBonds>
5

> <ROCS_ShapeQuery>
A71EV2A-x0451_0A_A71EV2A-x0310_0A_A71EV2A-x0416_0A_peptide

> <ROCS_TanimotoCombo>
0.549 

> <ROCS_ShapeTanimoto>
0.366 

> <ROCS_ColorTanimoto>
0.184 

> <ROCS_RefTversky>
0.327 

> <ROCS_RefColorTversky>
0.206 

> <ROCS_RefTverskyCombo>
0.533 

> <ROCS_FitTversky>
1.480 

> <ROCS_FitColorTversky>
0.623 

> <ROCS_FitTverskyCombo>
2.103 

> <ROCS_ColorScore>
-6.312

> <ROCS_Overlap>
2275.276

> <ROCS_Rank>
93                  

$$$$
untitled-dbase-2730_5986
  -OEChem-11132311063D

 58 62  0     1  0  0  0  0  0999 V2000
    9.5703    8.1931   22.8680 C   0  0  0  0  0  0  0  0  0  0  0  0
   10.2320    8.9292   21.8681 C   0  0  0  0  0  0  0  0  0  0  0  0
    8.8024    8.8379   23.8386 C   0  0  0  0  0  0  0  0  0  0  0  0
   10.1387   10.3242   21.8222 C   0  0  0  0  0  0  0  0  0  0  0  0
    8.7269   10.2156   23.7714 C   0  0  0  0  0  0  0  0  0  0  0  0
    9.3793   10.9607   22.7875 C   0  0  0  0  0  0  0  0  0  0  0  0
    7.9905   11.1397   24.6408 C   0  0  0  0  0  0  0  0  0  0  0  0
   10.3530   13.1751   23.3365 C   0  0  0  0  0  0  0  0  0  0  0  0
   12.3414   15.3396   22.0092 C   0  0  0  0  0  0  0  0  0  0  0  0
   15.1855   18.9959   19.9019 C   0  0  0  0  0  0  0  0  0  0  0  0
    6.3911   14.2000   24.0472 C   0  0  0  0  0  0  0  0  0  0  0  0
    6.3375   13.5832   25.4130 C   0  0  0  0  0  0  0  0  0  0  0  0
   13.7894   18.9495   19.2580 C   0  0  0  0  0  0  0  0  0  0  0  0
   14.8001   17.7359   20.6954 C   0  0  0  0  0  0  0  0  0  0  0  0
   14.2776   15.0255   19.0101 C   0  0  0  0  0  0  0  0  0  0  0  0
   12.9516   14.6205   19.6495 C   0  0  0  0  0  0  0  0  0  0  0  0
   12.3829   16.9768   20.1570 C   0  0  0  0  0  0  0  0  0  0  0  0
    9.1162   12.4199   22.9783 C   0  0  2  0  0  0  0  0  0  0  0  0
   14.2562   16.4682   18.4751 C   0  0  2  0  0  0  0  0  0  0  0  0
    7.6365   13.6153   24.6553 C   0  0  0  0  0  0  0  0  0  0  0  0
   13.7369   17.4177   19.5848 C   0  0  0  0  0  0  0  0  0  0  0  0
   13.4234   16.5694   17.1932 C   0  0  0  0  0  0  0  0  0  0  0  0
   12.5572   13.9158   22.4560 C   0  0  0  0  0  0  0  0  0  0  0  0
    8.2242   12.4164   24.1366 N   0  0  0  0  0  0  0  0  0  0  0  0
   12.5478   15.6098   20.6554 N   0  0  0  0  0  0  0  0  0  0  0  0
   11.3024   13.2400   22.3240 N   0  0  0  0  0  0  0  0  0  0  0  0
    7.3144   10.7922   25.5917 O   0  0  0  0  0  0  0  0  0  0  0  0
   10.4552   13.6731   24.4515 O   0  0  0  0  0  0  0  0  0  0  0  0
   12.0017   16.1859   22.8403 O   0  0  0  0  0  0  0  0  0  0  0  0
    9.6584    7.1100   22.8816 H   0  0  0  0  0  0  0  0  0  0  0  0
   10.8235    8.4053   21.1217 H   0  0  0  0  0  0  0  0  0  0  0  0
    8.2887    8.2726   24.6074 H   0  0  0  0  0  0  0  0  0  0  0  0
   10.6519   10.8854   21.0490 H   0  0  0  0  0  0  0  0  0  0  0  0
   16.0282   18.8831   19.2144 H   0  0  0  0  0  0  0  0  0  0  0  0
   15.3582   19.8793   20.5271 H   0  0  0  0  0  0  0  0  0  0  0  0
    5.9131   13.6661   23.2349 H   0  0  0  0  0  0  0  0  0  0  0  0
    6.3228   15.2787   23.9772 H   0  0  0  0  0  0  0  0  0  0  0  0
    6.2331   14.2464   26.2629 H   0  0  0  0  0  0  0  0  0  0  0  0
    5.8236   12.6354   25.5172 H   0  0  0  0  0  0  0  0  0  0  0  0
   13.0302   19.5725   19.7380 H   0  0  0  0  0  0  0  0  0  0  0  0
   13.8071   19.1851   18.1875 H   0  0  0  0  0  0  0  0  0  0  0  0
   15.6177   17.0083   20.7642 H   0  0  0  0  0  0  0  0  0  0  0  0
   14.4200   17.9173   21.7038 H   0  0  0  0  0  0  0  0  0  0  0  0
   15.0710   14.9339   19.7631 H   0  0  0  0  0  0  0  0  0  0  0  0
   14.5292   14.3261   18.2045 H   0  0  0  0  0  0  0  0  0  0  0  0
   12.1542   14.5652   18.9047 H   0  0  0  0  0  0  0  0  0  0  0  0
   13.0506   13.6295   20.0960 H   0  0  0  0  0  0  0  0  0  0  0  0
   12.0402   17.6571   20.9381 H   0  0  0  0  0  0  0  0  0  0  0  0
   11.6039   16.9621   19.3873 H   0  0  0  0  0  0  0  0  0  0  0  0
    8.6031   12.8651   22.1209 H   0  0  0  0  0  0  0  0  0  0  0  0
   15.2832   16.7398   18.2064 H   0  0  0  0  0  0  0  0  0  0  0  0
    8.3848   14.3195   25.0028 H   0  0  0  0  0  0  0  0  0  0  0  0
   12.3898   16.3080   17.4077 H   0  0  0  0  0  0  0  0  0  0  0  0
   13.8195   15.8862   16.4456 H   0  0  0  0  0  0  0  0  0  0  0  0
   13.4654   17.5861   16.8098 H   0  0  0  0  0  0  0  0  0  0  0  0
   12.8893   13.9320   23.4897 H   0  0  0  0  0  0  0  0  0  0  0  0
   13.3138   13.4711   21.8165 H   0  0  0  0  0  0  0  0  0  0  0  0
   11.0931   12.7798   21.4357 H   0  0  0  0  0  0  0  0  0  0  0  0
  1  2  2  0  0  0  0
  1  3  1  0  0  0  0
  2  4  1  0  0  0  0
  3  5  2  0  0  0  0
  4  6  2  0  0  0  0
  5  6  1  0  0  0  0
  5  7  1  0  0  0  0
  6 18  1  0  0  0  0
  7 24  1  0  0  0  0
  7 27  2  0  0  0  0
  8 18  1  0  0  0  0
  8 26  1  0  0  0  0
  8 28  2  0  0  0  0
  9 23  1  0  0  0  0
  9 25  1  0  0  0  0
  9 29  2  0  0  0  0
 10 13  1  0  0  0  0
 10 14  1  0  0  0  0
 11 12  1  0  0  0  0
 11 20  1  0  0  0  0
 12 20  1  0  0  0  0
 13 21  1  0  0  0  0
 14 21  1  0  0  0  0
 15 16  1  0  0  0  0
 15 19  1  0  0  0  0
 16 25  1  0  0  0  0
 17 21  1  0  0  0  0
 17 25  1  0  0  0  0
 18 24  1  0  0  0  0
 19 21  1  0  0  0  0
 19 22  1  0  0  0  0
 20 24  1  0  0  0  0
 23 26  1  0  0  0  0
  1 30  1  0  0  0  0
  2 31  1  0  0  0  0
  3 32  1  0  0  0  0
  4 33  1  0  0  0  0
 10 34  1  0  0  0  0
 10 35  1  0  0  0  0
 11 36  1  0  0  0  0
 11 37  1  0  0  0  0
 12 38  1  0  0  0  0
 12 39  1  0  0  0  0
 13 40  1  0  0  0  0
 13 41  1  0  0  0  0
 14 42  1  0  0  0  0
 14 43  1  0  0  0  0
 15 44  1  0  0  0  0
 15 45  1  0  0  0  0
 16 46  1  0  0  0  0
 16 47  1  0  0  0  0
 17 48  1  0  0  0  0
 17 49  1  0  0  0  0
 18 50  1  0  0  0  0
 19 51  1  0  0  0  0
 20 52  1  0  0  0  0
 22 53  1  0  0  0  0
 22 54  1  0  0  0  0
 22 55  1  0  0  0  0
 23 56  1  0  0  0  0
 23 57  1  0  0  0  0
 26 58  1  0  0  0  0
M  END
> <Catalog ID>
Z1577204285

> <PlateID>
1041831-R-35

> <Well>
A11

> <MW (desalted)>
395.495

> <ClogP>
2.828

> <HBD>
1

> <TPSA>
69.720

> <RotBonds>
4

> <ROCS_ShapeQuery>
A71EV2A-x0451_0A_A71EV2A-x0310_0A_A71EV2A-x0416_0A_peptide

> <ROCS_TanimotoCombo>
0.549 

> <ROCS_ShapeTanimoto>
0.352 

> <ROCS_ColorTanimoto>
0.197 

> <ROCS_RefTversky>
0.321 

> <ROCS_RefColorTversky>
0.214 

> <ROCS_RefTverskyCombo>
0.535 

> <ROCS_FitTversky>
1.383 

> <ROCS_FitColorTversky>
0.710 

> <ROCS_FitTverskyCombo>
2.093 

> <ROCS_ColorScore>
-6.536

> <ROCS_Overlap>
2234.878

> <ROCS_Rank>
94                  

$$$$
untitled-dbase-2779_1620
  -OEChem-11132311063D

 42 44  0     1  0  0  0  0  0999 V2000
    6.9680   12.8790   25.5493 C   0  0  0  0  0  0  0  0  0  0  0  0
    6.6991   11.7121   26.2619 C   0  0  0  0  0  0  0  0  0  0  0  0
    7.8324   12.8630   24.4486 C   0  0  0  0  0  0  0  0  0  0  0  0
    7.2832   10.4952   25.8990 C   0  0  0  0  0  0  0  0  0  0  0  0
   14.1221   16.4229   20.2920 C   0  0  0  0  0  0  0  0  0  0  0  0
    9.5728    9.9218   23.1521 C   0  0  0  0  0  0  0  0  0  0  0  0
    8.4331   11.6478   24.0641 C   0  0  0  0  0  0  0  0  0  0  0  0
   14.0780   16.8050   18.9300 C   0  0  0  0  0  0  0  0  0  0  0  0
    9.3349   11.2714   23.0296 C   0  0  0  0  0  0  0  0  0  0  0  0
    8.1453   10.4943   24.7967 C   0  0  0  0  0  0  0  0  0  0  0  0
   13.1309   15.4837   20.4576 C   0  0  0  0  0  0  0  0  0  0  0  0
   13.0631   16.0718   18.3603 C   0  0  0  0  0  0  0  0  0  0  0  0
   12.6897   14.7188   21.6524 C   0  0  0  0  0  0  0  0  0  0  0  0
   10.6276   13.9212   23.6775 C   0  0  0  0  0  0  0  0  0  0  0  0
   14.9468   17.7904   18.2613 C   0  0  0  0  0  0  0  0  0  0  0  0
   12.5114   15.9985   16.9993 C   0  0  0  0  0  0  0  0  0  0  0  0
    9.9183   12.1604   22.0045 C   0  0  0  0  0  0  0  0  0  0  0  0
   11.0803   13.0421   22.5209 C   0  0  1  0  0  0  0  0  0  0  0  0
    8.8507    9.4619   24.2206 N   0  0  0  0  0  0  0  0  0  0  0  0
   11.6367   13.8367   21.4546 N   0  0  0  0  0  0  0  0  0  0  0  0
   13.2476   14.9135   22.7291 O   0  0  0  0  0  0  0  0  0  0  0  0
   10.1501   15.0398   23.5184 O   0  0  0  0  0  0  0  0  0  0  0  0
   12.4808   15.2639   19.2848 O   0  0  0  0  0  0  0  0  0  0  0  0
   10.7851   13.3714   24.9054 O   0  0  0  0  0  0  0  0  0  0  0  0
    6.5014   13.8131   25.8503 H   0  0  0  0  0  0  0  0  0  0  0  0
    6.0247   11.7474   27.1136 H   0  0  0  0  0  0  0  0  0  0  0  0
    8.0312   13.7810   23.9029 H   0  0  0  0  0  0  0  0  0  0  0  0
    7.0741    9.5876   26.4550 H   0  0  0  0  0  0  0  0  0  0  0  0
   14.7932   16.7873   21.0574 H   0  0  0  0  0  0  0  0  0  0  0  0
   10.1894    9.2466   22.5748 H   0  0  0  0  0  0  0  0  0  0  0  0
   15.8507   17.3111   17.8492 H   0  0  0  0  0  0  0  0  0  0  0  0
   14.4317   18.3019   17.4293 H   0  0  0  0  0  0  0  0  0  0  0  0
   15.2767   18.5884   18.9496 H   0  0  0  0  0  0  0  0  0  0  0  0
   13.0288   15.2322   16.3955 H   0  0  0  0  0  0  0  0  0  0  0  0
   11.4342   15.7496   16.9962 H   0  0  0  0  0  0  0  0  0  0  0  0
   12.5986   16.9592   16.4590 H   0  0  0  0  0  0  0  0  0  0  0  0
    9.1282   12.8163   21.5861 H   0  0  0  0  0  0  0  0  0  0  0  0
   10.2754   11.5835   21.1259 H   0  0  0  0  0  0  0  0  0  0  0  0
   11.9013   12.4200   22.8956 H   0  0  0  0  0  0  0  0  0  0  0  0
    8.8370    8.5034   24.5408 H   0  0  0  0  0  0  0  0  0  0  0  0
   11.1852   13.7774   20.5458 H   0  0  0  0  0  0  0  0  0  0  0  0
   11.1772   12.4729   24.9072 H   0  0  0  0  0  0  0  0  0  0  0  0
  1  2  2  0  0  0  0
  1  3  1  0  0  0  0
  2  4  1  0  0  0  0
  3  7  2  0  0  0  0
  4 10  2  0  0  0  0
  5  8  1  0  0  0  0
  5 11  2  0  0  0  0
  6  9  2  0  0  0  0
  6 19  1  0  0  0  0
  7  9  1  0  0  0  0
  7 10  1  0  0  0  0
  8 12  2  0  0  0  0
  8 15  1  0  0  0  0
  9 17  1  0  0  0  0
 10 19  1  0  0  0  0
 11 13  1  0  0  0  0
 11 23  1  0  0  0  0
 12 16  1  0  0  0  0
 12 23  1  0  0  0  0
 13 20  1  0  0  0  0
 13 21  2  0  0  0  0
 14 18  1  0  0  0  0
 14 22  2  0  0  0  0
 14 24  1  0  0  0  0
 17 18  1  0  0  0  0
 18 20  1  1  0  0  0
  1 25  1  0  0  0  0
  2 26  1  0  0  0  0
  3 27  1  0  0  0  0
  4 28  1  0  0  0  0
  5 29  1  0  0  0  0
  6 30  1  0  0  0  0
 15 31  1  0  0  0  0
 15 32  1  0  0  0  0
 15 33  1  0  0  0  0
 16 34  1  0  0  0  0
 16 35  1  0  0  0  0
 16 36  1  0  0  0  0
 17 37  1  0  0  0  0
 17 38  1  0  0  0  0
 18 39  1  0  0  0  0
 19 40  1  0  0  0  0
 20 41  1  0  0  0  0
 24 42  1  0  0  0  0
M  END
> <Catalog ID>
Z1603311669

> <PlateID>
1041831-R-35

> <Well>
F10

> <MW (desalted)>
326.347

> <ClogP>
2.495

> <HBD>
3

> <TPSA>
95.330

> <RotBonds>
5

> <ROCS_ShapeQuery>
A71EV2A-x0451_0A_A71EV2A-x0310_0A_A71EV2A-x0416_0A_peptide

> <ROCS_TanimotoCombo>
0.549 

> <ROCS_ShapeTanimoto>
0.356 

> <ROCS_ColorTanimoto>
0.193 

> <ROCS_RefTversky>
0.315 

> <ROCS_RefColorTversky>
0.221 

> <ROCS_RefTverskyCombo>
0.536 

> <ROCS_FitTversky>
1.560 

> <ROCS_FitColorTversky>
0.608 

> <ROCS_FitTverskyCombo>
2.169 

> <ROCS_ColorScore>
-6.763

> <ROCS_Overlap>
2191.844

> <ROCS_Rank>
95                  

$$$$
untitled-dbase-2223_2337
  -OEChem-11132311063D

 47 50  0     1  0  0  0  0  0999 V2000
   10.3625   14.6366   17.5526 C   0  0  0  0  0  0  0  0  0  0  0  0
   11.4577   14.5962   16.6940 C   0  0  0  0  0  0  0  0  0  0  0  0
    7.3146   12.6176   24.6952 C   0  0  0  0  0  0  0  0  0  0  0  0
   10.5204   15.0794   18.8671 C   0  0  0  0  0  0  0  0  0  0  0  0
   12.7089   15.0121   17.1441 C   0  0  0  0  0  0  0  0  0  0  0  0
    6.3525   12.3841   25.6845 C   0  0  0  0  0  0  0  0  0  0  0  0
    6.9608   10.0342   25.7966 C   0  0  0  0  0  0  0  0  0  0  0  0
    9.5666   10.1090   23.2825 C   0  0  0  0  0  0  0  0  0  0  0  0
    8.1136   11.5470   24.2472 C   0  0  0  0  0  0  0  0  0  0  0  0
   11.7788   15.4800   19.3435 C   0  0  0  0  0  0  0  0  0  0  0  0
    9.1562   11.4222   23.2868 C   0  0  0  0  0  0  0  0  0  0  0  0
    7.9187   10.2825   24.8071 C   0  0  0  0  0  0  0  0  0  0  0  0
   12.8658   15.4703   18.4556 C   0  0  0  0  0  0  0  0  0  0  0  0
    6.1801   11.1115   26.2254 C   0  0  0  0  0  0  0  0  0  0  0  0
   11.2790   15.0551   21.7571 C   0  0  0  0  0  0  0  0  0  0  0  0
   11.5391   13.0330   24.0624 C   0  0  0  0  0  0  0  0  0  0  0  0
   13.4320   16.0546   21.1285 C   0  0  0  0  0  0  0  0  0  0  0  0
   14.1931   16.6852   19.9756 C   0  0  0  0  0  0  0  0  0  0  0  0
   11.9503   15.9568   20.7661 C   0  0  1  0  0  0  0  0  0  0  0  0
    9.7183   12.5250   22.4223 C   0  0  0  0  0  0  0  0  0  0  0  0
   11.2291   12.7186   22.6062 C   0  0  1  0  0  0  0  0  0  0  0  0
    8.8142    9.4294   24.2026 N   0  0  0  0  0  0  0  0  0  0  0  0
   11.7380   13.7519   21.7332 N   0  0  0  0  0  0  0  0  0  0  0  0
   10.4087   15.5067   22.4922 O   0  0  0  0  0  0  0  0  0  0  0  0
   12.2819   12.3413   24.7511 O   0  0  0  0  0  0  0  0  0  0  0  0
   14.1316   15.8719   18.8009 O   0  0  0  0  0  0  0  0  0  0  0  0
   10.9357   14.1456   24.5451 O   0  0  0  0  0  0  0  0  0  0  0  0
    5.2511   10.9162   27.1716 F   0  0  0  0  0  0  0  0  0  0  0  0
    9.3829   14.3271   17.1994 H   0  0  0  0  0  0  0  0  0  0  0  0
   11.3368   14.2412   15.6749 H   0  0  0  0  0  0  0  0  0  0  0  0
    7.4362   13.6154   24.2831 H   0  0  0  0  0  0  0  0  0  0  0  0
    9.6508   15.1161   19.5204 H   0  0  0  0  0  0  0  0  0  0  0  0
   13.5603   14.9727   16.4697 H   0  0  0  0  0  0  0  0  0  0  0  0
    5.7339   13.2062   26.0344 H   0  0  0  0  0  0  0  0  0  0  0  0
    6.8258    9.0441   26.2186 H   0  0  0  0  0  0  0  0  0  0  0  0
   10.3258    9.5958   22.7087 H   0  0  0  0  0  0  0  0  0  0  0  0
   13.8462   15.0726   21.3702 H   0  0  0  0  0  0  0  0  0  0  0  0
   13.5371   16.6941   22.0114 H   0  0  0  0  0  0  0  0  0  0  0  0
   13.7397   17.6472   19.7231 H   0  0  0  0  0  0  0  0  0  0  0  0
   15.2411   16.8751   20.2249 H   0  0  0  0  0  0  0  0  0  0  0  0
   11.5076   16.9485   20.8815 H   0  0  0  0  0  0  0  0  0  0  0  0
    9.1812   13.4524   22.6619 H   0  0  0  0  0  0  0  0  0  0  0  0
    9.4887   12.3226   21.3672 H   0  0  0  0  0  0  0  0  0  0  0  0
   11.7825   11.8072   22.3520 H   0  0  0  0  0  0  0  0  0  0  0  0
    8.9032    8.4440   24.4087 H   0  0  0  0  0  0  0  0  0  0  0  0
   12.4680   13.5086   21.0704 H   0  0  0  0  0  0  0  0  0  0  0  0
   10.3651   14.6167   23.9019 H   0  0  0  0  0  0  0  0  0  0  0  0
  1  2  2  0  0  0  0
  1  4  1  0  0  0  0
  2  5  1  0  0  0  0
  3  6  1  0  0  0  0
  3  9  2  0  0  0  0
  4 10  2  0  0  0  0
  5 13  2  0  0  0  0
  6 14  2  0  0  0  0
  7 12  2  0  0  0  0
  7 14  1  0  0  0  0
  8 11  2  0  0  0  0
  8 22  1  0  0  0  0
  9 11  1  0  0  0  0
  9 12  1  0  0  0  0
 10 13  1  0  0  0  0
 10 19  1  0  0  0  0
 11 20  1  0  0  0  0
 12 22  1  0  0  0  0
 13 26  1  0  0  0  0
 14 28  1  0  0  0  0
 15 19  1  0  0  0  0
 15 23  1  0  0  0  0
 15 24  2  0  0  0  0
 16 21  1  0  0  0  0
 16 25  2  0  0  0  0
 16 27  1  0  0  0  0
 17 18  1  0  0  0  0
 17 19  1  0  0  0  0
 18 26  1  0  0  0  0
 20 21  1  0  0  0  0
 21 23  1  0  0  0  0
  1 29  1  0  0  0  0
  2 30  1  0  0  0  0
  3 31  1  0  0  0  0
  4 32  1  0  0  0  0
  5 33  1  0  0  0  0
  6 34  1  0  0  0  0
  7 35  1  0  0  0  0
  8 36  1  0  0  0  0
 17 37  1  0  0  0  0
 17 38  1  0  0  0  0
 18 39  1  0  0  0  0
 18 40  1  0  0  0  0
 19 41  1  0  0  0  0
 20 42  1  0  0  0  0
 20 43  1  0  0  0  0
 21 44  1  0  0  0  0
 22 45  1  0  0  0  0
 23 46  1  0  0  0  0
 27 47  1  0  0  0  0
M  END
> <Catalog ID>
Z1603708868

> <PlateID>
1041831-R-28

> <Well>
G04

> <MW (desalted)>
382.385

> <ClogP>
2.669

> <HBD>
3

> <TPSA>
91.420

> <RotBonds>
5

> <ROCS_ShapeQuery>
A71EV2A-x0451_0A_A71EV2A-x0310_0A_A71EV2A-x0416_0A_peptide

> <ROCS_TanimotoCombo>
0.549 

> <ROCS_ShapeTanimoto>
0.372 

> <ROCS_ColorTanimoto>
0.177 

> <ROCS_RefTversky>
0.333 

> <ROCS_RefColorTversky>
0.210 

> <ROCS_RefTverskyCombo>
0.542 

> <ROCS_FitTversky>
1.458 

> <ROCS_FitColorTversky>
0.533 

> <ROCS_FitTverskyCombo>
1.991 

> <ROCS_ColorScore>
-6.428

> <ROCS_Overlap>
2316.755

> <ROCS_Rank>
96                  

$$$$
untitled-dbase-3284_14540
  -OEChem-11132311063D

 53 56  0     1  0  0  0  0  0999 V2000
    5.0870   11.9320   28.8920 C   0  0  0  0  0  0  0  0  0  0  0  0
    3.9946   12.3437   28.1286 C   0  0  0  0  0  0  0  0  0  0  0  0
    8.6036    9.5954   23.4935 C   0  0  0  0  0  0  0  0  0  0  0  0
    9.5061   10.6287   23.2672 C   0  0  0  0  0  0  0  0  0  0  0  0
    6.3842   12.1999   28.4546 C   0  0  0  0  0  0  0  0  0  0  0  0
    4.1993   13.0233   26.9279 C   0  0  0  0  0  0  0  0  0  0  0  0
    7.5398    9.8388   24.3472 C   0  0  0  0  0  0  0  0  0  0  0  0
    9.3197   11.8565   23.8927 C   0  0  0  0  0  0  0  0  0  0  0  0
    6.5889   12.8795   27.2538 C   0  0  0  0  0  0  0  0  0  0  0  0
    5.4965   13.2913   26.4904 C   0  0  0  0  0  0  0  0  0  0  0  0
    8.2237   11.9987   24.7284 C   0  0  0  0  0  0  0  0  0  0  0  0
   10.2802   12.9649   23.6565 C   0  0  0  0  0  0  0  0  0  0  0  0
   13.7646   16.5690   18.2844 C   0  0  0  0  0  0  0  0  0  0  0  0
   13.6152   17.4255   19.5409 C   0  0  0  0  0  0  0  0  0  0  0  0
   12.9884   15.2799   18.5552 C   0  0  0  0  0  0  0  0  0  0  0  0
   12.6927   16.6423   20.4718 C   0  0  0  0  0  0  0  0  0  0  0  0
   13.2769   13.5083   22.4377 C   0  0  0  0  0  0  0  0  0  0  0  0
   11.8166   14.2218   20.5380 C   0  0  0  0  0  0  0  0  0  0  0  0
   14.3238   14.4919   21.9325 C   0  0  0  0  0  0  0  0  0  0  0  0
   11.8777   13.9753   22.0448 C   0  0  1  0  0  0  0  0  0  0  0  0
   12.9286   15.1758   20.0850 C   0  0  0  0  0  0  0  0  0  0  0  0
    7.9858   13.1660   26.7867 C   0  0  0  0  0  0  0  0  0  0  0  0
    7.3258   11.0180   24.9727 N   0  0  0  0  0  0  0  0  0  0  0  0
   10.9004   12.9757   22.4160 N   0  0  0  0  0  0  0  0  0  0  0  0
   10.4872   13.7804   24.5513 O   0  0  0  0  0  0  0  0  0  0  0  0
   14.2098   14.7039   20.5268 O   0  0  0  0  0  0  0  0  0  0  0  0
    8.0035   13.1929   25.3648 O   0  0  0  0  0  0  0  0  0  0  0  0
    5.6832   13.9451   25.3354 F   0  0  0  0  0  0  0  0  0  0  0  0
    4.9277   11.4022   29.8269 H   0  0  0  0  0  0  0  0  0  0  0  0
    2.9847   12.1346   28.4689 H   0  0  0  0  0  0  0  0  0  0  0  0
    8.7277    8.6302   23.0159 H   0  0  0  0  0  0  0  0  0  0  0  0
   10.3503   10.4664   22.6024 H   0  0  0  0  0  0  0  0  0  0  0  0
    7.2292   11.8746   29.0556 H   0  0  0  0  0  0  0  0  0  0  0  0
    3.3489   13.3444   26.3334 H   0  0  0  0  0  0  0  0  0  0  0  0
    6.8071    9.0663   24.5565 H   0  0  0  0  0  0  0  0  0  0  0  0
   13.3793   17.0807   17.3965 H   0  0  0  0  0  0  0  0  0  0  0  0
   14.8235   16.3517   18.1041 H   0  0  0  0  0  0  0  0  0  0  0  0
   14.5957   17.5705   20.0097 H   0  0  0  0  0  0  0  0  0  0  0  0
   13.2095   18.4167   19.3149 H   0  0  0  0  0  0  0  0  0  0  0  0
   11.9815   15.3675   18.1288 H   0  0  0  0  0  0  0  0  0  0  0  0
   13.4862   14.4221   18.0908 H   0  0  0  0  0  0  0  0  0  0  0  0
   12.9133   16.8747   21.5164 H   0  0  0  0  0  0  0  0  0  0  0  0
   11.6520   16.9296   20.2764 H   0  0  0  0  0  0  0  0  0  0  0  0
   13.4708   12.5249   21.9897 H   0  0  0  0  0  0  0  0  0  0  0  0
   13.3618   13.4013   23.5250 H   0  0  0  0  0  0  0  0  0  0  0  0
   11.9429   13.2612   20.0195 H   0  0  0  0  0  0  0  0  0  0  0  0
   10.8322   14.6141   20.2544 H   0  0  0  0  0  0  0  0  0  0  0  0
   14.2613   15.4471   22.4632 H   0  0  0  0  0  0  0  0  0  0  0  0
   15.3246   14.0900   22.1225 H   0  0  0  0  0  0  0  0  0  0  0  0
   11.6158   14.8765   22.5862 H   0  0  0  0  0  0  0  0  0  0  0  0
    8.3356   14.1320   27.1666 H   0  0  0  0  0  0  0  0  0  0  0  0
    8.6786   12.3947   27.1401 H   0  0  0  0  0  0  0  0  0  0  0  0
   10.7240   12.2298   21.7495 H   0  0  0  0  0  0  0  0  0  0  0  0
  1  2  2  0  0  0  0
  1  5  1  0  0  0  0
  2  6  1  0  0  0  0
  3  4  1  0  0  0  0
  3  7  2  0  0  0  0
  4  8  2  0  0  0  0
  5  9  2  0  0  0  0
  6 10  2  0  0  0  0
  7 23  1  0  0  0  0
  8 11  1  0  0  0  0
  8 12  1  0  0  0  0
  9 10  1  0  0  0  0
  9 22  1  0  0  0  0
 10 28  1  0  0  0  0
 11 23  2  0  0  0  0
 11 27  1  0  0  0  0
 12 24  1  0  0  0  0
 12 25  2  0  0  0  0
 13 14  1  0  0  0  0
 13 15  1  0  0  0  0
 14 16  1  0  0  0  0
 15 21  1  0  0  0  0
 16 21  1  0  0  0  0
 17 19  1  0  0  0  0
 17 20  1  0  0  0  0
 18 20  1  0  0  0  0
 18 21  1  0  0  0  0
 19 26  1  0  0  0  0
 20 24  1  0  0  0  0
 21 26  1  0  0  0  0
 22 27  1  0  0  0  0
  1 29  1  0  0  0  0
  2 30  1  0  0  0  0
  3 31  1  0  0  0  0
  4 32  1  0  0  0  0
  5 33  1  0  0  0  0
  6 34  1  0  0  0  0
  7 35  1  0  0  0  0
 13 36  1  0  0  0  0
 13 37  1  0  0  0  0
 14 38  1  0  0  0  0
 14 39  1  0  0  0  0
 15 40  1  0  0  0  0
 15 41  1  0  0  0  0
 16 42  1  0  0  0  0
 16 43  1  0  0  0  0
 17 44  1  0  0  0  0
 17 45  1  0  0  0  0
 18 46  1  0  0  0  0
 18 47  1  0  0  0  0
 19 48  1  0  0  0  0
 19 49  1  0  0  0  0
 20 50  1  0  0  0  0
 22 51  1  0  0  0  0
 22 52  1  0  0  0  0
 24 53  1  0  0  0  0
M  END
> <Catalog ID>
Z1840395732

> <PlateID>
1041831-R-42

> <Well>
A05

> <MW (desalted)>
384.444

> <ClogP>
3.419

> <HBD>
1

> <TPSA>
60.450

> <RotBonds>
5

> <ROCS_ShapeQuery>
A71EV2A-x0451_0A_A71EV2A-x0310_0A_A71EV2A-x0416_0A_peptide

> <ROCS_TanimotoCombo>
0.549 

> <ROCS_ShapeTanimoto>
0.355 

> <ROCS_ColorTanimoto>
0.193 

> <ROCS_RefTversky>
0.322 

> <ROCS_RefColorTversky>
0.216 

> <ROCS_RefTverskyCombo>
0.537 

> <ROCS_FitTversky>
1.421 

> <ROCS_FitColorTversky>
0.650 

> <ROCS_FitTverskyCombo>
2.071 

> <ROCS_ColorScore>
-6.597

> <ROCS_Overlap>
2237.636

> <ROCS_Rank>
97                  

$$$$
untitled-dbase-1253_3075
  -OEChem-11132311063D

 45 48  0     1  0  0  0  0  0999 V2000
    6.0289   13.4076   26.5834 C   0  0  0  0  0  0  0  0  0  0  0  0
   10.0920   10.2838   23.0327 C   0  0  0  0  0  0  0  0  0  0  0  0
    9.2615   12.1805   24.2563 C   0  0  0  0  0  0  0  0  0  0  0  0
    5.3836   12.1625   26.4605 C   0  0  0  0  0  0  0  0  0  0  0  0
    8.9476    9.6033   23.4163 C   0  0  0  0  0  0  0  0  0  0  0  0
    7.1904   13.2649   25.8643 C   0  0  0  0  0  0  0  0  0  0  0  0
   10.2444   11.5965   23.4649 C   0  0  0  0  0  0  0  0  0  0  0  0
    8.1542   11.4152   24.5849 C   0  0  0  0  0  0  0  0  0  0  0  0
   10.7819   14.6496   22.3146 C   0  0  0  0  0  0  0  0  0  0  0  0
   14.2925   16.6242   19.0901 C   0  0  0  0  0  0  0  0  0  0  0  0
   14.3201   16.2258   20.5735 C   0  0  0  0  0  0  0  0  0  0  0  0
   13.1370   14.5615   19.3653 C   0  0  0  0  0  0  0  0  0  0  0  0
   11.7874   16.4990   19.0737 C   0  0  0  0  0  0  0  0  0  0  0  0
   13.0799   15.8496   18.5465 C   0  0  1  0  0  0  0  0  0  0  0  0
   13.0957   15.3004   20.7048 C   0  0  2  0  0  0  0  0  0  0  0  0
   11.8185   16.1655   20.5809 C   0  0  2  0  0  0  0  0  0  0  0  0
   11.4657   12.3798   23.0788 C   0  0  0  0  0  0  0  0  0  0  0  0
   10.5612   15.4332   21.0370 C   0  0  0  0  0  0  0  0  0  0  0  0
    7.9713   10.1371   24.1840 N   0  0  0  0  0  0  0  0  0  0  0  0
    6.0774   11.2929   25.7212 N   0  0  0  0  0  0  0  0  0  0  0  0
    7.1707   11.9926   25.3732 N   0  0  0  0  0  0  0  0  0  0  0  0
   11.1821   13.3489   22.0451 N   0  0  0  0  0  0  0  0  0  0  0  0
   10.6233   15.1254   23.4355 O   0  0  0  0  0  0  0  0  0  0  0  0
    5.6983   14.2860   27.1178 H   0  0  0  0  0  0  0  0  0  0  0  0
   10.8404    9.8007   22.4140 H   0  0  0  0  0  0  0  0  0  0  0  0
    9.3658   13.2052   24.6012 H   0  0  0  0  0  0  0  0  0  0  0  0
    4.4366   11.8522   26.8784 H   0  0  0  0  0  0  0  0  0  0  0  0
    8.7811    8.5772   23.1050 H   0  0  0  0  0  0  0  0  0  0  0  0
    8.0045   13.9501   25.6683 H   0  0  0  0  0  0  0  0  0  0  0  0
   14.1939   17.7061   18.9562 H   0  0  0  0  0  0  0  0  0  0  0  0
   15.2160   16.3007   18.5969 H   0  0  0  0  0  0  0  0  0  0  0  0
   15.2442   15.6818   20.8001 H   0  0  0  0  0  0  0  0  0  0  0  0
   14.2670   17.0958   21.2354 H   0  0  0  0  0  0  0  0  0  0  0  0
   12.2786   13.9041   19.1978 H   0  0  0  0  0  0  0  0  0  0  0  0
   14.0625   13.9956   19.2140 H   0  0  0  0  0  0  0  0  0  0  0  0
   11.7693   17.5798   18.8988 H   0  0  0  0  0  0  0  0  0  0  0  0
   10.9115   16.0613   18.5811 H   0  0  0  0  0  0  0  0  0  0  0  0
   13.0929   15.7209   17.4624 H   0  0  0  0  0  0  0  0  0  0  0  0
   13.1265   14.6659   21.5932 H   0  0  0  0  0  0  0  0  0  0  0  0
   11.9116   17.0840   21.1730 H   0  0  0  0  0  0  0  0  0  0  0  0
   11.8689   12.9176   23.9439 H   0  0  0  0  0  0  0  0  0  0  0  0
   12.2564   11.7182   22.7097 H   0  0  0  0  0  0  0  0  0  0  0  0
   10.2416   14.7426   20.2515 H   0  0  0  0  0  0  0  0  0  0  0  0
    9.7612   16.1601   21.2030 H   0  0  0  0  0  0  0  0  0  0  0  0
   11.2806   13.0642   21.0750 H   0  0  0  0  0  0  0  0  0  0  0  0
  1  4  1  0  0  0  0
  1  6  2  0  0  0  0
  2  5  1  0  0  0  0
  2  7  2  0  0  0  0
  3  7  1  0  0  0  0
  3  8  2  0  0  0  0
  4 20  2  0  0  0  0
  5 19  2  0  0  0  0
  6 21  1  0  0  0  0
  7 17  1  0  0  0  0
  8 19  1  0  0  0  0
  8 21  1  0  0  0  0
  9 18  1  0  0  0  0
  9 22  1  0  0  0  0
  9 23  2  0  0  0  0
 10 11  1  0  0  0  0
 10 14  1  0  0  0  0
 11 15  1  0  0  0  0
 12 14  1  0  0  0  0
 12 15  1  0  0  0  0
 13 14  1  0  0  0  0
 13 16  1  0  0  0  0
 15 16  1  0  0  0  0
 16 18  1  0  0  0  0
 17 22  1  0  0  0  0
 20 21  1  0  0  0  0
  1 24  1  0  0  0  0
  2 25  1  0  0  0  0
  3 26  1  0  0  0  0
  4 27  1  0  0  0  0
  5 28  1  0  0  0  0
  6 29  1  0  0  0  0
 10 30  1  0  0  0  0
 10 31  1  0  0  0  0
 11 32  1  0  0  0  0
 11 33  1  0  0  0  0
 12 34  1  0  0  0  0
 12 35  1  0  0  0  0
 13 36  1  0  0  0  0
 13 37  1  0  0  0  0
 14 38  1  0  0  0  0
 15 39  1  0  0  0  0
 16 40  1  0  0  0  0
 17 41  1  0  0  0  0
 17 42  1  0  0  0  0
 18 43  1  0  0  0  0
 18 44  1  0  0  0  0
 22 45  1  0  0  0  0
M  END
> <Catalog ID>
Z366643320

> <PlateID>
1041831-R-16

> <Well>
F04

> <MW (desalted)>
310.393

> <ClogP>
2.850

> <HBD>
1

> <TPSA>
59.810

> <RotBonds>
5

> <ROCS_ShapeQuery>
A71EV2A-x0451_0A_A71EV2A-x0310_0A_A71EV2A-x0416_0A_peptide

> <ROCS_TanimotoCombo>
0.548 

> <ROCS_ShapeTanimoto>
0.357 

> <ROCS_ColorTanimoto>
0.191 

> <ROCS_RefTversky>
0.315 

> <ROCS_RefColorTversky>
0.230 

> <ROCS_RefTverskyCombo>
0.545 

> <ROCS_FitTversky>
1.600 

> <ROCS_FitColorTversky>
0.532 

> <ROCS_FitTverskyCombo>
2.132 

> <ROCS_ColorScore>
-7.070

> <ROCS_Overlap>
2188.605

> <ROCS_Rank>
98                  

$$$$
untitled-dbase-651_4082
  -OEChem-11132311063D

 55 58  0     1  0  0  0  0  0999 V2000
    9.9037   10.7920   23.2976 C   0  0  0  0  0  0  0  0  0  0  0  0
    9.0859    9.7101   23.6361 C   0  0  0  0  0  0  0  0  0  0  0  0
   10.5491   17.6245   24.1516 C   0  0  0  0  0  0  0  0  0  0  0  0
   10.2346   17.1399   22.8595 C   0  0  0  0  0  0  0  0  0  0  0  0
    8.3884   12.3507   24.3799 C   0  0  0  0  0  0  0  0  0  0  0  0
    7.5481   11.2759   24.7323 C   0  0  0  0  0  0  0  0  0  0  0  0
    9.5624   12.0927   23.6628 C   0  0  0  0  0  0  0  0  0  0  0  0
    6.3162   11.1703   25.4367 C   0  0  0  0  0  0  0  0  0  0  0  0
    7.9155    9.9831   24.3531 C   0  0  0  0  0  0  0  0  0  0  0  0
    5.9659    9.8402   25.4705 C   0  0  0  0  0  0  0  0  0  0  0  0
   11.6953   16.9689   24.5368 C   0  0  0  0  0  0  0  0  0  0  0  0
   11.2112   16.2230   22.5472 C   0  0  0  0  0  0  0  0  0  0  0  0
   10.4535   13.2205   23.2870 C   0  0  0  0  0  0  0  0  0  0  0  0
   12.0899   15.4505   19.0030 C   0  0  0  0  0  0  0  0  0  0  0  0
   13.6605   16.1245   20.6994 C   0  0  0  0  0  0  0  0  0  0  0  0
   12.9173   16.2148   17.9735 C   0  0  0  0  0  0  0  0  0  0  0  0
   14.4502   16.8738   19.6301 C   0  0  0  0  0  0  0  0  0  0  0  0
    5.5480   12.2871   26.0262 C   0  0  0  0  0  0  0  0  0  0  0  0
    4.7979    9.1601   26.0628 C   0  0  0  0  0  0  0  0  0  0  0  0
   12.5232   17.0188   25.7502 C   0  0  0  0  0  0  0  0  0  0  0  0
   12.1594   14.0218   21.6734 C   0  0  0  0  0  0  0  0  0  0  0  0
   11.4650   15.3492   21.3310 C   0  0  2  0  0  0  0  0  0  0  0  0
    6.9368    9.1320   24.8146 N   0  0  0  0  0  0  0  0  0  0  0  0
   12.2403   16.0731   20.3256 N   0  0  0  0  0  0  0  0  0  0  0  0
   11.2296   13.0317   22.1509 N   0  0  0  0  0  0  0  0  0  0  0  0
   10.4758   14.2274   23.9899 O   0  0  0  0  0  0  0  0  0  0  0  0
   12.1055   16.1129   23.5644 O   0  0  0  0  0  0  0  0  0  0  0  0
   14.2919   16.2406   18.3599 O   0  0  0  0  0  0  0  0  0  0  0  0
   10.8189   10.6026   22.7404 H   0  0  0  0  0  0  0  0  0  0  0  0
    9.3526    8.6978   23.3516 H   0  0  0  0  0  0  0  0  0  0  0  0
   10.0065   18.3599   24.7281 H   0  0  0  0  0  0  0  0  0  0  0  0
    9.3994   17.4258   22.2362 H   0  0  0  0  0  0  0  0  0  0  0  0
    8.1264   13.3673   24.6623 H   0  0  0  0  0  0  0  0  0  0  0  0
   11.0382   15.4623   18.6947 H   0  0  0  0  0  0  0  0  0  0  0  0
   12.4235   14.4050   19.0351 H   0  0  0  0  0  0  0  0  0  0  0  0
   14.0630   15.1086   20.8055 H   0  0  0  0  0  0  0  0  0  0  0  0
   13.7830   16.6408   21.6583 H   0  0  0  0  0  0  0  0  0  0  0  0
   12.8538   15.7160   17.0010 H   0  0  0  0  0  0  0  0  0  0  0  0
   12.5537   17.2414   17.8446 H   0  0  0  0  0  0  0  0  0  0  0  0
   14.1392   17.9233   19.5570 H   0  0  0  0  0  0  0  0  0  0  0  0
   15.5166   16.8616   19.8768 H   0  0  0  0  0  0  0  0  0  0  0  0
    4.8280   12.6979   25.3007 H   0  0  0  0  0  0  0  0  0  0  0  0
    4.9836   11.9722   26.9196 H   0  0  0  0  0  0  0  0  0  0  0  0
    6.2042   13.1108   26.3531 H   0  0  0  0  0  0  0  0  0  0  0  0
    3.9694    9.0897   25.3388 H   0  0  0  0  0  0  0  0  0  0  0  0
    5.0396    8.1361   26.3957 H   0  0  0  0  0  0  0  0  0  0  0  0
    4.4192    9.6886   26.9546 H   0  0  0  0  0  0  0  0  0  0  0  0
   12.1822   16.2848   26.5019 H   0  0  0  0  0  0  0  0  0  0  0  0
   13.5881   16.8064   25.5412 H   0  0  0  0  0  0  0  0  0  0  0  0
   12.5055   18.0150   26.2302 H   0  0  0  0  0  0  0  0  0  0  0  0
   12.6349   13.5951   20.7830 H   0  0  0  0  0  0  0  0  0  0  0  0
   12.9340   14.1390   22.4387 H   0  0  0  0  0  0  0  0  0  0  0  0
   10.4973   15.1102   20.8709 H   0  0  0  0  0  0  0  0  0  0  0  0
    6.9383    8.1292   24.6861 H   0  0  0  0  0  0  0  0  0  0  0  0
   11.1999   12.1425   21.6577 H   0  0  0  0  0  0  0  0  0  0  0  0
  1  2  1  0  0  0  0
  1  7  2  0  0  0  0
  2  9  2  0  0  0  0
  3  4  1  0  0  0  0
  3 11  2  0  0  0  0
  4 12  2  0  0  0  0
  5  6  2  0  0  0  0
  5  7  1  0  0  0  0
  6  8  1  0  0  0  0
  6  9  1  0  0  0  0
  7 13  1  0  0  0  0
  8 10  2  0  0  0  0
  8 18  1  0  0  0  0
  9 23  1  0  0  0  0
 10 19  1  0  0  0  0
 10 23  1  0  0  0  0
 11 20  1  0  0  0  0
 11 27  1  0  0  0  0
 12 22  1  0  0  0  0
 12 27  1  0  0  0  0
 13 25  1  0  0  0  0
 13 26  2  0  0  0  0
 14 16  1  0  0  0  0
 14 24  1  0  0  0  0
 15 17  1  0  0  0  0
 15 24  1  0  0  0  0
 16 28  1  0  0  0  0
 17 28  1  0  0  0  0
 21 22  1  0  0  0  0
 21 25  1  0  0  0  0
 22 24  1  0  0  0  0
  1 29  1  0  0  0  0
  2 30  1  0  0  0  0
  3 31  1  0  0  0  0
  4 32  1  0  0  0  0
  5 33  1  0  0  0  0
 14 34  1  0  0  0  0
 14 35  1  0  0  0  0
 15 36  1  0  0  0  0
 15 37  1  0  0  0  0
 16 38  1  0  0  0  0
 16 39  1  0  0  0  0
 17 40  1  0  0  0  0
 17 41  1  0  0  0  0
 18 42  1  0  0  0  0
 18 43  1  0  0  0  0
 18 44  1  0  0  0  0
 19 45  1  0  0  0  0
 19 46  1  0  0  0  0
 19 47  1  0  0  0  0
 20 48  1  0  0  0  0
 20 49  1  0  0  0  0
 20 50  1  0  0  0  0
 21 51  1  0  0  0  0
 21 52  1  0  0  0  0
 22 53  1  0  0  0  0
 23 54  1  0  0  0  0
 25 55  1  0  0  0  0
M  END
> <Catalog ID>
Z254381580

> <PlateID>
1041831-R-09

> <Well>
B02

> <MW (desalted)>
381.468

> <ClogP>
3.513

> <HBD>
2

> <TPSA>
70.500

> <RotBonds>
5

> <ROCS_ShapeQuery>
A71EV2A-x0451_0A_A71EV2A-x0310_0A_A71EV2A-x0416_0A_peptide

> <ROCS_TanimotoCombo>
0.548 

> <ROCS_ShapeTanimoto>
0.353 

> <ROCS_ColorTanimoto>
0.195 

> <ROCS_RefTversky>
0.320 

> <ROCS_RefColorTversky>
0.223 

> <ROCS_RefTverskyCombo>
0.543 

> <ROCS_FitTversky>
1.411 

> <ROCS_FitColorTversky>
0.614 

> <ROCS_FitTverskyCombo>
2.025 

> <ROCS_ColorScore>
-6.821

> <ROCS_Overlap>
2227.636

> <ROCS_Rank>
99                  

$$$$
untitled-dbase-2695_4765
  -OEChem-11132311063D

 44 47  0     1  0  0  0  0  0999 V2000
   12.5843   17.1563   18.5527 C   0  0  0  0  0  0  0  0  0  0  0  0
   12.4662   15.9089   17.9181 C   0  0  0  0  0  0  0  0  0  0  0  0
    7.8155   12.7391   24.4589 C   0  0  0  0  0  0  0  0  0  0  0  0
   13.2381   17.2700   19.7824 C   0  0  0  0  0  0  0  0  0  0  0  0
   12.9987   14.7603   18.5062 C   0  0  0  0  0  0  0  0  0  0  0  0
    6.7675   12.6607   25.3833 C   0  0  0  0  0  0  0  0  0  0  0  0
    7.0376   10.2528   25.5658 C   0  0  0  0  0  0  0  0  0  0  0  0
    9.7883    9.9164   23.2341 C   0  0  0  0  0  0  0  0  0  0  0  0
    8.4871   11.5599   24.0796 C   0  0  0  0  0  0  0  0  0  0  0  0
   13.7540   16.1226   20.3574 C   0  0  0  0  0  0  0  0  0  0  0  0
    9.5633   11.2731   23.1940 C   0  0  0  0  0  0  0  0  0  0  0  0
    8.0835   10.3464   24.6407 C   0  0  0  0  0  0  0  0  0  0  0  0
   13.6335   14.8956   19.7261 C   0  0  0  0  0  0  0  0  0  0  0  0
    6.3862   11.4356   25.9270 C   0  0  0  0  0  0  0  0  0  0  0  0
   13.6742   13.8638   22.7533 C   0  0  0  0  0  0  0  0  0  0  0  0
   10.6527   14.1712   23.9506 C   0  0  0  0  0  0  0  0  0  0  0  0
   14.5230   15.9656   21.6122 C   0  0  0  0  0  0  0  0  0  0  0  0
   14.5771   14.4299   21.7019 C   0  0  2  0  0  0  0  0  0  0  0  0
   10.3275   12.2697   22.3561 C   0  0  0  0  0  0  0  0  0  0  0  0
   11.3540   13.0713   23.1671 C   0  0  1  0  0  0  0  0  0  0  0  0
    8.8907    9.3660   24.1092 N   0  0  0  0  0  0  0  0  0  0  0  0
   12.3864   13.6185   22.3164 N   0  0  0  0  0  0  0  0  0  0  0  0
   14.1114   13.6614   23.8800 O   0  0  0  0  0  0  0  0  0  0  0  0
   10.2378   14.0153   25.0943 O   0  0  0  0  0  0  0  0  0  0  0  0
   14.2035   13.8602   20.4204 O   0  0  0  0  0  0  0  0  0  0  0  0
   10.5250   15.3470   23.2903 O   0  0  0  0  0  0  0  0  0  0  0  0
    5.3791   11.3896   26.8101 F   0  0  0  0  0  0  0  0  0  0  0  0
   12.1565   18.0390   18.0855 H   0  0  0  0  0  0  0  0  0  0  0  0
   11.9530   15.8386   16.9631 H   0  0  0  0  0  0  0  0  0  0  0  0
    8.1002   13.7017   24.0436 H   0  0  0  0  0  0  0  0  0  0  0  0
   13.3299   18.2340   20.2715 H   0  0  0  0  0  0  0  0  0  0  0  0
   12.9166   13.7967   18.0155 H   0  0  0  0  0  0  0  0  0  0  0  0
    6.2464   13.5671   25.6800 H   0  0  0  0  0  0  0  0  0  0  0  0
    6.7402    9.2998   25.9899 H   0  0  0  0  0  0  0  0  0  0  0  0
   10.5056    9.2919   22.7197 H   0  0  0  0  0  0  0  0  0  0  0  0
   15.5310   16.3928   21.5503 H   0  0  0  0  0  0  0  0  0  0  0  0
   13.9890   16.4220   22.4555 H   0  0  0  0  0  0  0  0  0  0  0  0
   15.6256   14.0900   21.9226 H   0  0  0  0  0  0  0  0  0  0  0  0
    9.6014   12.9446   21.8835 H   0  0  0  0  0  0  0  0  0  0  0  0
   10.8241   11.7515   21.5244 H   0  0  0  0  0  0  0  0  0  0  0  0
   11.8683   12.4372   23.8984 H   0  0  0  0  0  0  0  0  0  0  0  0
    8.8294    8.3824   24.3332 H   0  0  0  0  0  0  0  0  0  0  0  0
   12.1542   13.8331   21.3513 H   0  0  0  0  0  0  0  0  0  0  0  0
   10.8946   15.3519   22.3823 H   0  0  0  0  0  0  0  0  0  0  0  0
  1  2  2  0  0  0  0
  1  4  1  0  0  0  0
  2  5  1  0  0  0  0
  3  6  1  0  0  0  0
  3  9  2  0  0  0  0
  4 10  2  0  0  0  0
  5 13  2  0  0  0  0
  6 14  2  0  0  0  0
  7 12  2  0  0  0  0
  7 14  1  0  0  0  0
  8 11  2  0  0  0  0
  8 21  1  0  0  0  0
  9 11  1  0  0  0  0
  9 12  1  0  0  0  0
 10 13  1  0  0  0  0
 10 17  1  0  0  0  0
 11 19  1  0  0  0  0
 12 21  1  0  0  0  0
 13 25  1  0  0  0  0
 14 27  1  0  0  0  0
 15 18  1  0  0  0  0
 15 22  1  0  0  0  0
 15 23  2  0  0  0  0
 16 20  1  0  0  0  0
 16 24  2  0  0  0  0
 16 26  1  0  0  0  0
 17 18  1  0  0  0  0
 18 25  1  0  0  0  0
 19 20  1  0  0  0  0
 20 22  1  0  0  0  0
  1 28  1  0  0  0  0
  2 29  1  0  0  0  0
  3 30  1  0  0  0  0
  4 31  1  0  0  0  0
  5 32  1  0  0  0  0
  6 33  1  0  0  0  0
  7 34  1  0  0  0  0
  8 35  1  0  0  0  0
 17 36  1  0  0  0  0
 17 37  1  0  0  0  0
 18 38  1  0  0  0  0
 19 39  1  0  0  0  0
 19 40  1  0  0  0  0
 20 41  1  0  0  0  0
 21 42  1  0  0  0  0
 22 43  1  0  0  0  0
 26 44  1  0  0  0  0
M  END
> <Catalog ID>
Z1603708972

> <PlateID>
1041831-R-34

> <Well>
F06

> <MW (desalted)>
368.358

> <ClogP>
2.906

> <HBD>
3

> <TPSA>
91.420

> <RotBonds>
5

> <ROCS_ShapeQuery>
A71EV2A-x0451_0A_A71EV2A-x0310_0A_A71EV2A-x0416_0A_peptide

> <ROCS_TanimotoCombo>
0.548 

> <ROCS_ShapeTanimoto>
0.355 

> <ROCS_ColorTanimoto>
0.193 

> <ROCS_RefTversky>
0.321 

> <ROCS_RefColorTversky>
0.225 

> <ROCS_RefTverskyCombo>
0.546 

> <ROCS_FitTversky>
1.437 

> <ROCS_FitColorTversky>
0.572 

> <ROCS_FitTverskyCombo>
2.009 

> <ROCS_ColorScore>
-6.915

> <ROCS_Overlap>
2231.967

> <ROCS_Rank>
100                 

$$$$
untitled-dbase-1861_5125
  -OEChem-11132311063D

 43 45  0     1  0  0  0  0  0999 V2000
    6.3265   12.4022   25.6434 C   0  0  0  0  0  0  0  0  0  0  0  0
    6.1410   11.1366   26.1962 C   0  0  0  0  0  0  0  0  0  0  0  0
    7.3030   12.6204   24.6647 C   0  0  0  0  0  0  0  0  0  0  0  0
    6.9227   10.0512   25.7902 C   0  0  0  0  0  0  0  0  0  0  0  0
    9.5626   10.0861   23.3111 C   0  0  0  0  0  0  0  0  0  0  0  0
    8.1031   11.5412   24.2397 C   0  0  0  0  0  0  0  0  0  0  0  0
    9.1581   11.4010   23.2950 C   0  0  0  0  0  0  0  0  0  0  0  0
    7.8949   10.2841   24.8111 C   0  0  0  0  0  0  0  0  0  0  0  0
   11.3217   15.0065   21.7578 C   0  0  0  0  0  0  0  0  0  0  0  0
   11.5367   13.0092   24.0891 C   0  0  0  0  0  0  0  0  0  0  0  0
   13.5074   15.9246   21.0881 C   0  0  0  0  0  0  0  0  0  0  0  0
   11.7871   15.3361   19.3612 C   0  0  0  0  0  0  0  0  0  0  0  0
   14.2903   16.6101   19.9747 C   0  0  0  0  0  0  0  0  0  0  0  0
   12.6638   16.0546   18.3426 C   0  0  0  0  0  0  0  0  0  0  0  0
   12.0205   15.9042   20.7556 C   0  0  0  0  0  0  0  0  0  0  0  0
    9.7387   12.4914   22.4270 C   0  0  0  0  0  0  0  0  0  0  0  0
   11.2474   12.6800   22.6319 C   0  0  1  0  0  0  0  0  0  0  0  0
    8.7947    9.4203   24.2284 N   0  0  0  0  0  0  0  0  0  0  0  0
   11.7747   13.7011   21.7554 N   0  0  0  0  0  0  0  0  0  0  0  0
   10.4425   15.4705   22.4743 O   0  0  0  0  0  0  0  0  0  0  0  0
   12.2656   12.3217   24.7967 O   0  0  0  0  0  0  0  0  0  0  0  0
   14.0395   15.9803   18.7179 O   0  0  0  0  0  0  0  0  0  0  0  0
   10.9314   14.1300   24.5501 O   0  0  0  0  0  0  0  0  0  0  0  0
    5.7060   13.2305   25.9749 H   0  0  0  0  0  0  0  0  0  0  0  0
    5.3768   10.9897   26.9551 H   0  0  0  0  0  0  0  0  0  0  0  0
    7.4346   13.6127   24.2429 H   0  0  0  0  0  0  0  0  0  0  0  0
    6.7783    9.0666   26.2218 H   0  0  0  0  0  0  0  0  0  0  0  0
   10.3263    9.5635   22.7518 H   0  0  0  0  0  0  0  0  0  0  0  0
   13.8946   14.9238   21.2553 H   0  0  0  0  0  0  0  0  0  0  0  0
   13.6383   16.5036   22.0011 H   0  0  0  0  0  0  0  0  0  0  0  0
   10.7451   15.5122   19.0977 H   0  0  0  0  0  0  0  0  0  0  0  0
   11.9763   14.2671   19.3287 H   0  0  0  0  0  0  0  0  0  0  0  0
   13.9787   17.6557   19.8911 H   0  0  0  0  0  0  0  0  0  0  0  0
   15.3671   16.6035   20.1774 H   0  0  0  0  0  0  0  0  0  0  0  0
   12.5371   15.6424   17.3357 H   0  0  0  0  0  0  0  0  0  0  0  0
   12.3885   17.1129   18.2987 H   0  0  0  0  0  0  0  0  0  0  0  0
   11.5912   16.8706   20.8528 H   0  0  0  0  0  0  0  0  0  0  0  0
    9.2026   13.4241   22.6481 H   0  0  0  0  0  0  0  0  0  0  0  0
    9.5242   12.2783   21.3708 H   0  0  0  0  0  0  0  0  0  0  0  0
   11.8002   11.7632   22.3964 H   0  0  0  0  0  0  0  0  0  0  0  0
    8.8761    8.4368   24.4470 H   0  0  0  0  0  0  0  0  0  0  0  0
   12.5135   13.4469   21.1066 H   0  0  0  0  0  0  0  0  0  0  0  0
   10.3730   14.5965   23.8931 H   0  0  0  0  0  0  0  0  0  0  0  0
  1  2  2  0  0  0  0
  1  3  1  0  0  0  0
  2  4  1  0  0  0  0
  3  6  2  0  0  0  0
  4  8  2  0  0  0  0
  5  7  2  0  0  0  0
  5 18  1  0  0  0  0
  6  7  1  0  0  0  0
  6  8  1  0  0  0  0
  7 16  1  0  0  0  0
  8 18  1  0  0  0  0
  9 15  1  0  0  0  0
  9 19  1  0  0  0  0
  9 20  2  0  0  0  0
 10 17  1  0  0  0  0
 10 21  2  0  0  0  0
 10 23  1  0  0  0  0
 11 13  1  0  0  0  0
 11 15  1  0  0  0  0
 12 14  1  0  0  0  0
 12 15  1  0  0  0  0
 13 22  1  0  0  0  0
 14 22  1  0  0  0  0
 16 17  1  0  0  0  0
 17 19  1  0  0  0  0
  1 24  1  0  0  0  0
  2 25  1  0  0  0  0
  3 26  1  0  0  0  0
  4 27  1  0  0  0  0
  5 28  1  0  0  0  0
 11 29  1  0  0  0  0
 11 30  1  0  0  0  0
 12 31  1  0  0  0  0
 12 32  1  0  0  0  0
 13 33  1  0  0  0  0
 13 34  1  0  0  0  0
 14 35  1  0  0  0  0
 14 36  1  0  0  0  0
 15 37  1  0  0  0  0
 16 38  1  0  0  0  0
 16 39  1  0  0  0  0
 17 40  1  0  0  0  0
 18 41  1  0  0  0  0
 19 42  1  0  0  0  0
 23 43  1  0  0  0  0
M  END
> <Catalog ID>
Z351722270

> <PlateID>
1041831-R-24

> <Well>
C02

> <MW (desalted)>
316.352

> <ClogP>
0.442

> <HBD>
3

> <TPSA>
91.420

> <RotBonds>
5

> <ROCS_ShapeQuery>
A71EV2A-x0451_0A_A71EV2A-x0310_0A_A71EV2A-x0416_0A_peptide

> <ROCS_TanimotoCombo>
0.548 

> <ROCS_ShapeTanimoto>
0.367 

> <ROCS_ColorTanimoto>
0.181 

> <ROCS_RefTversky>
0.321 

> <ROCS_RefColorTversky>
0.209 

> <ROCS_RefTverskyCombo>
0.530 

> <ROCS_FitTversky>
1.654 

> <ROCS_FitColorTversky>
0.576 

> <ROCS_FitTverskyCombo>
2.229 

> <ROCS_ColorScore>
-6.399

> <ROCS_Overlap>
2227.458

> <ROCS_Rank>
101                 

$$$$
untitled-dbase-949_2849
  -OEChem-11132311063D

 40 42  0     1  0  0  0  0  0999 V2000
    6.9636   12.8262   25.6126 C   0  0  0  0  0  0  0  0  0  0  0  0
    6.5846   11.6327   26.2239 C   0  0  0  0  0  0  0  0  0  0  0  0
   14.2927   16.5533   19.3808 C   0  0  0  0  0  0  0  0  0  0  0  0
    7.9018   12.8327   24.5740 C   0  0  0  0  0  0  0  0  0  0  0  0
    7.1290   10.4107   25.8186 C   0  0  0  0  0  0  0  0  0  0  0  0
   13.8850   15.8188   20.5317 C   0  0  0  0  0  0  0  0  0  0  0  0
    9.5746    9.8879   23.1990 C   0  0  0  0  0  0  0  0  0  0  0  0
   13.2739   16.6848   18.4632 C   0  0  0  0  0  0  0  0  0  0  0  0
    8.4643   11.6130   24.1484 C   0  0  0  0  0  0  0  0  0  0  0  0
    9.4163   11.2539   23.1535 C   0  0  0  0  0  0  0  0  0  0  0  0
    8.0658   10.4325   24.7792 C   0  0  0  0  0  0  0  0  0  0  0  0
   12.5698   15.4171   20.4499 C   0  0  0  0  0  0  0  0  0  0  0  0
   11.7705   14.6392   21.4313 C   0  0  0  0  0  0  0  0  0  0  0  0
   11.5814   13.1601   24.0194 C   0  0  0  0  0  0  0  0  0  0  0  0
   12.9743   13.3335   26.0804 C   0  0  0  0  0  0  0  0  0  0  0  0
   10.1316   12.1931   22.2133 C   0  0  0  0  0  0  0  0  0  0  0  0
   11.5709   12.4879   22.6511 C   0  0  1  0  0  0  0  0  0  0  0  0
    8.7557    9.4014   24.1824 N   0  0  0  0  0  0  0  0  0  0  0  0
   12.2481   13.3722   21.7364 N   0  0  0  0  0  0  0  0  0  0  0  0
   12.7330   12.8637   24.7351 N   0  0  0  0  0  0  0  0  0  0  0  0
   10.7456   15.1318   21.8954 O   0  0  0  0  0  0  0  0  0  0  0  0
   10.6486   13.8436   24.4363 O   0  0  0  0  0  0  0  0  0  0  0  0
   11.8326   15.9248   18.9900 S   0  0  0  0  0  0  0  0  0  0  0  0
    6.5259   13.7638   25.9449 H   0  0  0  0  0  0  0  0  0  0  0  0
    5.8542   11.6509   27.0287 H   0  0  0  0  0  0  0  0  0  0  0  0
   15.2834   16.9631   19.2331 H   0  0  0  0  0  0  0  0  0  0  0  0
    8.1862   13.7714   24.1071 H   0  0  0  0  0  0  0  0  0  0  0  0
    6.8341    9.4823   26.2957 H   0  0  0  0  0  0  0  0  0  0  0  0
   14.5283   15.5994   21.3746 H   0  0  0  0  0  0  0  0  0  0  0  0
   10.1946    9.2178   22.6196 H   0  0  0  0  0  0  0  0  0  0  0  0
   13.3074   17.1900   17.5082 H   0  0  0  0  0  0  0  0  0  0  0  0
   13.4901   14.3043   26.0434 H   0  0  0  0  0  0  0  0  0  0  0  0
   12.0149   13.4480   26.6062 H   0  0  0  0  0  0  0  0  0  0  0  0
   13.6012   12.6055   26.6160 H   0  0  0  0  0  0  0  0  0  0  0  0
   10.1208   11.7772   21.1967 H   0  0  0  0  0  0  0  0  0  0  0  0
    9.5519   13.1234   22.1498 H   0  0  0  0  0  0  0  0  0  0  0  0
   12.1682   11.5697   22.6978 H   0  0  0  0  0  0  0  0  0  0  0  0
    8.6696    8.4265   24.4346 H   0  0  0  0  0  0  0  0  0  0  0  0
   13.0712   13.0102   21.2623 H   0  0  0  0  0  0  0  0  0  0  0  0
   13.4420   12.2876   24.2910 H   0  0  0  0  0  0  0  0  0  0  0  0
  1  2  2  0  0  0  0
  1  4  1  0  0  0  0
  2  5  1  0  0  0  0
  3  6  1  0  0  0  0
  3  8  2  0  0  0  0
  4  9  2  0  0  0  0
  5 11  2  0  0  0  0
  6 12  2  0  0  0  0
  7 10  2  0  0  0  0
  7 18  1  0  0  0  0
  8 23  1  0  0  0  0
  9 10  1  0  0  0  0
  9 11  1  0  0  0  0
 10 16  1  0  0  0  0
 11 18  1  0  0  0  0
 12 13  1  0  0  0  0
 12 23  1  0  0  0  0
 13 19  1  0  0  0  0
 13 21  2  0  0  0  0
 14 17  1  0  0  0  0
 14 20  1  0  0  0  0
 14 22  2  0  0  0  0
 15 20  1  0  0  0  0
 16 17  1  0  0  0  0
 17 19  1  0  0  0  0
  1 24  1  0  0  0  0
  2 25  1  0  0  0  0
  3 26  1  0  0  0  0
  4 27  1  0  0  0  0
  5 28  1  0  0  0  0
  6 29  1  0  0  0  0
  7 30  1  0  0  0  0
  8 31  1  0  0  0  0
 15 32  1  0  0  0  0
 15 33  1  0  0  0  0
 15 34  1  0  0  0  0
 16 35  1  0  0  0  0
 16 36  1  0  0  0  0
 17 37  1  0  0  0  0
 18 38  1  0  0  0  0
 19 39  1  0  0  0  0
 20 40  1  0  0  0  0
M  END
> <Catalog ID>
Z32017124

> <PlateID>
1041831-R-12

> <Well>
G10

> <MW (desalted)>
327.401

> <ClogP>
1.561

> <HBD>
3

> <TPSA>
73.990

> <RotBonds>
5

> <ROCS_ShapeQuery>
A71EV2A-x0451_0A_A71EV2A-x0310_0A_A71EV2A-x0416_0A_peptide

> <ROCS_TanimotoCombo>
0.548 

> <ROCS_ShapeTanimoto>
0.364 

> <ROCS_ColorTanimoto>
0.185 

> <ROCS_RefTversky>
0.318 

> <ROCS_RefColorTversky>
0.203 

> <ROCS_RefTverskyCombo>
0.521 

> <ROCS_FitTversky>
1.652 

> <ROCS_FitColorTversky>
0.672 

> <ROCS_FitTverskyCombo>
2.325 

> <ROCS_ColorScore>
-6.189

> <ROCS_Overlap>
2209.165

> <ROCS_Rank>
102                 

$$$$
untitled-dbase-721_4945
  -OEChem-11132311063D

 40 42  0     1  0  0  0  0  0999 V2000
    7.2949   10.3841   25.7881 C   0  0  0  0  0  0  0  0  0  0  0  0
    6.7611   11.5940   26.2410 C   0  0  0  0  0  0  0  0  0  0  0  0
    7.9670   12.8314   24.5347 C   0  0  0  0  0  0  0  0  0  0  0  0
    9.5905    9.9254   23.0248 C   0  0  0  0  0  0  0  0  0  0  0  0
    8.5177   11.6242   24.0604 C   0  0  0  0  0  0  0  0  0  0  0  0
    9.4145   11.2898   23.0074 C   0  0  0  0  0  0  0  0  0  0  0  0
    8.1696   10.4308   24.6968 C   0  0  0  0  0  0  0  0  0  0  0  0
    7.0906   12.7999   25.6254 C   0  0  0  0  0  0  0  0  0  0  0  0
   11.7040   14.3406   20.6019 C   0  0  0  0  0  0  0  0  0  0  0  0
   10.7615   14.1652   23.5262 C   0  0  0  0  0  0  0  0  0  0  0  0
   12.7304   17.0387   19.2582 C   0  0  0  0  0  0  0  0  0  0  0  0
   12.3210   15.7348   18.6161 C   0  0  0  0  0  0  0  0  0  0  0  0
   14.0012   16.6500   19.9786 C   0  0  0  0  0  0  0  0  0  0  0  0
   12.7791   14.7029   19.6285 C   0  0  1  0  0  0  0  0  0  0  0  0
   10.0481   12.2298   22.0606 C   0  0  0  0  0  0  0  0  0  0  0  0
   11.2423   13.0147   22.6541 C   0  0  1  0  0  0  0  0  0  0  0  0
    8.8355    9.4161   24.0470 N   0  0  0  0  0  0  0  0  0  0  0  0
   12.1170   13.4877   21.6105 N   0  0  0  0  0  0  0  0  0  0  0  0
   10.5771   14.7996   20.4560 O   0  0  0  0  0  0  0  0  0  0  0  0
   10.5354   15.2874   23.0857 O   0  0  0  0  0  0  0  0  0  0  0  0
   13.8237   15.2936   20.4074 O   0  0  0  0  0  0  0  0  0  0  0  0
   10.5932   13.8557   24.8342 O   0  0  0  0  0  0  0  0  0  0  0  0
    6.3422   14.4153   26.2668 Br  0  0  0  0  0  0  0  0  0  0  0  0
    7.0382    9.4459   26.2686 H   0  0  0  0  0  0  0  0  0  0  0  0
    6.0791   11.5745   27.0885 H   0  0  0  0  0  0  0  0  0  0  0  0
    8.2251   13.7713   24.0537 H   0  0  0  0  0  0  0  0  0  0  0  0
   10.1848    9.2703   22.4030 H   0  0  0  0  0  0  0  0  0  0  0  0
   12.8759   17.8528   18.5435 H   0  0  0  0  0  0  0  0  0  0  0  0
   11.9695   17.3504   19.9832 H   0  0  0  0  0  0  0  0  0  0  0  0
   11.2524   15.6896   18.3854 H   0  0  0  0  0  0  0  0  0  0  0  0
   12.8755   15.6029   17.6789 H   0  0  0  0  0  0  0  0  0  0  0  0
   14.8644   16.6797   19.3048 H   0  0  0  0  0  0  0  0  0  0  0  0
   14.2090   17.2868   20.8428 H   0  0  0  0  0  0  0  0  0  0  0  0
   13.1448   13.7865   19.1555 H   0  0  0  0  0  0  0  0  0  0  0  0
    9.2926   12.9517   21.6897 H   0  0  0  0  0  0  0  0  0  0  0  0
   10.3890   11.7087   21.1417 H   0  0  0  0  0  0  0  0  0  0  0  0
   11.8539   12.3656   23.2913 H   0  0  0  0  0  0  0  0  0  0  0  0
    8.7747    8.4372   24.2908 H   0  0  0  0  0  0  0  0  0  0  0  0
   13.0864   13.1791   21.6157 H   0  0  0  0  0  0  0  0  0  0  0  0
   10.8055   12.9278   25.0686 H   0  0  0  0  0  0  0  0  0  0  0  0
  1  2  1  0  0  0  0
  1  7  2  0  0  0  0
  2  8  2  0  0  0  0
  3  5  2  0  0  0  0
  3  8  1  0  0  0  0
  4  6  2  0  0  0  0
  4 17  1  0  0  0  0
  5  6  1  0  0  0  0
  5  7  1  0  0  0  0
  6 15  1  0  0  0  0
  7 17  1  0  0  0  0
  8 23  1  0  0  0  0
  9 14  1  0  0  0  0
  9 18  1  0  0  0  0
  9 19  2  0  0  0  0
 10 16  1  0  0  0  0
 10 20  2  0  0  0  0
 10 22  1  0  0  0  0
 11 12  1  0  0  0  0
 11 13  1  0  0  0  0
 12 14  1  0  0  0  0
 13 21  1  0  0  0  0
 14 21  1  0  0  0  0
 15 16  1  0  0  0  0
 16 18  1  0  0  0  0
  1 24  1  0  0  0  0
  2 25  1  0  0  0  0
  3 26  1  0  0  0  0
  4 27  1  0  0  0  0
 11 28  1  0  0  0  0
 11 29  1  0  0  0  0
 12 30  1  0  0  0  0
 12 31  1  0  0  0  0
 13 32  1  0  0  0  0
 13 33  1  0  0  0  0
 14 34  1  0  0  0  0
 15 35  1  0  0  0  0
 15 36  1  0  0  0  0
 16 37  1  0  0  0  0
 17 38  1  0  0  0  0
 18 39  1  0  0  0  0
 22 40  1  0  0  0  0
M  END
> <Catalog ID>
Z1445607359

> <PlateID>
1041831-R-10

> <Well>
A02

> <MW (desalted)>
381.221

> <ClogP>
2.471

> <HBD>
3

> <TPSA>
91.420

> <RotBonds>
5

> <ROCS_ShapeQuery>
A71EV2A-x0451_0A_A71EV2A-x0310_0A_A71EV2A-x0416_0A_peptide

> <ROCS_TanimotoCombo>
0.548 

> <ROCS_ShapeTanimoto>
0.359 

> <ROCS_ColorTanimoto>
0.189 

> <ROCS_RefTversky>
0.316 

> <ROCS_RefColorTversky>
0.221 

> <ROCS_RefTverskyCombo>
0.537 

> <ROCS_FitTversky>
1.632 

> <ROCS_FitColorTversky>
0.562 

> <ROCS_FitTverskyCombo>
2.194 

> <ROCS_ColorScore>
-6.784

> <ROCS_Overlap>
2192.310

> <ROCS_Rank>
103                 

$$$$
untitled-dbase-3481_853
  -OEChem-11132311063D

 45 48  0     0  0  0  0  0  0999 V2000
    6.2521   11.2464   26.1349 C   0  0  0  0  0  0  0  0  0  0  0  0
    6.7711   12.5449   26.1297 C   0  0  0  0  0  0  0  0  0  0  0  0
    6.8402   10.2475   25.3578 C   0  0  0  0  0  0  0  0  0  0  0  0
    7.8800   12.8635   25.3430 C   0  0  0  0  0  0  0  0  0  0  0  0
   14.3310   16.9274   19.7208 C   0  0  0  0  0  0  0  0  0  0  0  0
   13.7821   15.9971   20.5715 C   0  0  0  0  0  0  0  0  0  0  0  0
   12.9239   15.8440   18.5475 C   0  0  0  0  0  0  0  0  0  0  0  0
    7.9488   10.5600   24.5789 C   0  0  0  0  0  0  0  0  0  0  0  0
    8.4575   11.8650   24.5683 C   0  0  0  0  0  0  0  0  0  0  0  0
   10.3230   13.1047   23.4521 C   0  0  0  0  0  0  0  0  0  0  0  0
    8.6120    7.4067   24.6292 C   0  0  0  0  0  0  0  0  0  0  0  0
    7.6655    7.4799   23.4334 C   0  0  0  0  0  0  0  0  0  0  0  0
    9.5587    8.5943   24.4916 C   0  0  0  0  0  0  0  0  0  0  0  0
    7.9652    8.7951   22.7124 C   0  0  0  0  0  0  0  0  0  0  0  0
    9.6973   10.6595   22.9938 C   0  0  0  0  0  0  0  0  0  0  0  0
    8.7703    9.6458   23.6993 C   0  0  0  0  0  0  0  0  0  0  0  0
   12.0321   14.2096   20.2488 C   0  0  0  0  0  0  0  0  0  0  0  0
   11.6284   14.3183   21.7152 C   0  0  0  0  0  0  0  0  0  0  0  0
   13.7924   16.8271   18.4625 N   0  0  0  0  0  0  0  0  0  0  0  0
   12.8821   15.3108   19.8058 N   0  0  0  0  0  0  0  0  0  0  0  0
    9.5505   11.9599   23.6804 N   0  0  0  0  0  0  0  0  0  0  0  0
   10.8070   13.2105   22.1474 N   0  0  0  0  0  0  0  0  0  0  0  0
   10.5764   13.9595   24.3038 O   0  0  0  0  0  0  0  0  0  0  0  0
    5.3869   11.0140   26.7495 H   0  0  0  0  0  0  0  0  0  0  0  0
    6.3035   13.3135   26.7392 H   0  0  0  0  0  0  0  0  0  0  0  0
    6.4245    9.2469   25.3798 H   0  0  0  0  0  0  0  0  0  0  0  0
    8.2445   13.8831   25.3536 H   0  0  0  0  0  0  0  0  0  0  0  0
   15.0867   17.6644   19.9505 H   0  0  0  0  0  0  0  0  0  0  0  0
   13.9480   15.7730   21.6160 H   0  0  0  0  0  0  0  0  0  0  0  0
   12.3034   15.4780   17.7409 H   0  0  0  0  0  0  0  0  0  0  0  0
    8.0453    7.4731   25.5644 H   0  0  0  0  0  0  0  0  0  0  0  0
    9.1601    6.4593   24.6546 H   0  0  0  0  0  0  0  0  0  0  0  0
    7.8131    6.6295   22.7588 H   0  0  0  0  0  0  0  0  0  0  0  0
    6.6233    7.4438   23.7686 H   0  0  0  0  0  0  0  0  0  0  0  0
    9.9063    8.9493   25.4677 H   0  0  0  0  0  0  0  0  0  0  0  0
   10.4400    8.2685   23.9242 H   0  0  0  0  0  0  0  0  0  0  0  0
    8.5702    8.5692   21.8247 H   0  0  0  0  0  0  0  0  0  0  0  0
    7.0476    9.2826   22.3659 H   0  0  0  0  0  0  0  0  0  0  0  0
   10.7500   10.3563   23.0142 H   0  0  0  0  0  0  0  0  0  0  0  0
    9.4098   10.8187   21.9468 H   0  0  0  0  0  0  0  0  0  0  0  0
   12.5944   13.2833   20.0800 H   0  0  0  0  0  0  0  0  0  0  0  0
   11.1517   14.1775   19.5960 H   0  0  0  0  0  0  0  0  0  0  0  0
   12.5200   14.3179   22.3497 H   0  0  0  0  0  0  0  0  0  0  0  0
   11.0682   15.2384   21.9104 H   0  0  0  0  0  0  0  0  0  0  0  0
   10.5743   12.4849   21.4793 H   0  0  0  0  0  0  0  0  0  0  0  0
  1  2  2  0  0  0  0
  1  3  1  0  0  0  0
  2  4  1  0  0  0  0
  3  8  2  0  0  0  0
  4  9  2  0  0  0  0
  5  6  2  0  0  0  0
  5 19  1  0  0  0  0
  6 20  1  0  0  0  0
  7 19  2  0  0  0  0
  7 20  1  0  0  0  0
  8  9  1  0  0  0  0
  8 16  1  0  0  0  0
  9 21  1  0  0  0  0
 10 21  1  0  0  0  0
 10 22  1  0  0  0  0
 10 23  2  0  0  0  0
 11 12  1  0  0  0  0
 11 13  1  0  0  0  0
 12 14  1  0  0  0  0
 13 16  1  0  0  0  0
 14 16  1  0  0  0  0
 15 16  1  0  0  0  0
 15 21  1  0  0  0  0
 17 18  1  0  0  0  0
 17 20  1  0  0  0  0
 18 22  1  0  0  0  0
  1 24  1  0  0  0  0
  2 25  1  0  0  0  0
  3 26  1  0  0  0  0
  4 27  1  0  0  0  0
  5 28  1  0  0  0  0
  6 29  1  0  0  0  0
  7 30  1  0  0  0  0
 11 31  1  0  0  0  0
 11 32  1  0  0  0  0
 12 33  1  0  0  0  0
 12 34  1  0  0  0  0
 13 35  1  0  0  0  0
 13 36  1  0  0  0  0
 14 37  1  0  0  0  0
 14 38  1  0  0  0  0
 15 39  1  0  0  0  0
 15 40  1  0  0  0  0
 17 41  1  0  0  0  0
 17 42  1  0  0  0  0
 18 43  1  0  0  0  0
 18 44  1  0  0  0  0
 22 45  1  0  0  0  0
M  END
> <Catalog ID>
Z1359874870

> <PlateID>
1041831-R-44

> <Well>
E02

> <MW (desalted)>
310.393

> <ClogP>
2.758

> <HBD>
1

> <TPSA>
50.160

> <RotBonds>
3

> <ROCS_ShapeQuery>
A71EV2A-x0451_0A_A71EV2A-x0310_0A_A71EV2A-x0416_0A_peptide

> <ROCS_TanimotoCombo>
0.547 

> <ROCS_ShapeTanimoto>
0.366 

> <ROCS_ColorTanimoto>
0.181 

> <ROCS_RefTversky>
0.321 

> <ROCS_RefColorTversky>
0.199 

> <ROCS_RefTverskyCombo>
0.520 

> <ROCS_FitTversky>
1.631 

> <ROCS_FitColorTversky>
0.661 

> <ROCS_FitTverskyCombo>
2.292 

> <ROCS_ColorScore>
-6.087

> <ROCS_Overlap>
2229.863

> <ROCS_Rank>
104                 

$$$$
untitled-dbase-798_269
  -OEChem-11132311063D

 53 56  0     1  0  0  0  0  0999 V2000
   11.7264   15.0591   20.6643 C   0  0  0  0  0  0  0  0  0  0  0  0
   12.3300   16.2799   20.3836 C   0  0  0  0  0  0  0  0  0  0  0  0
   11.7878   15.6192   22.9750 C   0  0  0  0  0  0  0  0  0  0  0  0
   11.4467   14.7149   21.9821 C   0  0  0  0  0  0  0  0  0  0  0  0
   12.6313   17.1142   21.4480 C   0  0  0  0  0  0  0  0  0  0  0  0
    7.4108   12.4932   25.8373 C   0  0  0  0  0  0  0  0  0  0  0  0
   10.4939   13.0033   23.5590 C   0  0  0  0  0  0  0  0  0  0  0  0
    5.1972   13.5361   26.3448 C   0  0  0  0  0  0  0  0  0  0  0  0
    5.6723   11.1024   26.9424 C   0  0  0  0  0  0  0  0  0  0  0  0
    7.7312    9.6911   23.9006 C   0  0  0  0  0  0  0  0  0  0  0  0
    9.0372    9.6676   24.7381 C   0  0  0  0  0  0  0  0  0  0  0  0
    5.3674   13.9193   27.8142 C   0  0  0  0  0  0  0  0  0  0  0  0
    5.8543   11.5101   28.4033 C   0  0  0  0  0  0  0  0  0  0  0  0
    8.5366   11.7081   22.6604 C   0  0  0  0  0  0  0  0  0  0  0  0
    5.9349   12.2498   25.9636 C   0  0  0  0  0  0  0  0  0  0  0  0
    9.8593   11.6496   23.4710 C   0  0  2  0  0  0  0  0  0  0  0  0
    7.4983   11.1964   23.6759 C   0  0  2  0  0  0  0  0  0  0  0  0
    9.3874   11.1618   24.8570 C   0  0  1  0  0  0  0  0  0  0  0  0
    5.0557   12.7566   28.7384 C   0  0  0  0  0  0  0  0  0  0  0  0
   13.5152   19.1406   22.3244 C   0  0  0  0  0  0  0  0  0  0  0  0
   12.3750   16.8142   22.7410 N   0  0  0  0  0  0  0  0  0  0  0  0
    8.0501   11.7258   24.9012 N   0  0  0  0  0  0  0  0  0  0  0  0
   10.8325   13.4801   22.2990 N   0  0  0  0  0  0  0  0  0  0  0  0
    7.9726   13.3311   26.5433 O   0  0  0  0  0  0  0  0  0  0  0  0
   10.6542   13.5525   24.6442 O   0  0  0  0  0  0  0  0  0  0  0  0
   13.2271   18.3224   21.1969 O   0  0  0  0  0  0  0  0  0  0  0  0
    3.7294   12.4718   28.6698 F   0  0  0  0  0  0  0  0  0  0  0  0
    5.3047   13.1207   30.0211 F   0  0  0  0  0  0  0  0  0  0  0  0
   11.4781   14.3843   19.8494 H   0  0  0  0  0  0  0  0  0  0  0  0
   12.5542   16.5634   19.3610 H   0  0  0  0  0  0  0  0  0  0  0  0
   11.5946   15.4070   24.0223 H   0  0  0  0  0  0  0  0  0  0  0  0
    4.1280   13.3936   26.1434 H   0  0  0  0  0  0  0  0  0  0  0  0
    5.5277   14.3705   25.7149 H   0  0  0  0  0  0  0  0  0  0  0  0
    6.3280   10.2521   26.7211 H   0  0  0  0  0  0  0  0  0  0  0  0
    4.6418   10.7533   26.8006 H   0  0  0  0  0  0  0  0  0  0  0  0
    7.8384    9.1336   22.9649 H   0  0  0  0  0  0  0  0  0  0  0  0
    6.9116    9.2484   24.4779 H   0  0  0  0  0  0  0  0  0  0  0  0
    8.8392    9.2320   25.7241 H   0  0  0  0  0  0  0  0  0  0  0  0
    9.8228    9.0820   24.2506 H   0  0  0  0  0  0  0  0  0  0  0  0
    6.3905   14.2691   27.9962 H   0  0  0  0  0  0  0  0  0  0  0  0
    4.7055   14.7612   28.0476 H   0  0  0  0  0  0  0  0  0  0  0  0
    5.5308   10.6859   29.0495 H   0  0  0  0  0  0  0  0  0  0  0  0
    6.9144   11.6785   28.6254 H   0  0  0  0  0  0  0  0  0  0  0  0
    8.2996   12.7307   22.3442 H   0  0  0  0  0  0  0  0  0  0  0  0
    8.5856   11.0740   21.7689 H   0  0  0  0  0  0  0  0  0  0  0  0
    5.6031   11.9361   24.9661 H   0  0  0  0  0  0  0  0  0  0  0  0
   10.5798   10.9667   23.0082 H   0  0  0  0  0  0  0  0  0  0  0  0
    6.4649   11.4792   23.4668 H   0  0  0  0  0  0  0  0  0  0  0  0
   10.0341   11.4187   25.6975 H   0  0  0  0  0  0  0  0  0  0  0  0
   13.9855   20.0690   21.9912 H   0  0  0  0  0  0  0  0  0  0  0  0
   14.1830   18.6046   23.0036 H   0  0  0  0  0  0  0  0  0  0  0  0
   12.5819   19.3732   22.8426 H   0  0  0  0  0  0  0  0  0  0  0  0
   10.6189   12.8826   21.5032 H   0  0  0  0  0  0  0  0  0  0  0  0
  1  2  1  0  0  0  0
  1  4  2  0  0  0  0
  2  5  2  0  0  0  0
  3  4  1  0  0  0  0
  3 21  2  0  0  0  0
  4 23  1  0  0  0  0
  5 21  1  0  0  0  0
  5 26  1  0  0  0  0
  6 15  1  0  0  0  0
  6 22  1  0  0  0  0
  6 24  2  0  0  0  0
  7 16  1  0  0  0  0
  7 23  1  0  0  0  0
  7 25  2  0  0  0  0
  8 12  1  0  0  0  0
  8 15  1  0  0  0  0
  9 13  1  0  0  0  0
  9 15  1  0  0  0  0
 10 11  1  0  0  0  0
 10 17  1  0  0  0  0
 11 18  1  0  0  0  0
 12 19  1  0  0  0  0
 13 19  1  0  0  0  0
 14 16  1  0  0  0  0
 14 17  1  0  0  0  0
 16 18  1  0  0  0  0
 17 22  1  0  0  0  0
 18 22  1  0  0  0  0
 19 27  1  0  0  0  0
 19 28  1  0  0  0  0
 20 26  1  0  0  0  0
  1 29  1  0  0  0  0
  2 30  1  0  0  0  0
  3 31  1  0  0  0  0
  8 32  1  0  0  0  0
  8 33  1  0  0  0  0
  9 34  1  0  0  0  0
  9 35  1  0  0  0  0
 10 36  1  0  0  0  0
 10 37  1  0  0  0  0
 11 38  1  0  0  0  0
 11 39  1  0  0  0  0
 12 40  1  0  0  0  0
 12 41  1  0  0  0  0
 13 42  1  0  0  0  0
 13 43  1  0  0  0  0
 14 44  1  0  0  0  0
 14 45  1  0  0  0  0
 15 46  1  0  0  0  0
 16 47  1  0  0  0  0
 17 48  1  0  0  0  0
 18 49  1  0  0  0  0
 20 50  1  0  0  0  0
 20 51  1  0  0  0  0
 20 52  1  0  0  0  0
 23 53  1  0  0  0  0
M  END
> <Catalog ID>
Z2178439165

> <PlateID>
1041831-R-10

> <Well>
H09

> <MW (desalted)>
393.428

> <ClogP>
2.336

> <HBD>
1

> <TPSA>
71.530

> <RotBonds>
4

> <ROCS_ShapeQuery>
A71EV2A-x0451_0A_A71EV2A-x0310_0A_A71EV2A-x0416_0A_peptide

> <ROCS_TanimotoCombo>
0.547 

> <ROCS_ShapeTanimoto>
0.338 

> <ROCS_ColorTanimoto>
0.209 

> <ROCS_RefTversky>
0.310 

> <ROCS_RefColorTversky>
0.253 

> <ROCS_RefTverskyCombo>
0.564 

> <ROCS_FitTversky>
1.364 

> <ROCS_FitColorTversky>
0.545 

> <ROCS_FitTverskyCombo>
1.909 

> <ROCS_ColorScore>
-7.801

> <ROCS_Overlap>
2158.899

> <ROCS_Rank>
105                 

$$$$
untitled-dbase-451_3354
  -OEChem-11132311063D

 54 57  0     0  0  0  0  0  0999 V2000
   14.8219   12.4668   23.6599 C   0  0  0  0  0  0  0  0  0  0  0  0
   15.4805   13.6705   23.4090 C   0  0  0  0  0  0  0  0  0  0  0  0
   13.4278   12.4220   23.6631 C   0  0  0  0  0  0  0  0  0  0  0  0
   14.7449   14.8295   23.1613 C   0  0  0  0  0  0  0  0  0  0  0  0
   12.6922   13.5809   23.4154 C   0  0  0  0  0  0  0  0  0  0  0  0
   13.3507   14.7847   23.1645 C   0  0  0  0  0  0  0  0  0  0  0  0
    7.7082   10.4388   24.9946 C   0  0  0  0  0  0  0  0  0  0  0  0
    8.6904   11.4040   23.2972 C   0  0  0  0  0  0  0  0  0  0  0  0
    6.9827   10.4233   26.2184 C   0  0  0  0  0  0  0  0  0  0  0  0
    6.6178   11.5906   26.7848 C   0  0  0  0  0  0  0  0  0  0  0  0
    6.9484   12.8708   26.1743 C   0  0  0  0  0  0  0  0  0  0  0  0
    7.6336   12.8865   25.0186 C   0  0  0  0  0  0  0  0  0  0  0  0
   11.2372   13.5019   23.4255 C   0  0  0  0  0  0  0  0  0  0  0  0
   12.6032   16.0242   22.8995 C   0  0  0  0  0  0  0  0  0  0  0  0
   13.7686   15.7848   17.5966 C   0  0  0  0  0  0  0  0  0  0  0  0
   13.2315   14.5670   18.3430 C   0  0  0  0  0  0  0  0  0  0  0  0
   14.5208   16.7303   18.5289 C   0  0  0  0  0  0  0  0  0  0  0  0
   12.3745   14.9730   19.5409 C   0  0  0  0  0  0  0  0  0  0  0  0
   13.6649   17.1393   19.7265 C   0  0  0  0  0  0  0  0  0  0  0  0
   13.1376   15.9134   20.4802 C   0  0  0  0  0  0  0  0  0  0  0  0
   11.0640   17.0865   21.1857 C   0  0  0  0  0  0  0  0  0  0  0  0
    9.2149   12.4647   22.3730 C   0  0  0  0  0  0  0  0  0  0  0  0
    8.1917    9.4929   24.2178 N   0  0  0  0  0  0  0  0  0  0  0  0
    8.8119   10.1039   23.1459 N   0  0  0  0  0  0  0  0  0  0  0  0
    8.0033   11.6767   24.4452 N   0  0  0  0  0  0  0  0  0  0  0  0
   10.6443   12.6354   22.5017 N   0  0  0  0  0  0  0  0  0  0  0  0
   12.2652   16.3393   21.5729 N   0  0  0  0  0  0  0  0  0  0  0  0
   10.5754   14.1977   24.2138 O   0  0  0  0  0  0  0  0  0  0  0  0
   12.3093   16.7034   23.8826 O   0  0  0  0  0  0  0  0  0  0  0  0
   15.3947   11.5643   23.8526 H   0  0  0  0  0  0  0  0  0  0  0  0
   16.5660   13.7053   23.4066 H   0  0  0  0  0  0  0  0  0  0  0  0
   12.9260   11.4780   23.8600 H   0  0  0  0  0  0  0  0  0  0  0  0
   15.2694   15.7616   22.9671 H   0  0  0  0  0  0  0  0  0  0  0  0
    6.7312    9.4751   26.6799 H   0  0  0  0  0  0  0  0  0  0  0  0
    6.0633   11.6054   27.7169 H   0  0  0  0  0  0  0  0  0  0  0  0
    6.6355   13.7832   26.6670 H   0  0  0  0  0  0  0  0  0  0  0  0
    7.9108   13.8042   24.5150 H   0  0  0  0  0  0  0  0  0  0  0  0
   14.4326   15.4586   16.7883 H   0  0  0  0  0  0  0  0  0  0  0  0
   12.9346   16.3221   17.1284 H   0  0  0  0  0  0  0  0  0  0  0  0
   12.6395   13.9476   17.6598 H   0  0  0  0  0  0  0  0  0  0  0  0
   14.0709   13.9506   18.6877 H   0  0  0  0  0  0  0  0  0  0  0  0
   15.4356   16.2407   18.8850 H   0  0  0  0  0  0  0  0  0  0  0  0
   14.8310   17.6239   17.9756 H   0  0  0  0  0  0  0  0  0  0  0  0
   11.4616   15.4636   19.1792 H   0  0  0  0  0  0  0  0  0  0  0  0
   12.0634   14.0711   20.0816 H   0  0  0  0  0  0  0  0  0  0  0  0
   14.2638   17.7661   20.3984 H   0  0  0  0  0  0  0  0  0  0  0  0
   12.8255   17.7532   19.3749 H   0  0  0  0  0  0  0  0  0  0  0  0
   13.9629   15.3819   20.9447 H   0  0  0  0  0  0  0  0  0  0  0  0
   11.2916   18.1625   21.1653 H   0  0  0  0  0  0  0  0  0  0  0  0
   10.7367   16.7621   20.1869 H   0  0  0  0  0  0  0  0  0  0  0  0
   10.2625   16.8951   21.9144 H   0  0  0  0  0  0  0  0  0  0  0  0
    8.9983   12.2095   21.3300 H   0  0  0  0  0  0  0  0  0  0  0  0
    8.7426   13.4315   22.5762 H   0  0  0  0  0  0  0  0  0  0  0  0
   11.2300   12.1383   21.8387 H   0  0  0  0  0  0  0  0  0  0  0  0
  1  2  2  0  0  0  0
  1  3  1  0  0  0  0
  2  4  1  0  0  0  0
  3  5  2  0  0  0  0
  4  6  2  0  0  0  0
  5  6  1  0  0  0  0
  5 13  1  0  0  0  0
  6 14  1  0  0  0  0
  7  9  1  0  0  0  0
  7 23  2  0  0  0  0
  7 25  1  0  0  0  0
  8 22  1  0  0  0  0
  8 24  2  0  0  0  0
  8 25  1  0  0  0  0
  9 10  2  0  0  0  0
 10 11  1  0  0  0  0
 11 12  2  0  0  0  0
 12 25  1  0  0  0  0
 13 26  1  0  0  0  0
 13 28  2  0  0  0  0
 14 27  1  0  0  0  0
 14 29  2  0  0  0  0
 15 16  1  0  0  0  0
 15 17  1  0  0  0  0
 16 18  1  0  0  0  0
 17 19  1  0  0  0  0
 18 20  1  0  0  0  0
 19 20  1  0  0  0  0
 20 27  1  0  0  0  0
 21 27  1  0  0  0  0
 22 26  1  0  0  0  0
 23 24  1  0  0  0  0
  1 30  1  0  0  0  0
  2 31  1  0  0  0  0
  3 32  1  0  0  0  0
  4 33  1  0  0  0  0
  9 34  1  0  0  0  0
 10 35  1  0  0  0  0
 11 36  1  0  0  0  0
 12 37  1  0  0  0  0
 15 38  1  0  0  0  0
 15 39  1  0  0  0  0
 16 40  1  0  0  0  0
 16 41  1  0  0  0  0
 17 42  1  0  0  0  0
 17 43  1  0  0  0  0
 18 44  1  0  0  0  0
 18 45  1  0  0  0  0
 19 46  1  0  0  0  0
 19 47  1  0  0  0  0
 20 48  1  0  0  0  0
 21 49  1  0  0  0  0
 21 50  1  0  0  0  0
 21 51  1  0  0  0  0
 22 52  1  0  0  0  0
 22 53  1  0  0  0  0
 26 54  1  0  0  0  0
M  END
> <Catalog ID>
Z70902633

> <PlateID>
1041831-R-06

> <Well>
F02

> <MW (desalted)>
391.466

> <ClogP>
1.947

> <HBD>
1

> <TPSA>
79.600

> <RotBonds>
5

> <ROCS_ShapeQuery>
A71EV2A-x0451_0A_A71EV2A-x0310_0A_A71EV2A-x0416_0A_peptide

> <ROCS_TanimotoCombo>
0.547 

> <ROCS_ShapeTanimoto>
0.344 

> <ROCS_ColorTanimoto>
0.203 

> <ROCS_RefTversky>
0.316 

> <ROCS_RefColorTversky>
0.227 

> <ROCS_RefTverskyCombo>
0.542 

> <ROCS_FitTversky>
1.352 

> <ROCS_FitColorTversky>
0.664 

> <ROCS_FitTverskyCombo>
2.016 

> <ROCS_ColorScore>
-6.935

> <ROCS_Overlap>
2197.034

> <ROCS_Rank>
106                 

$$$$
untitled-dbase-152_1491
  -OEChem-11132311063D

 52 55  0     0  0  0  0  0  0999 V2000
   14.2700   15.0229   24.8557 C   0  0  0  0  0  0  0  0  0  0  0  0
   14.1204   13.6379   24.9245 C   0  0  0  0  0  0  0  0  0  0  0  0
   13.6699   15.7387   23.8197 C   0  0  0  0  0  0  0  0  0  0  0  0
   13.3707   12.9685   23.9573 C   0  0  0  0  0  0  0  0  0  0  0  0
    8.9570   10.4145   24.0239 C   0  0  0  0  0  0  0  0  0  0  0  0
    9.0958   11.8155   24.1051 C   0  0  0  0  0  0  0  0  0  0  0  0
   12.9202   15.0693   22.8525 C   0  0  0  0  0  0  0  0  0  0  0  0
   12.7706   13.6842   22.9213 C   0  0  0  0  0  0  0  0  0  0  0  0
    7.9716   12.2589   24.7621 C   0  0  0  0  0  0  0  0  0  0  0  0
    7.7600   10.0780   24.6334 C   0  0  0  0  0  0  0  0  0  0  0  0
    7.9864    7.9053   24.2691 C   0  0  0  0  0  0  0  0  0  0  0  0
    9.7885    9.3753   23.4587 C   0  0  0  0  0  0  0  0  0  0  0  0
   10.1565   12.6509   23.6243 C   0  0  0  0  0  0  0  0  0  0  0  0
   13.1337   16.3111   18.2273 C   0  0  0  0  0  0  0  0  0  0  0  0
   14.4425   16.6787   18.9199 C   0  0  0  0  0  0  0  0  0  0  0  0
   12.1394   16.0750   19.3547 C   0  0  0  0  0  0  0  0  0  0  0  0
   14.1295   16.6395   20.4084 C   0  0  0  0  0  0  0  0  0  0  0  0
    7.4990   13.5920   25.1665 C   0  0  0  0  0  0  0  0  0  0  0  0
    9.9286    6.9365   23.1118 C   0  0  0  0  0  0  0  0  0  0  0  0
   12.2857   15.8564   21.7531 C   0  0  0  0  0  0  0  0  0  0  0  0
   11.9690   12.9417   21.8915 C   0  0  0  0  0  0  0  0  0  0  0  0
    7.2340    8.8352   24.7792 N   0  0  0  0  0  0  0  0  0  0  0  0
    9.2171    8.0961   23.6253 N   0  0  0  0  0  0  0  0  0  0  0  0
   13.0011   15.7100   20.4802 N   0  0  0  0  0  0  0  0  0  0  0  0
   10.8628   12.2232   22.4821 N   0  0  0  0  0  0  0  0  0  0  0  0
   10.8571    9.6184   22.9082 O   0  0  0  0  0  0  0  0  0  0  0  0
   10.4632   13.7176   24.2095 O   0  0  0  0  0  0  0  0  0  0  0  0
    7.1575   11.2192   25.0861 O   0  0  0  0  0  0  0  0  0  0  0  0
   14.8544   15.5436   25.6084 H   0  0  0  0  0  0  0  0  0  0  0  0
   14.5883   13.0812   25.7313 H   0  0  0  0  0  0  0  0  0  0  0  0
   13.7938   16.8175   23.7742 H   0  0  0  0  0  0  0  0  0  0  0  0
   13.2596   11.8891   24.0198 H   0  0  0  0  0  0  0  0  0  0  0  0
    7.6736    6.8499   24.3207 H   0  0  0  0  0  0  0  0  0  0  0  0
   12.7948   17.1044   17.5532 H   0  0  0  0  0  0  0  0  0  0  0  0
   13.2719   15.4007   17.6321 H   0  0  0  0  0  0  0  0  0  0  0  0
   15.2158   15.9446   18.6650 H   0  0  0  0  0  0  0  0  0  0  0  0
   14.8014   17.6659   18.6113 H   0  0  0  0  0  0  0  0  0  0  0  0
   11.5839   16.9986   19.5561 H   0  0  0  0  0  0  0  0  0  0  0  0
   11.4283   15.2833   19.1048 H   0  0  0  0  0  0  0  0  0  0  0  0
   14.9875   16.2940   20.9911 H   0  0  0  0  0  0  0  0  0  0  0  0
   13.8486   17.6416   20.7534 H   0  0  0  0  0  0  0  0  0  0  0  0
    6.8833   14.0572   24.3767 H   0  0  0  0  0  0  0  0  0  0  0  0
    6.8871   13.5582   26.0863 H   0  0  0  0  0  0  0  0  0  0  0  0
    8.3332   14.2832   25.3859 H   0  0  0  0  0  0  0  0  0  0  0  0
    9.6177    6.7447   22.0743 H   0  0  0  0  0  0  0  0  0  0  0  0
   11.0113    7.1286   23.1405 H   0  0  0  0  0  0  0  0  0  0  0  0
    9.6954    6.0589   23.7326 H   0  0  0  0  0  0  0  0  0  0  0  0
   11.2477   15.5374   21.5886 H   0  0  0  0  0  0  0  0  0  0  0  0
   12.2560   16.9274   21.9925 H   0  0  0  0  0  0  0  0  0  0  0  0
   11.5623   13.6338   21.1461 H   0  0  0  0  0  0  0  0  0  0  0  0
   12.5916   12.2168   21.3566 H   0  0  0  0  0  0  0  0  0  0  0  0
   10.6263   11.3243   22.0750 H   0  0  0  0  0  0  0  0  0  0  0  0
  1  2  2  0  0  0  0
  1  3  1  0  0  0  0
  2  4  1  0  0  0  0
  3  7  2  0  0  0  0
  4  8  2  0  0  0  0
  5  6  1  0  0  0  0
  5 10  2  0  0  0  0
  5 12  1  0  0  0  0
  6  9  2  0  0  0  0
  6 13  1  0  0  0  0
  7  8  1  0  0  0  0
  7 20  1  0  0  0  0
  8 21  1  0  0  0  0
  9 18  1  0  0  0  0
  9 28  1  0  0  0  0
 10 22  1  0  0  0  0
 10 28  1  0  0  0  0
 11 22  2  0  0  0  0
 11 23  1  0  0  0  0
 12 23  1  0  0  0  0
 12 26  2  0  0  0  0
 13 25  1  0  0  0  0
 13 27  2  0  0  0  0
 14 15  1  0  0  0  0
 14 16  1  0  0  0  0
 15 17  1  0  0  0  0
 16 24  1  0  0  0  0
 17 24  1  0  0  0  0
 19 23  1  0  0  0  0
 20 24  1  0  0  0  0
 21 25  1  0  0  0  0
  1 29  1  0  0  0  0
  2 30  1  0  0  0  0
  3 31  1  0  0  0  0
  4 32  1  0  0  0  0
 11 33  1  0  0  0  0
 14 34  1  0  0  0  0
 14 35  1  0  0  0  0
 15 36  1  0  0  0  0
 15 37  1  0  0  0  0
 16 38  1  0  0  0  0
 16 39  1  0  0  0  0
 17 40  1  0  0  0  0
 17 41  1  0  0  0  0
 18 42  1  0  0  0  0
 18 43  1  0  0  0  0
 18 44  1  0  0  0  0
 19 45  1  0  0  0  0
 19 46  1  0  0  0  0
 19 47  1  0  0  0  0
 20 48  1  0  0  0  0
 20 49  1  0  0  0  0
 21 50  1  0  0  0  0
 21 51  1  0  0  0  0
 25 52  1  0  0  0  0
M  END
> <Catalog ID>
Z110044780

> <PlateID>
1041831-R-02

> <Well>
H03

> <MW (desalted)>
380.440

> <ClogP>
1.578

> <HBD>
1

> <TPSA>
78.150

> <RotBonds>
5

> <ROCS_ShapeQuery>
A71EV2A-x0451_0A_A71EV2A-x0310_0A_A71EV2A-x0416_0A_peptide

> <ROCS_TanimotoCombo>
0.547 

> <ROCS_ShapeTanimoto>
0.386 

> <ROCS_ColorTanimoto>
0.161 

> <ROCS_RefTversky>
0.342 

> <ROCS_RefColorTversky>
0.189 

> <ROCS_RefTverskyCombo>
0.531 

> <ROCS_FitTversky>
1.497 

> <ROCS_FitColorTversky>
0.521 

> <ROCS_FitTverskyCombo>
2.018 

> <ROCS_ColorScore>
-5.790

> <ROCS_Overlap>
2381.837

> <ROCS_Rank>
107                 

$$$$
untitled-dbase-250_1781
  -OEChem-11132311063D

 47 51  0     1  0  0  0  0  0999 V2000
   12.3350   14.9986   19.2168 C   0  0  0  0  0  0  0  0  0  0  0  0
   12.3626   15.5642   20.4813 C   0  0  0  0  0  0  0  0  0  0  0  0
   14.0314   16.3614   19.4842 C   0  0  0  0  0  0  0  0  0  0  0  0
   14.0217   15.4389   17.3604 C   0  0  0  0  0  0  0  0  0  0  0  0
   15.1175   16.2134   17.2880 C   0  0  0  0  0  0  0  0  0  0  0  0
   11.0167   13.5442   23.2916 C   0  0  0  0  0  0  0  0  0  0  0  0
    7.0176   11.8205   25.0900 C   0  0  0  0  0  0  0  0  0  0  0  0
    8.5313   12.2345   23.1329 C   0  0  0  0  0  0  0  0  0  0  0  0
    9.5021   11.6149   25.3675 C   0  0  0  0  0  0  0  0  0  0  0  0
    7.0896   10.1846   23.1925 C   0  0  0  0  0  0  0  0  0  0  0  0
    8.0599    9.5655   25.4210 C   0  0  0  0  0  0  0  0  0  0  0  0
    9.5778    9.9751   23.4661 C   0  0  0  0  0  0  0  0  0  0  0  0
    7.1652   11.6730   23.5661 C   0  0  1  0  0  0  0  0  0  0  0  0
    8.1395   11.0504   25.8070 C   0  0  2  0  0  0  0  0  0  0  0  0
    9.6796   11.4722   23.8369 C   0  0  0  0  0  0  0  0  0  0  0  0
    8.2139    9.4083   23.8993 C   0  0  0  0  0  0  0  0  0  0  0  0
   11.3974   15.3411   21.6094 C   0  0  0  0  0  0  0  0  0  0  0  0
   11.0356   12.0359   23.4043 C   0  0  0  0  0  0  0  0  0  0  0  0
   13.4349   16.4223   20.6423 N   0  0  0  0  0  0  0  0  0  0  0  0
   13.4227   15.5300   18.5942 N   0  0  0  0  0  0  0  0  0  0  0  0
   11.3409   13.9527   22.0061 N   0  0  0  0  0  0  0  0  0  0  0  0
   10.7448   14.2925   24.2266 O   0  0  0  0  0  0  0  0  0  0  0  0
    8.1233    8.0366   23.5418 O   0  0  0  0  0  0  0  0  0  0  0  0
   15.4420   17.0990   18.7891 S   0  0  0  0  0  0  0  0  0  0  0  0
   11.6638   14.2986   18.7387 H   0  0  0  0  0  0  0  0  0  0  0  0
   13.6170   14.8063   16.5851 H   0  0  0  0  0  0  0  0  0  0  0  0
   15.7580   16.3089   16.4226 H   0  0  0  0  0  0  0  0  0  0  0  0
    7.0538   12.8807   25.3690 H   0  0  0  0  0  0  0  0  0  0  0  0
    6.0395   11.4400   25.4095 H   0  0  0  0  0  0  0  0  0  0  0  0
    8.6340   12.1524   22.0432 H   0  0  0  0  0  0  0  0  0  0  0  0
    8.5826   13.3041   23.3745 H   0  0  0  0  0  0  0  0  0  0  0  0
    9.5753   12.6701   25.6609 H   0  0  0  0  0  0  0  0  0  0  0  0
   10.3068   11.0851   25.8935 H   0  0  0  0  0  0  0  0  0  0  0  0
    6.1119    9.7689   23.4689 H   0  0  0  0  0  0  0  0  0  0  0  0
    7.1688   10.0577   22.1050 H   0  0  0  0  0  0  0  0  0  0  0  0
    8.8383    8.9929   25.9420 H   0  0  0  0  0  0  0  0  0  0  0  0
    7.1056    9.1342   25.7501 H   0  0  0  0  0  0  0  0  0  0  0  0
    9.7127    9.8321   22.3856 H   0  0  0  0  0  0  0  0  0  0  0  0
   10.3872    9.4031   23.9400 H   0  0  0  0  0  0  0  0  0  0  0  0
    6.3628   12.2227   23.0620 H   0  0  0  0  0  0  0  0  0  0  0  0
    8.0272   11.1578   26.8916 H   0  0  0  0  0  0  0  0  0  0  0  0
   11.6854   15.9310   22.4864 H   0  0  0  0  0  0  0  0  0  0  0  0
   10.3853   15.6502   21.3276 H   0  0  0  0  0  0  0  0  0  0  0  0
   11.3036   11.6098   22.4355 H   0  0  0  0  0  0  0  0  0  0  0  0
   11.7908   11.7422   24.1357 H   0  0  0  0  0  0  0  0  0  0  0  0
   11.5484   13.2420   21.3106 H   0  0  0  0  0  0  0  0  0  0  0  0
    8.8442    7.5778   24.0032 H   0  0  0  0  0  0  0  0  0  0  0  0
  1  2  2  0  0  0  0
  1 20  1  0  0  0  0
  2 17  1  0  0  0  0
  2 19  1  0  0  0  0
  3 19  2  0  0  0  0
  3 20  1  0  0  0  0
  3 24  1  0  0  0  0
  4  5  2  0  0  0  0
  4 20  1  0  0  0  0
  5 24  1  0  0  0  0
  6 18  1  0  0  0  0
  6 21  1  0  0  0  0
  6 22  2  0  0  0  0
  7 13  1  0  0  0  0
  7 14  1  0  0  0  0
  8 13  1  0  0  0  0
  8 15  1  0  0  0  0
  9 14  1  0  0  0  0
  9 15  1  0  0  0  0
 10 13  1  0  0  0  0
 10 16  1  0  0  0  0
 11 14  1  0  0  0  0
 11 16  1  0  0  0  0
 12 15  1  0  0  0  0
 12 16  1  0  0  0  0
 15 18  1  0  0  0  0
 16 23  1  0  0  0  0
 17 21  1  0  0  0  0
  1 25  1  0  0  0  0
  4 26  1  0  0  0  0
  5 27  1  0  0  0  0
  7 28  1  0  0  0  0
  7 29  1  0  0  0  0
  8 30  1  0  0  0  0
  8 31  1  0  0  0  0
  9 32  1  0  0  0  0
  9 33  1  0  0  0  0
 10 34  1  0  0  0  0
 10 35  1  0  0  0  0
 11 36  1  0  0  0  0
 11 37  1  0  0  0  0
 12 38  1  0  0  0  0
 12 39  1  0  0  0  0
 13 40  1  0  0  0  0
 14 41  1  0  0  0  0
 17 42  1  0  0  0  0
 17 43  1  0  0  0  0
 18 44  1  0  0  0  0
 18 45  1  0  0  0  0
 21 46  1  0  0  0  0
 23 47  1  0  0  0  0
M  END
> <Catalog ID>
Z333170038

> <PlateID>
1041831-R-04

> <Well>
A11

> <MW (desalted)>
345.459

> <ClogP>
1.166

> <HBD>
2

> <TPSA>
66.630

> <RotBonds>
4

> <ROCS_ShapeQuery>
A71EV2A-x0451_0A_A71EV2A-x0310_0A_A71EV2A-x0416_0A_peptide

> <ROCS_TanimotoCombo>
0.547 

> <ROCS_ShapeTanimoto>
0.338 

> <ROCS_ColorTanimoto>
0.209 

> <ROCS_RefTversky>
0.304 

> <ROCS_RefColorTversky>
0.260 

> <ROCS_RefTverskyCombo>
0.563 

> <ROCS_FitTversky>
1.497 

> <ROCS_FitColorTversky>
0.521 

> <ROCS_FitTverskyCombo>
2.018 

> <ROCS_ColorScore>
-8.007

> <ROCS_Overlap>
2109.719

> <ROCS_Rank>
108                 

$$$$
untitled-dbase-1705_1028
  -OEChem-11132311063D

 45 48  0     0  0  0  0  0  0999 V2000
   13.7712   15.1646   20.2781 C   0  0  0  0  0  0  0  0  0  0  0  0
   13.7576   15.1854   21.6727 C   0  0  0  0  0  0  0  0  0  0  0  0
    4.3124   13.2207   27.4257 C   0  0  0  0  0  0  0  0  0  0  0  0
   12.7653   14.4957   19.5807 C   0  0  0  0  0  0  0  0  0  0  0  0
   12.7381   14.5373   22.3699 C   0  0  0  0  0  0  0  0  0  0  0  0
    4.9595   12.1928   26.6992 C   0  0  0  0  0  0  0  0  0  0  0  0
    5.0778   14.3504   27.2533 C   0  0  0  0  0  0  0  0  0  0  0  0
    9.8724   10.5297   22.9527 C   0  0  0  0  0  0  0  0  0  0  0  0
   11.7458   13.8475   20.2779 C   0  0  0  0  0  0  0  0  0  0  0  0
   11.7321   13.8684   21.6726 C   0  0  0  0  0  0  0  0  0  0  0  0
    6.0742   12.7677   26.1344 C   0  0  0  0  0  0  0  0  0  0  0  0
    8.3074    9.2567   23.6338 C   0  0  0  0  0  0  0  0  0  0  0  0
    8.0337   10.4918   24.1792 C   0  0  0  0  0  0  0  0  0  0  0  0
    8.1821   13.1784   24.8690 C   0  0  0  0  0  0  0  0  0  0  0  0
    7.1011   12.2264   25.3016 C   0  0  0  0  0  0  0  0  0  0  0  0
    9.1315   12.6531   24.0789 C   0  0  0  0  0  0  0  0  0  0  0  0
    7.5342    8.0636   23.8049 C   0  0  0  0  0  0  0  0  0  0  0  0
   10.1929   13.5652   23.6412 C   0  0  0  0  0  0  0  0  0  0  0  0
    9.6607   14.1035   18.9092 C   0  0  0  0  0  0  0  0  0  0  0  0
   10.6813   13.1389   19.5047 C   0  0  0  0  0  0  0  0  0  0  0  0
    9.4475    9.2880   22.8753 N   0  0  0  0  0  0  0  0  0  0  0  0
    7.0433   10.9632   24.9824 N   0  0  0  0  0  0  0  0  0  0  0  0
    9.0551   11.3108   23.7312 N   0  0  0  0  0  0  0  0  0  0  0  0
    7.9654    6.8892   23.1713 N   0  0  0  0  0  0  0  0  0  0  0  0
   10.7059   13.2163   22.3988 N   0  0  0  0  0  0  0  0  0  0  0  0
    6.4802    8.0396   24.4864 O   0  0  0  0  0  0  0  0  0  0  0  0
   10.5245   14.5075   24.3598 O   0  0  0  0  0  0  0  0  0  0  0  0
    6.1536   14.0828   26.4673 O   0  0  0  0  0  0  0  0  0  0  0  0
   14.5651   15.6685   19.7350 H   0  0  0  0  0  0  0  0  0  0  0  0
   14.5414   15.7057   22.2157 H   0  0  0  0  0  0  0  0  0  0  0  0
    3.4023   13.1471   28.0033 H   0  0  0  0  0  0  0  0  0  0  0  0
   12.7852   14.4850   18.4942 H   0  0  0  0  0  0  0  0  0  0  0  0
   12.7385   14.5612   23.4567 H   0  0  0  0  0  0  0  0  0  0  0  0
    4.6487   11.1622   26.6021 H   0  0  0  0  0  0  0  0  0  0  0  0
    4.9979   15.3685   27.6053 H   0  0  0  0  0  0  0  0  0  0  0  0
   10.7600   10.9131   22.4682 H   0  0  0  0  0  0  0  0  0  0  0  0
    8.1533   14.2109   25.1946 H   0  0  0  0  0  0  0  0  0  0  0  0
    9.1934   14.7136   19.6897 H   0  0  0  0  0  0  0  0  0  0  0  0
    8.8695   13.5548   18.3886 H   0  0  0  0  0  0  0  0  0  0  0  0
   10.1328   14.7816   18.1902 H   0  0  0  0  0  0  0  0  0  0  0  0
   11.1308   12.5427   18.6958 H   0  0  0  0  0  0  0  0  0  0  0  0
   10.1610   12.4137   20.1492 H   0  0  0  0  0  0  0  0  0  0  0  0
    8.8104    6.9170   22.6110 H   0  0  0  0  0  0  0  0  0  0  0  0
    7.4610    6.0124   23.2542 H   0  0  0  0  0  0  0  0  0  0  0  0
   10.3090   12.3980   21.9413 H   0  0  0  0  0  0  0  0  0  0  0  0
  1  2  2  0  0  0  0
  1  4  1  0  0  0  0
  2  5  1  0  0  0  0
  3  6  1  0  0  0  0
  3  7  2  0  0  0  0
  4  9  2  0  0  0  0
  5 10  2  0  0  0  0
  6 11  2  0  0  0  0
  7 28  1  0  0  0  0
  8 21  2  0  0  0  0
  8 23  1  0  0  0  0
  9 10  1  0  0  0  0
  9 20  1  0  0  0  0
 10 25  1  0  0  0  0
 11 15  1  0  0  0  0
 11 28  1  0  0  0  0
 12 13  2  0  0  0  0
 12 17  1  0  0  0  0
 12 21  1  0  0  0  0
 13 22  1  0  0  0  0
 13 23  1  0  0  0  0
 14 15  1  0  0  0  0
 14 16  2  0  0  0  0
 15 22  2  0  0  0  0
 16 18  1  0  0  0  0
 16 23  1  0  0  0  0
 17 24  1  0  0  0  0
 17 26  2  0  0  0  0
 18 25  1  0  0  0  0
 18 27  2  0  0  0  0
 19 20  1  0  0  0  0
  1 29  1  0  0  0  0
  2 30  1  0  0  0  0
  3 31  1  0  0  0  0
  4 32  1  0  0  0  0
  5 33  1  0  0  0  0
  6 34  1  0  0  0  0
  7 35  1  0  0  0  0
  8 36  1  0  0  0  0
 14 37  1  0  0  0  0
 19 38  1  0  0  0  0
 19 39  1  0  0  0  0
 19 40  1  0  0  0  0
 20 41  1  0  0  0  0
 20 42  1  0  0  0  0
 24 43  1  0  0  0  0
 24 44  1  0  0  0  0
 25 45  1  0  0  0  0
M  END
> <Catalog ID>
Z806037712

> <PlateID>
1041831-R-22

> <Well>
C06

> <MW (desalted)>
375.381

> <ClogP>
3.176

> <HBD>
2

> <TPSA>
115.520

> <RotBonds>
5

> <ROCS_ShapeQuery>
A71EV2A-x0451_0A_A71EV2A-x0310_0A_A71EV2A-x0416_0A_peptide

> <ROCS_TanimotoCombo>
0.547 

> <ROCS_ShapeTanimoto>
0.387 

> <ROCS_ColorTanimoto>
0.160 

> <ROCS_RefTversky>
0.344 

> <ROCS_RefColorTversky>
0.200 

> <ROCS_RefTverskyCombo>
0.544 

> <ROCS_FitTversky>
1.482 

> <ROCS_FitColorTversky>
0.441 

> <ROCS_FitTverskyCombo>
1.923 

> <ROCS_ColorScore>
-6.157

> <ROCS_Overlap>
2393.516

> <ROCS_Rank>
109                 

$$$$
untitled-dbase-1839_106
  -OEChem-11132311063D

 45 49  0     1  0  0  0  0  0999 V2000
   10.5258   15.7272   23.1992 C   0  0  0  0  0  0  0  0  0  0  0  0
   11.3793   16.1132   22.1657 C   0  0  0  0  0  0  0  0  0  0  0  0
   10.1416   14.3922   23.3246 C   0  0  0  0  0  0  0  0  0  0  0  0
   11.4642   13.8291   21.3828 C   0  0  0  0  0  0  0  0  0  0  0  0
   14.1298   16.8849   19.2534 C   0  0  0  0  0  0  0  0  0  0  0  0
   11.8485   15.1642   21.2575 C   0  0  0  0  0  0  0  0  0  0  0  0
   10.6108   13.4432   22.4164 C   0  0  0  0  0  0  0  0  0  0  0  0
   13.8963   15.7942   18.4531 C   0  0  0  0  0  0  0  0  0  0  0  0
   12.7314   15.5638   20.1889 C   0  0  0  0  0  0  0  0  0  0  0  0
    9.0337    8.1704   22.8503 C   0  0  0  0  0  0  0  0  0  0  0  0
   10.0822    9.2650   23.1748 C   0  0  0  0  0  0  0  0  0  0  0  0
    8.0295    9.3082   22.5365 C   0  0  0  0  0  0  0  0  0  0  0  0
    7.6760   12.6673   25.1690 C   0  0  0  0  0  0  0  0  0  0  0  0
    6.5104   11.7040   24.9750 C   0  0  0  0  0  0  0  0  0  0  0  0
    8.8981   11.9382   24.6213 C   0  0  2  0  0  0  0  0  0  0  0  0
    8.9858   11.6724   23.0876 C   0  0  2  0  0  0  0  0  0  0  0  0
    8.4895   10.4552   24.8332 C   0  0  2  0  0  0  0  0  0  0  0  0
    8.9044   10.1988   23.3942 C   0  0  0  0  0  0  0  0  0  0  0  0
   14.4656   15.4802   17.1357 C   0  0  0  0  0  0  0  0  0  0  0  0
   12.9996   14.9511   19.0580 N   0  0  0  0  0  0  0  0  0  0  0  0
   10.2253   12.1049   22.5425 N   0  0  0  0  0  0  0  0  0  0  0  0
   13.3792   16.7453   20.3815 O   0  0  0  0  0  0  0  0  0  0  0  0
    7.0801   10.4041   25.1654 O   0  0  0  0  0  0  0  0  0  0  0  0
   10.1604   16.4661   23.9064 H   0  0  0  0  0  0  0  0  0  0  0  0
   11.6696   17.1580   22.0814 H   0  0  0  0  0  0  0  0  0  0  0  0
    9.4761   14.1027   24.1339 H   0  0  0  0  0  0  0  0  0  0  0  0
   11.8272   13.0848   20.6764 H   0  0  0  0  0  0  0  0  0  0  0  0
   14.7405   17.7727   19.1869 H   0  0  0  0  0  0  0  0  0  0  0  0
    9.2787    7.5103   22.0145 H   0  0  0  0  0  0  0  0  0  0  0  0
    8.7514    7.5611   23.7167 H   0  0  0  0  0  0  0  0  0  0  0  0
   10.7230    9.0589   24.0363 H   0  0  0  0  0  0  0  0  0  0  0  0
   10.7184    9.4993   22.3141 H   0  0  0  0  0  0  0  0  0  0  0  0
    8.0102    9.5872   21.4762 H   0  0  0  0  0  0  0  0  0  0  0  0
    7.0035    9.1308   22.8681 H   0  0  0  0  0  0  0  0  0  0  0  0
    7.5022   13.6319   24.6840 H   0  0  0  0  0  0  0  0  0  0  0  0
    7.8189   12.8490   26.2411 H   0  0  0  0  0  0  0  0  0  0  0  0
    5.7077   11.8726   25.6976 H   0  0  0  0  0  0  0  0  0  0  0  0
    6.1016   11.7579   23.9610 H   0  0  0  0  0  0  0  0  0  0  0  0
    9.8408   12.2222   25.1031 H   0  0  0  0  0  0  0  0  0  0  0  0
    8.1442   12.0690   22.5102 H   0  0  0  0  0  0  0  0  0  0  0  0
    9.0764    9.9315   25.5947 H   0  0  0  0  0  0  0  0  0  0  0  0
   15.3979   14.8945   17.2274 H   0  0  0  0  0  0  0  0  0  0  0  0
   13.7700   14.8953   16.5053 H   0  0  0  0  0  0  0  0  0  0  0  0
   14.7040   16.3896   16.5528 H   0  0  0  0  0  0  0  0  0  0  0  0
   10.8983   11.4054   22.2143 H   0  0  0  0  0  0  0  0  0  0  0  0
  1  2  1  0  0  0  0
  1  3  2  0  0  0  0
  2  6  2  0  0  0  0
  3  7  1  0  0  0  0
  4  6  1  0  0  0  0
  4  7  2  0  0  0  0
  5  8  2  0  0  0  0
  5 22  1  0  0  0  0
  6  9  1  0  0  0  0
  7 21  1  0  0  0  0
  8 19  1  0  0  0  0
  8 20  1  0  0  0  0
  9 20  2  0  0  0  0
  9 22  1  0  0  0  0
 10 11  1  0  0  0  0
 10 12  1  0  0  0  0
 11 18  1  0  0  0  0
 12 18  1  0  0  0  0
 13 14  1  0  0  0  0
 13 15  1  0  0  0  0
 14 23  1  0  0  0  0
 15 16  1  0  0  0  0
 15 17  1  0  0  0  0
 16 18  1  0  0  0  0
 16 21  1  0  0  0  0
 17 18  1  0  0  0  0
 17 23  1  0  0  0  0
  1 24  1  0  0  0  0
  2 25  1  0  0  0  0
  3 26  1  0  0  0  0
  4 27  1  0  0  0  0
  5 28  1  0  0  0  0
 10 29  1  0  0  0  0
 10 30  1  0  0  0  0
 11 31  1  0  0  0  0
 11 32  1  0  0  0  0
 12 33  1  0  0  0  0
 12 34  1  0  0  0  0
 13 35  1  0  0  0  0
 13 36  1  0  0  0  0
 14 37  1  0  0  0  0
 14 38  1  0  0  0  0
 15 39  1  0  0  0  0
 16 40  1  0  0  0  0
 17 41  1  0  0  0  0
 19 42  1  0  0  0  0
 19 43  1  0  0  0  0
 19 44  1  0  0  0  0
 21 45  1  0  0  0  0
M  END
> <Catalog ID>
Z1612877486

> <PlateID>
1041831-R-23

> <Well>
H10

> <MW (desalted)>
310.390

> <ClogP>
2.975

> <HBD>
1

> <TPSA>
47.290

> <RotBonds>
3

> <ROCS_ShapeQuery>
A71EV2A-x0451_0A_A71EV2A-x0310_0A_A71EV2A-x0416_0A_peptide

> <ROCS_TanimotoCombo>
0.547 

> <ROCS_ShapeTanimoto>
0.353 

> <ROCS_ColorTanimoto>
0.194 

> <ROCS_RefTversky>
0.313 

> <ROCS_RefColorTversky>
0.229 

> <ROCS_RefTverskyCombo>
0.541 

> <ROCS_FitTversky>
1.571 

> <ROCS_FitColorTversky>
0.562 

> <ROCS_FitTverskyCombo>
2.133 

> <ROCS_ColorScore>
-7.015

> <ROCS_Overlap>
2172.560

> <ROCS_Rank>
110                 

$$$$
untitled-dbase-1953_865
  -OEChem-11132311063D

 57 60  0     0  0  0  0  0  0999 V2000
   14.1476   16.9729   18.8674 C   0  0  0  0  0  0  0  0  0  0  0  0
   13.1407   16.2934   18.1818 C   0  0  0  0  0  0  0  0  0  0  0  0
   14.3050   16.7858   20.2407 C   0  0  0  0  0  0  0  0  0  0  0  0
   12.2911   15.4268   18.8695 C   0  0  0  0  0  0  0  0  0  0  0  0
   13.4555   15.9192   20.9284 C   0  0  0  0  0  0  0  0  0  0  0  0
    9.8204   10.9312   23.2490 C   0  0  0  0  0  0  0  0  0  0  0  0
    9.2679   12.1154   23.7345 C   0  0  0  0  0  0  0  0  0  0  0  0
   12.4485   15.2397   20.2428 C   0  0  0  0  0  0  0  0  0  0  0  0
    8.1255   12.0093   24.5383 C   0  0  0  0  0  0  0  0  0  0  0  0
    9.2188    9.7231   23.5825 C   0  0  0  0  0  0  0  0  0  0  0  0
    7.6246   10.7408   24.7947 C   0  0  0  0  0  0  0  0  0  0  0  0
    6.4068   12.3048   25.7862 C   0  0  0  0  0  0  0  0  0  0  0  0
    9.8520   13.4042   23.4171 C   0  0  0  0  0  0  0  0  0  0  0  0
    5.3280   12.9111   26.6142 C   0  0  0  0  0  0  0  0  0  0  0  0
    5.3751   12.4469   28.0688 C   0  0  0  0  0  0  0  0  0  0  0  0
    4.8203   11.0376   28.2899 C   0  0  0  0  0  0  0  0  0  0  0  0
    5.6438    9.9113   27.6616 C   0  0  0  0  0  0  0  0  0  0  0  0
    5.6542    9.9323   26.1355 C   0  0  0  0  0  0  0  0  0  0  0  0
    9.8221    8.4611   23.0540 C   0  0  0  0  0  0  0  0  0  0  0  0
   11.5297   14.3025   20.9874 C   0  0  0  0  0  0  0  0  0  0  0  0
   10.2816   14.9964   21.5275 C   0  0  0  0  0  0  0  0  0  0  0  0
    8.0602   13.9383   21.7387 C   0  0  0  0  0  0  0  0  0  0  0  0
    7.1479   14.9734   22.3712 C   0  0  0  0  0  0  0  0  0  0  0  0
    7.3615   12.9657   25.1572 N   0  0  0  0  0  0  0  0  0  0  0  0
    8.1164    9.5685   24.3540 N   0  0  0  0  0  0  0  0  0  0  0  0
    6.5297   10.9487   25.5890 N   0  0  0  0  0  0  0  0  0  0  0  0
    9.4142   14.0902   22.2669 N   0  0  0  0  0  0  0  0  0  0  0  0
   10.7101   13.8440   24.1968 O   0  0  0  0  0  0  0  0  0  0  0  0
    7.6505   16.2753   22.0987 O   0  0  0  0  0  0  0  0  0  0  0  0
   14.8098   17.6467   18.3315 H   0  0  0  0  0  0  0  0  0  0  0  0
   13.0186   16.4382   17.1123 H   0  0  0  0  0  0  0  0  0  0  0  0
   15.0895   17.3138   20.7746 H   0  0  0  0  0  0  0  0  0  0  0  0
   11.5092   14.9017   18.3271 H   0  0  0  0  0  0  0  0  0  0  0  0
   13.5855   15.7797   21.9983 H   0  0  0  0  0  0  0  0  0  0  0  0
   10.7064   10.9534   22.6205 H   0  0  0  0  0  0  0  0  0  0  0  0
    5.4525   14.0009   26.5935 H   0  0  0  0  0  0  0  0  0  0  0  0
    4.3481   12.7007   26.1698 H   0  0  0  0  0  0  0  0  0  0  0  0
    6.3972   12.5105   28.4626 H   0  0  0  0  0  0  0  0  0  0  0  0
    4.7657   13.1381   28.6646 H   0  0  0  0  0  0  0  0  0  0  0  0
    4.7729   10.8588   29.3714 H   0  0  0  0  0  0  0  0  0  0  0  0
    3.7872   10.9868   27.9244 H   0  0  0  0  0  0  0  0  0  0  0  0
    6.6681    9.9356   28.0537 H   0  0  0  0  0  0  0  0  0  0  0  0
    5.2041    8.9597   27.9851 H   0  0  0  0  0  0  0  0  0  0  0  0
    5.9981    8.9604   25.7649 H   0  0  0  0  0  0  0  0  0  0  0  0
    4.6530   10.1029   25.7240 H   0  0  0  0  0  0  0  0  0  0  0  0
   10.5698    8.0765   23.7563 H   0  0  0  0  0  0  0  0  0  0  0  0
    9.0563    7.6918   22.9003 H   0  0  0  0  0  0  0  0  0  0  0  0
   10.3054    8.6308   22.0845 H   0  0  0  0  0  0  0  0  0  0  0  0
   12.0873   13.8584   21.8217 H   0  0  0  0  0  0  0  0  0  0  0  0
   11.2449   13.4665   20.3358 H   0  0  0  0  0  0  0  0  0  0  0  0
   10.5685   15.7940   22.2200 H   0  0  0  0  0  0  0  0  0  0  0  0
    9.6863   15.4406   20.7230 H   0  0  0  0  0  0  0  0  0  0  0  0
    7.7187   12.9216   21.9576 H   0  0  0  0  0  0  0  0  0  0  0  0
    8.0995   14.0773   20.6541 H   0  0  0  0  0  0  0  0  0  0  0  0
    7.1263   14.8401   23.4573 H   0  0  0  0  0  0  0  0  0  0  0  0
    6.1270   14.9015   21.9823 H   0  0  0  0  0  0  0  0  0  0  0  0
    8.5405   16.3176   22.4839 H   0  0  0  0  0  0  0  0  0  0  0  0
  1  2  2  0  0  0  0
  1  3  1  0  0  0  0
  2  4  1  0  0  0  0
  3  5  2  0  0  0  0
  4  8  2  0  0  0  0
  5  8  1  0  0  0  0
  6  7  1  0  0  0  0
  6 10  2  0  0  0  0
  7  9  2  0  0  0  0
  7 13  1  0  0  0  0
  8 20  1  0  0  0  0
  9 11  1  0  0  0  0
  9 24  1  0  0  0  0
 10 19  1  0  0  0  0
 10 25  1  0  0  0  0
 11 25  2  0  0  0  0
 11 26  1  0  0  0  0
 12 14  1  0  0  0  0
 12 24  2  0  0  0  0
 12 26  1  0  0  0  0
 13 27  1  0  0  0  0
 13 28  2  0  0  0  0
 14 15  1  0  0  0  0
 15 16  1  0  0  0  0
 16 17  1  0  0  0  0
 17 18  1  0  0  0  0
 18 26  1  0  0  0  0
 20 21  1  0  0  0  0
 21 27  1  0  0  0  0
 22 23  1  0  0  0  0
 22 27  1  0  0  0  0
 23 29  1  0  0  0  0
  1 30  1  0  0  0  0
  2 31  1  0  0  0  0
  3 32  1  0  0  0  0
  4 33  1  0  0  0  0
  5 34  1  0  0  0  0
  6 35  1  0  0  0  0
 14 36  1  0  0  0  0
 14 37  1  0  0  0  0
 15 38  1  0  0  0  0
 15 39  1  0  0  0  0
 16 40  1  0  0  0  0
 16 41  1  0  0  0  0
 17 42  1  0  0  0  0
 17 43  1  0  0  0  0
 18 44  1  0  0  0  0
 18 45  1  0  0  0  0
 19 46  1  0  0  0  0
 19 47  1  0  0  0  0
 19 48  1  0  0  0  0
 20 49  1  0  0  0  0
 20 50  1  0  0  0  0
 21 51  1  0  0  0  0
 21 52  1  0  0  0  0
 22 53  1  0  0  0  0
 22 54  1  0  0  0  0
 23 55  1  0  0  0  0
 23 56  1  0  0  0  0
 29 57  1  0  0  0  0
M  END
> <Catalog ID>
Z1189348441

> <PlateID>
1041831-R-25

> <Well>
D04

> <MW (desalted)>
392.494

> <ClogP>
2.998

> <HBD>
1

> <TPSA>
71.250

> <RotBonds>
6

> <ROCS_ShapeQuery>
A71EV2A-x0451_0A_A71EV2A-x0310_0A_A71EV2A-x0416_0A_peptide

> <ROCS_TanimotoCombo>
0.547 

> <ROCS_ShapeTanimoto>
0.374 

> <ROCS_ColorTanimoto>
0.173 

> <ROCS_RefTversky>
0.335 

> <ROCS_RefColorTversky>
0.201 

> <ROCS_RefTverskyCombo>
0.536 

> <ROCS_FitTversky>
1.446 

> <ROCS_FitColorTversky>
0.553 

> <ROCS_FitTverskyCombo>
1.999 

> <ROCS_ColorScore>
-6.144

> <ROCS_Overlap>
2334.196

> <ROCS_Rank>
111                 

$$$$
untitled-dbase-233_5004
  -OEChem-11132311063D

 50 53  0     0  0  0  0  0  0999 V2000
    6.5189   13.6087   25.1643 C   0  0  0  0  0  0  0  0  0  0  0  0
    5.7032   12.4986   25.3833 C   0  0  0  0  0  0  0  0  0  0  0  0
   13.5078   15.8138   20.4906 C   0  0  0  0  0  0  0  0  0  0  0  0
    7.8101   13.4452   24.6582 C   0  0  0  0  0  0  0  0  0  0  0  0
    6.1744   11.2177   25.0969 C   0  0  0  0  0  0  0  0  0  0  0  0
   13.6914   15.4637   21.8236 C   0  0  0  0  0  0  0  0  0  0  0  0
   12.4591   15.2238   19.8036 C   0  0  0  0  0  0  0  0  0  0  0  0
    8.2814   12.1633   24.3718 C   0  0  0  0  0  0  0  0  0  0  0  0
    7.4668   11.0554   24.5902 C   0  0  0  0  0  0  0  0  0  0  0  0
   12.8328   14.5472   22.4205 C   0  0  0  0  0  0  0  0  0  0  0  0
   11.8142   14.0141   21.6472 C   0  0  0  0  0  0  0  0  0  0  0  0
    9.6245   11.9085   23.8385 C   0  0  0  0  0  0  0  0  0  0  0  0
    7.9903    9.7151   24.2785 C   0  0  0  0  0  0  0  0  0  0  0  0
   10.5620   13.0215   23.5810 C   0  0  0  0  0  0  0  0  0  0  0  0
   15.4507   12.2919   27.9828 C   0  0  0  0  0  0  0  0  0  0  0  0
   16.1033   11.8060   26.6924 C   0  0  0  0  0  0  0  0  0  0  0  0
   13.9857   12.6585   27.7671 C   0  0  0  0  0  0  0  0  0  0  0  0
   15.9405   12.8199   25.5623 C   0  0  0  0  0  0  0  0  0  0  0  0
   13.8192   13.6738   26.6386 C   0  0  0  0  0  0  0  0  0  0  0  0
   14.4670   13.1846   25.3362 C   0  0  0  0  0  0  0  0  0  0  0  0
   14.3344   14.2388   24.2387 C   0  0  0  0  0  0  0  0  0  0  0  0
   11.6045   14.3298   20.3495 N   0  0  0  0  0  0  0  0  0  0  0  0
   10.0821   10.7285   23.5654 N   0  0  0  0  0  0  0  0  0  0  0  0
    9.2763    9.6623   23.7835 N   0  0  0  0  0  0  0  0  0  0  0  0
   10.9442   13.0905   22.2431 N   0  0  0  0  0  0  0  0  0  0  0  0
    7.2972    8.7184   24.4595 O   0  0  0  0  0  0  0  0  0  0  0  0
   10.9025   13.7461   24.5081 O   0  0  0  0  0  0  0  0  0  0  0  0
   13.0115   14.2005   23.7373 O   0  0  0  0  0  0  0  0  0  0  0  0
    6.1477   14.6050   25.3876 H   0  0  0  0  0  0  0  0  0  0  0  0
    4.6998   12.6322   25.7770 H   0  0  0  0  0  0  0  0  0  0  0  0
   14.1657   16.5248   20.0041 H   0  0  0  0  0  0  0  0  0  0  0  0
    8.4186   14.3289   24.4942 H   0  0  0  0  0  0  0  0  0  0  0  0
    5.5246   10.3653   25.2736 H   0  0  0  0  0  0  0  0  0  0  0  0
   14.5047   15.9073   22.3910 H   0  0  0  0  0  0  0  0  0  0  0  0
   12.2745   15.4617   18.7612 H   0  0  0  0  0  0  0  0  0  0  0  0
   15.5267   11.5133   28.7502 H   0  0  0  0  0  0  0  0  0  0  0  0
   15.9940   13.1675   28.3588 H   0  0  0  0  0  0  0  0  0  0  0  0
   17.1685   11.6167   26.8675 H   0  0  0  0  0  0  0  0  0  0  0  0
   15.6543   10.8510   26.3929 H   0  0  0  0  0  0  0  0  0  0  0  0
   13.4135   11.7531   27.5303 H   0  0  0  0  0  0  0  0  0  0  0  0
   13.5681   13.0663   28.6947 H   0  0  0  0  0  0  0  0  0  0  0  0
   16.5159   13.7230   25.8033 H   0  0  0  0  0  0  0  0  0  0  0  0
   16.3695   12.4072   24.6413 H   0  0  0  0  0  0  0  0  0  0  0  0
   12.7513   13.8635   26.4774 H   0  0  0  0  0  0  0  0  0  0  0  0
   14.2683   14.6278   26.9437 H   0  0  0  0  0  0  0  0  0  0  0  0
   13.9352   12.2830   25.0039 H   0  0  0  0  0  0  0  0  0  0  0  0
   15.0334   14.0226   23.4316 H   0  0  0  0  0  0  0  0  0  0  0  0
   14.5374   15.2275   24.6485 H   0  0  0  0  0  0  0  0  0  0  0  0
    9.6947    8.7676   23.5492 H   0  0  0  0  0  0  0  0  0  0  0  0
   10.5459   12.3862   21.6151 H   0  0  0  0  0  0  0  0  0  0  0  0
  1  2  2  0  0  0  0
  1  4  1  0  0  0  0
  2  5  1  0  0  0  0
  3  6  1  0  0  0  0
  3  7  2  0  0  0  0
  4  8  2  0  0  0  0
  5  9  2  0  0  0  0
  6 10  2  0  0  0  0
  7 22  1  0  0  0  0
  8  9  1  0  0  0  0
  8 12  1  0  0  0  0
  9 13  1  0  0  0  0
 10 11  1  0  0  0  0
 10 28  1  0  0  0  0
 11 22  2  0  0  0  0
 11 25  1  0  0  0  0
 12 14  1  0  0  0  0
 12 23  2  0  0  0  0
 13 24  1  0  0  0  0
 13 26  2  0  0  0  0
 14 25  1  0  0  0  0
 14 27  2  0  0  0  0
 15 16  1  0  0  0  0
 15 17  1  0  0  0  0
 16 18  1  0  0  0  0
 17 19  1  0  0  0  0
 18 20  1  0  0  0  0
 19 20  1  0  0  0  0
 20 21  1  0  0  0  0
 21 28  1  0  0  0  0
 23 24  1  0  0  0  0
  1 29  1  0  0  0  0
  2 30  1  0  0  0  0
  3 31  1  0  0  0  0
  4 32  1  0  0  0  0
  5 33  1  0  0  0  0
  6 34  1  0  0  0  0
  7 35  1  0  0  0  0
 15 36  1  0  0  0  0
 15 37  1  0  0  0  0
 16 38  1  0  0  0  0
 16 39  1  0  0  0  0
 17 40  1  0  0  0  0
 17 41  1  0  0  0  0
 18 42  1  0  0  0  0
 18 43  1  0  0  0  0
 19 44  1  0  0  0  0
 19 45  1  0  0  0  0
 20 46  1  0  0  0  0
 21 47  1  0  0  0  0
 21 48  1  0  0  0  0
 24 49  1  0  0  0  0
 25 50  1  0  0  0  0
M  END
> <Catalog ID>
Z977202450

> <PlateID>
1041831-R-03

> <Well>
H04

> <MW (desalted)>
378.424

> <ClogP>
2.556

> <HBD>
2

> <TPSA>
92.680

> <RotBonds>
5

> <ROCS_ShapeQuery>
A71EV2A-x0451_0A_A71EV2A-x0310_0A_A71EV2A-x0416_0A_peptide

> <ROCS_TanimotoCombo>
0.546 

> <ROCS_ShapeTanimoto>
0.387 

> <ROCS_ColorTanimoto>
0.159 

> <ROCS_RefTversky>
0.343 

> <ROCS_RefColorTversky>
0.191 

> <ROCS_RefTverskyCombo>
0.534 

> <ROCS_FitTversky>
1.506 

> <ROCS_FitColorTversky>
0.487 

> <ROCS_FitTverskyCombo>
1.993 

> <ROCS_ColorScore>
-5.862

> <ROCS_Overlap>
2383.964

> <ROCS_Rank>
112                 

$$$$
untitled-dbase-1895_4437
  -OEChem-11132311063D

 50 53  0     1  0  0  0  0  0999 V2000
    9.4934   10.0212   22.8819 C   0  0  0  0  0  0  0  0  0  0  0  0
    5.2566   12.9766   29.0628 C   0  0  0  0  0  0  0  0  0  0  0  0
   10.2517   11.1864   22.7681 C   0  0  0  0  0  0  0  0  0  0  0  0
    6.2632   12.3605   28.3277 C   0  0  0  0  0  0  0  0  0  0  0  0
    8.3446   10.0111   23.6730 C   0  0  0  0  0  0  0  0  0  0  0  0
    8.7125   12.3314   24.2368 C   0  0  0  0  0  0  0  0  0  0  0  0
    3.9425   12.6804   28.7385 C   0  0  0  0  0  0  0  0  0  0  0  0
    4.5854   11.2498   27.0597 C   0  0  0  0  0  0  0  0  0  0  0  0
    9.8612   12.3414   23.4456 C   0  0  0  0  0  0  0  0  0  0  0  0
    5.9296   11.4792   27.3051 C   0  0  0  0  0  0  0  0  0  0  0  0
    7.9542   11.1661   24.3505 C   0  0  0  0  0  0  0  0  0  0  0  0
   10.6684   13.5828   23.3247 C   0  0  0  0  0  0  0  0  0  0  0  0
   12.2888   17.3662   21.6607 C   0  0  0  0  0  0  0  0  0  0  0  0
   11.4310   16.1492   21.9971 C   0  0  0  0  0  0  0  0  0  0  0  0
   12.8774   17.2485   20.2624 C   0  0  0  0  0  0  0  0  0  0  0  0
   12.1155   14.3634   19.3457 C   0  0  0  0  0  0  0  0  0  0  0  0
   13.0479   14.7202   18.2037 C   0  0  0  0  0  0  0  0  0  0  0  0
   12.9680   14.6986   20.5563 C   0  0  2  0  0  0  0  0  0  0  0  0
   12.2490   14.8604   21.8971 C   0  0  2  0  0  0  0  0  0  0  0  0
   13.6841   15.9602   20.0773 C   0  0  1  0  0  0  0  0  0  0  0  0
    6.9926   10.7981   26.4943 C   0  0  0  0  0  0  0  0  0  0  0  0
    3.5797   11.8298   27.7523 N   0  0  0  0  0  0  0  0  0  0  0  0
   11.3959   13.7194   22.1526 N   0  0  0  0  0  0  0  0  0  0  0  0
   10.6675   14.3915   24.2490 O   0  0  0  0  0  0  0  0  0  0  0  0
   13.9072   15.7736   18.6678 O   0  0  0  0  0  0  0  0  0  0  0  0
    6.8333   11.1566   25.1224 O   0  0  0  0  0  0  0  0  0  0  0  0
    9.7975    9.1219   22.3543 H   0  0  0  0  0  0  0  0  0  0  0  0
    5.4932   13.6669   29.8645 H   0  0  0  0  0  0  0  0  0  0  0  0
   11.1444   11.1837   22.1483 H   0  0  0  0  0  0  0  0  0  0  0  0
    7.3036   12.5725   28.5584 H   0  0  0  0  0  0  0  0  0  0  0  0
    7.7581    9.1003   23.7576 H   0  0  0  0  0  0  0  0  0  0  0  0
    8.4032   13.2295   24.7667 H   0  0  0  0  0  0  0  0  0  0  0  0
    3.1210   13.1353   29.2820 H   0  0  0  0  0  0  0  0  0  0  0  0
    4.2644   10.5722   26.2746 H   0  0  0  0  0  0  0  0  0  0  0  0
   11.6799   18.2749   21.7276 H   0  0  0  0  0  0  0  0  0  0  0  0
   13.0968   17.4663   22.3953 H   0  0  0  0  0  0  0  0  0  0  0  0
   11.0343   16.2627   23.0134 H   0  0  0  0  0  0  0  0  0  0  0  0
   10.5684   16.1118   21.3206 H   0  0  0  0  0  0  0  0  0  0  0  0
   12.0718   17.3032   19.5186 H   0  0  0  0  0  0  0  0  0  0  0  0
   13.5211   18.1112   20.0521 H   0  0  0  0  0  0  0  0  0  0  0  0
   11.2160   14.9875   19.3034 H   0  0  0  0  0  0  0  0  0  0  0  0
   11.7999   13.3167   19.3080 H   0  0  0  0  0  0  0  0  0  0  0  0
   13.6827   13.8705   17.9310 H   0  0  0  0  0  0  0  0  0  0  0  0
   12.5084   15.0520   17.3121 H   0  0  0  0  0  0  0  0  0  0  0  0
   13.7158   13.8979   20.6581 H   0  0  0  0  0  0  0  0  0  0  0  0
   12.9904   14.8604   22.6901 H   0  0  0  0  0  0  0  0  0  0  0  0
   14.6560   16.0642   20.5730 H   0  0  0  0  0  0  0  0  0  0  0  0
    7.9920   11.0974   26.8279 H   0  0  0  0  0  0  0  0  0  0  0  0
    6.9172    9.7097   26.5922 H   0  0  0  0  0  0  0  0  0  0  0  0
   11.3956   12.9780   21.4594 H   0  0  0  0  0  0  0  0  0  0  0  0
  1  3  1  0  0  0  0
  1  5  2  0  0  0  0
  2  4  1  0  0  0  0
  2  7  2  0  0  0  0
  3  9  2  0  0  0  0
  4 10  2  0  0  0  0
  5 11  1  0  0  0  0
  6  9  1  0  0  0  0
  6 11  2  0  0  0  0
  7 22  1  0  0  0  0
  8 10  1  0  0  0  0
  8 22  2  0  0  0  0
  9 12  1  0  0  0  0
 10 21  1  0  0  0  0
 11 26  1  0  0  0  0
 12 23  1  0  0  0  0
 12 24  2  0  0  0  0
 13 14  1  0  0  0  0
 13 15  1  0  0  0  0
 14 19  1  0  0  0  0
 15 20  1  0  0  0  0
 16 17  1  0  0  0  0
 16 18  1  0  0  0  0
 17 25  1  0  0  0  0
 18 19  1  0  0  0  0
 18 20  1  0  0  0  0
 19 23  1  0  0  0  0
 20 25  1  0  0  0  0
 21 26  1  0  0  0  0
  1 27  1  0  0  0  0
  2 28  1  0  0  0  0
  3 29  1  0  0  0  0
  4 30  1  0  0  0  0
  5 31  1  0  0  0  0
  6 32  1  0  0  0  0
  7 33  1  0  0  0  0
  8 34  1  0  0  0  0
 13 35  1  0  0  0  0
 13 36  1  0  0  0  0
 14 37  1  0  0  0  0
 14 38  1  0  0  0  0
 15 39  1  0  0  0  0
 15 40  1  0  0  0  0
 16 41  1  0  0  0  0
 16 42  1  0  0  0  0
 17 43  1  0  0  0  0
 17 44  1  0  0  0  0
 18 45  1  0  0  0  0
 19 46  1  0  0  0  0
 20 47  1  0  0  0  0
 21 48  1  0  0  0  0
 21 49  1  0  0  0  0
 23 50  1  0  0  0  0
M  END
> <Catalog ID>
Z1421655209

> <PlateID>
1041831-R-24

> <Well>
F06

> <MW (desalted)>
352.427

> <ClogP>
2.502

> <HBD>
1

> <TPSA>
60.450

> <RotBonds>
5

> <ROCS_ShapeQuery>
A71EV2A-x0451_0A_A71EV2A-x0310_0A_A71EV2A-x0416_0A_peptide

> <ROCS_TanimotoCombo>
0.546 

> <ROCS_ShapeTanimoto>
0.340 

> <ROCS_ColorTanimoto>
0.206 

> <ROCS_RefTversky>
0.308 

> <ROCS_RefColorTversky>
0.228 

> <ROCS_RefTverskyCombo>
0.535 

> <ROCS_FitTversky>
1.446 

> <ROCS_FitColorTversky>
0.685 

> <ROCS_FitTverskyCombo>
2.130 

> <ROCS_ColorScore>
-6.962

> <ROCS_Overlap>
2139.368

> <ROCS_Rank>
113                 

$$$$
untitled-dbase-1049_4135
  -OEChem-11132311063D

 41 43  0     1  0  0  0  0  0999 V2000
   11.9114   16.2281   19.5627 C   0  0  0  0  0  0  0  0  0  0  0  0
   13.7682   15.5489   20.9511 C   0  0  0  0  0  0  0  0  0  0  0  0
   12.7476   16.2326   18.4464 C   0  0  0  0  0  0  0  0  0  0  0  0
   14.6046   15.5534   19.8348 C   0  0  0  0  0  0  0  0  0  0  0  0
   12.4217   15.8863   20.8151 C   0  0  0  0  0  0  0  0  0  0  0  0
   14.0942   15.8952   18.5824 C   0  0  0  0  0  0  0  0  0  0  0  0
    7.5810   10.6340   24.7392 C   0  0  0  0  0  0  0  0  0  0  0  0
    9.5396   10.9657   23.8299 C   0  0  0  0  0  0  0  0  0  0  0  0
    6.4852   10.9683   25.5802 C   0  0  0  0  0  0  0  0  0  0  0  0
    6.5211   12.1128   26.2909 C   0  0  0  0  0  0  0  0  0  0  0  0
    8.6961   12.7045   25.4236 C   0  0  0  0  0  0  0  0  0  0  0  0
    7.6614   13.0288   26.2232 C   0  0  0  0  0  0  0  0  0  0  0  0
   10.5918   14.0119   23.0233 C   0  0  0  0  0  0  0  0  0  0  0  0
    9.2195   15.8444   21.9952 C   0  0  0  0  0  0  0  0  0  0  0  0
   10.8331   11.5858   23.4851 C   0  0  0  0  0  0  0  0  0  0  0  0
   10.4837   15.0081   21.8776 C   0  0  1  0  0  0  0  0  0  0  0  0
    7.6082   14.2732   27.0495 C   0  0  0  0  0  0  0  0  0  0  0  0
    7.8333    9.6159   23.9444 N   0  0  0  0  0  0  0  0  0  0  0  0
    9.0713    9.8268   23.3704 N   0  0  0  0  0  0  0  0  0  0  0  0
    8.6435   11.5213   24.6978 N   0  0  0  0  0  0  0  0  0  0  0  0
   10.6978   12.7052   22.5780 N   0  0  0  0  0  0  0  0  0  0  0  0
   10.6002   14.3594   24.2023 O   0  0  0  0  0  0  0  0  0  0  0  0
   11.5993   15.8825   21.9135 O   0  0  0  0  0  0  0  0  0  0  0  0
    6.4579   14.3406   27.7520 F   0  0  0  0  0  0  0  0  0  0  0  0
    8.6305   14.3175   27.9297 F   0  0  0  0  0  0  0  0  0  0  0  0
    7.6835   15.3775   26.2770 F   0  0  0  0  0  0  0  0  0  0  0  0
   15.1265   15.9020   17.2055 Cl  0  0  0  0  0  0  0  0  0  0  0  0
   10.8636   16.4923   19.4499 H   0  0  0  0  0  0  0  0  0  0  0  0
   14.1716   15.2822   21.9241 H   0  0  0  0  0  0  0  0  0  0  0  0
   12.3367   16.5020   17.4765 H   0  0  0  0  0  0  0  0  0  0  0  0
   15.6522   15.2892   19.9556 H   0  0  0  0  0  0  0  0  0  0  0  0
    5.6340   10.2997   25.6418 H   0  0  0  0  0  0  0  0  0  0  0  0
    5.6901   12.3774   26.9372 H   0  0  0  0  0  0  0  0  0  0  0  0
    9.5765   13.3270   25.3173 H   0  0  0  0  0  0  0  0  0  0  0  0
    9.2022   16.3820   22.9495 H   0  0  0  0  0  0  0  0  0  0  0  0
    8.3274   15.2082   21.9730 H   0  0  0  0  0  0  0  0  0  0  0  0
    9.1360   16.5734   21.1835 H   0  0  0  0  0  0  0  0  0  0  0  0
   11.3606   11.9635   24.3795 H   0  0  0  0  0  0  0  0  0  0  0  0
   11.5250   10.8717   23.0036 H   0  0  0  0  0  0  0  0  0  0  0  0
   10.4959   14.4729   20.9219 H   0  0  0  0  0  0  0  0  0  0  0  0
   10.6799   12.5260   21.5798 H   0  0  0  0  0  0  0  0  0  0  0  0
  1  3  1  0  0  0  0
  1  5  2  0  0  0  0
  2  4  2  0  0  0  0
  2  5  1  0  0  0  0
  3  6  2  0  0  0  0
  4  6  1  0  0  0  0
  5 23  1  0  0  0  0
  6 27  1  0  0  0  0
  7  9  1  0  0  0  0
  7 18  2  0  0  0  0
  7 20  1  0  0  0  0
  8 15  1  0  0  0  0
  8 19  2  0  0  0  0
  8 20  1  0  0  0  0
  9 10  2  0  0  0  0
 10 12  1  0  0  0  0
 11 12  2  0  0  0  0
 11 20  1  0  0  0  0
 12 17  1  0  0  0  0
 13 16  1  0  0  0  0
 13 21  1  0  0  0  0
 13 22  2  0  0  0  0
 14 16  1  0  0  0  0
 15 21  1  0  0  0  0
 16 23  1  0  0  0  0
 17 24  1  0  0  0  0
 17 25  1  0  0  0  0
 17 26  1  0  0  0  0
 18 19  1  0  0  0  0
  1 28  1  0  0  0  0
  2 29  1  0  0  0  0
  3 30  1  0  0  0  0
  4 31  1  0  0  0  0
  9 32  1  0  0  0  0
 10 33  1  0  0  0  0
 11 34  1  0  0  0  0
 14 35  1  0  0  0  0
 14 36  1  0  0  0  0
 14 37  1  0  0  0  0
 15 38  1  0  0  0  0
 15 39  1  0  0  0  0
 16 40  1  0  0  0  0
 21 41  1  0  0  0  0
M  END
> <Catalog ID>
Z154335120

> <PlateID>
1041831-R-14

> <Well>
A10

> <MW (desalted)>
398.767

> <ClogP>
2.971

> <HBD>
1

> <TPSA>
68.520

> <RotBonds>
6

> <ROCS_ShapeQuery>
A71EV2A-x0451_0A_A71EV2A-x0310_0A_A71EV2A-x0416_0A_peptide

> <ROCS_TanimotoCombo>
0.546 

> <ROCS_ShapeTanimoto>
0.341 

> <ROCS_ColorTanimoto>
0.205 

> <ROCS_RefTversky>
0.310 

> <ROCS_RefColorTversky>
0.223 

> <ROCS_RefTverskyCombo>
0.533 

> <ROCS_FitTversky>
1.403 

> <ROCS_FitColorTversky>
0.717 

> <ROCS_FitTverskyCombo>
2.120 

> <ROCS_ColorScore>
-6.806

> <ROCS_Overlap>
2160.336

> <ROCS_Rank>
114                 

$$$$
untitled-dbase-1744_297
  -OEChem-11132311063D

 49 52  0     1  0  0  0  0  0999 V2000
   13.7449   13.0007   26.8804 C   0  0  0  0  0  0  0  0  0  0  0  0
   13.3379   12.9793   25.5511 C   0  0  0  0  0  0  0  0  0  0  0  0
    8.6257   10.0549   23.5416 C   0  0  0  0  0  0  0  0  0  0  0  0
    9.7157   10.7185   22.9709 C   0  0  0  0  0  0  0  0  0  0  0  0
    9.1840   12.7353   24.2074 C   0  0  0  0  0  0  0  0  0  0  0  0
   15.0985   13.1391   27.1421 C   0  0  0  0  0  0  0  0  0  0  0  0
   15.6129   13.2297   24.9048 C   0  0  0  0  0  0  0  0  0  0  0  0
   14.2835   13.0953   24.5383 C   0  0  0  0  0  0  0  0  0  0  0  0
    7.7958   10.7329   24.4606 C   0  0  0  0  0  0  0  0  0  0  0  0
    9.9894   12.0413   23.3008 C   0  0  0  0  0  0  0  0  0  0  0  0
    8.0909   12.0625   24.7769 C   0  0  0  0  0  0  0  0  0  0  0  0
    6.1561   11.1177   25.8856 C   0  0  0  0  0  0  0  0  0  0  0  0
   11.5243   14.0103   22.9221 C   0  0  0  0  0  0  0  0  0  0  0  0
   13.6434   16.6231   18.8119 C   0  0  0  0  0  0  0  0  0  0  0  0
   14.2231   16.6325   20.2040 C   0  0  0  0  0  0  0  0  0  0  0  0
   12.2477   16.0904   19.0579 C   0  0  0  0  0  0  0  0  0  0  0  0
   13.6293   15.3623   20.7876 C   0  0  1  0  0  0  0  0  0  0  0  0
    4.9568   10.9045   26.7245 C   0  0  0  0  0  0  0  0  0  0  0  0
   13.8757   13.0764   23.0935 C   0  0  0  0  0  0  0  0  0  0  0  0
   13.5111   15.3887   22.2991 C   0  0  0  0  0  0  0  0  0  0  0  0
   16.0464   13.2546   26.1851 N   0  0  0  0  0  0  0  0  0  0  0  0
    6.6852   10.2060   25.1036 N   0  0  0  0  0  0  0  0  0  0  0  0
   11.0997   12.6960   22.7120 N   0  0  0  0  0  0  0  0  0  0  0  0
   12.9413   14.1673   22.7704 N   0  0  0  0  0  0  0  0  0  0  0  0
   10.7714   14.9489   23.1908 O   0  0  0  0  0  0  0  0  0  0  0  0
   12.3256   15.2225   20.1985 O   0  0  0  0  0  0  0  0  0  0  0  0
    6.9302   12.6429   25.9121 S   0  0  0  0  0  0  0  0  0  0  0  0
   13.0254   12.9121   27.6863 H   0  0  0  0  0  0  0  0  0  0  0  0
   12.2829   12.8722   25.3139 H   0  0  0  0  0  0  0  0  0  0  0  0
    8.4196    9.0220   23.2760 H   0  0  0  0  0  0  0  0  0  0  0  0
   10.3470   10.1833   22.2653 H   0  0  0  0  0  0  0  0  0  0  0  0
    9.3959   13.7687   24.4676 H   0  0  0  0  0  0  0  0  0  0  0  0
   15.4668   13.1611   28.1625 H   0  0  0  0  0  0  0  0  0  0  0  0
   16.3956   13.3243   24.1585 H   0  0  0  0  0  0  0  0  0  0  0  0
   13.6473   17.6023   18.3262 H   0  0  0  0  0  0  0  0  0  0  0  0
   14.2046   15.9247   18.1798 H   0  0  0  0  0  0  0  0  0  0  0  0
   15.3165   16.6370   20.2194 H   0  0  0  0  0  0  0  0  0  0  0  0
   13.8676   17.5184   20.7442 H   0  0  0  0  0  0  0  0  0  0  0  0
   11.5525   16.9002   19.3033 H   0  0  0  0  0  0  0  0  0  0  0  0
   11.8520   15.5385   18.2007 H   0  0  0  0  0  0  0  0  0  0  0  0
   14.2191   14.4911   20.4784 H   0  0  0  0  0  0  0  0  0  0  0  0
    5.2351   10.5306   27.7223 H   0  0  0  0  0  0  0  0  0  0  0  0
    4.3803   11.8340   26.8609 H   0  0  0  0  0  0  0  0  0  0  0  0
    4.2634   10.1765   26.2723 H   0  0  0  0  0  0  0  0  0  0  0  0
   14.7517   13.1791   22.4437 H   0  0  0  0  0  0  0  0  0  0  0  0
   13.3882   12.1304   22.8351 H   0  0  0  0  0  0  0  0  0  0  0  0
   14.5144   15.5192   22.7099 H   0  0  0  0  0  0  0  0  0  0  0  0
   12.8713   16.2314   22.5690 H   0  0  0  0  0  0  0  0  0  0  0  0
   11.6510   12.1455   22.0615 H   0  0  0  0  0  0  0  0  0  0  0  0
  1  2  1  0  0  0  0
  1  6  2  0  0  0  0
  2  8  2  0  0  0  0
  3  4  1  0  0  0  0
  3  9  2  0  0  0  0
  4 10  2  0  0  0  0
  5 10  1  0  0  0  0
  5 11  2  0  0  0  0
  6 21  1  0  0  0  0
  7  8  1  0  0  0  0
  7 21  2  0  0  0  0
  8 19  1  0  0  0  0
  9 11  1  0  0  0  0
  9 22  1  0  0  0  0
 10 23  1  0  0  0  0
 11 27  1  0  0  0  0
 12 18  1  0  0  0  0
 12 22  2  0  0  0  0
 12 27  1  0  0  0  0
 13 23  1  0  0  0  0
 13 24  1  0  0  0  0
 13 25  2  0  0  0  0
 14 15  1  0  0  0  0
 14 16  1  0  0  0  0
 15 17  1  0  0  0  0
 16 26  1  0  0  0  0
 17 20  1  0  0  0  0
 17 26  1  0  0  0  0
 19 24  1  0  0  0  0
 20 24  1  0  0  0  0
  1 28  1  0  0  0  0
  2 29  1  0  0  0  0
  3 30  1  0  0  0  0
  4 31  1  0  0  0  0
  5 32  1  0  0  0  0
  6 33  1  0  0  0  0
  7 34  1  0  0  0  0
 14 35  1  0  0  0  0
 14 36  1  0  0  0  0
 15 37  1  0  0  0  0
 15 38  1  0  0  0  0
 16 39  1  0  0  0  0
 16 40  1  0  0  0  0
 17 41  1  0  0  0  0
 18 42  1  0  0  0  0
 18 43  1  0  0  0  0
 18 44  1  0  0  0  0
 19 45  1  0  0  0  0
 19 46  1  0  0  0  0
 20 47  1  0  0  0  0
 20 48  1  0  0  0  0
 23 49  1  0  0  0  0
M  END
> <Catalog ID>
Z603271110

> <PlateID>
1041831-R-22

> <Well>
G05

> <MW (desalted)>
382.479

> <ClogP>
3.016

> <HBD>
1

> <TPSA>
67.350

> <RotBonds>
5

> <ROCS_ShapeQuery>
A71EV2A-x0451_0A_A71EV2A-x0310_0A_A71EV2A-x0416_0A_peptide

> <ROCS_TanimotoCombo>
0.546 

> <ROCS_ShapeTanimoto>
0.355 

> <ROCS_ColorTanimoto>
0.190 

> <ROCS_RefTversky>
0.319 

> <ROCS_RefColorTversky>
0.213 

> <ROCS_RefTverskyCombo>
0.532 

> <ROCS_FitTversky>
1.463 

> <ROCS_FitColorTversky>
0.642 

> <ROCS_FitTverskyCombo>
2.104 

> <ROCS_ColorScore>
-6.511

> <ROCS_Overlap>
2221.840

> <ROCS_Rank>
115                 

$$$$
untitled-dbase-724_2929
  -OEChem-11132311063D

 43 45  0     1  0  0  0  0  0999 V2000
    6.6685   12.3302   25.9622 C   0  0  0  0  0  0  0  0  0  0  0  0
    6.4942   10.9896   26.3002 C   0  0  0  0  0  0  0  0  0  0  0  0
    7.5707   12.7047   24.9599 C   0  0  0  0  0  0  0  0  0  0  0  0
    7.2134    9.9829   25.6498 C   0  0  0  0  0  0  0  0  0  0  0  0
    9.6514   10.4200   23.0075 C   0  0  0  0  0  0  0  0  0  0  0  0
    8.3071   11.7073   24.2903 C   0  0  0  0  0  0  0  0  0  0  0  0
    9.2809   11.7222   23.2528 C   0  0  0  0  0  0  0  0  0  0  0  0
    8.1118   10.3721   24.6500 C   0  0  0  0  0  0  0  0  0  0  0  0
   11.4945   15.2112   21.3938 C   0  0  0  0  0  0  0  0  0  0  0  0
   11.7200   13.6245   24.0210 C   0  0  0  0  0  0  0  0  0  0  0  0
   12.8214   15.6597   17.8341 C   0  0  0  0  0  0  0  0  0  0  0  0
   14.2731   15.7782   18.2870 C   0  0  0  0  0  0  0  0  0  0  0  0
   11.9554   15.0944   18.9552 C   0  0  0  0  0  0  0  0  0  0  0  0
   14.3664   16.5169   19.6163 C   0  0  0  0  0  0  0  0  0  0  0  0
   12.1782   15.8753   20.2450 C   0  0  2  0  0  0  0  0  0  0  0  0
    9.8198   12.9407   22.5427 C   0  0  0  0  0  0  0  0  0  0  0  0
   11.3443   13.0727   22.6536 C   0  0  1  0  0  0  0  0  0  0  0  0
    8.9407    9.6130   23.8549 N   0  0  0  0  0  0  0  0  0  0  0  0
   11.8799   13.8997   21.5961 N   0  0  0  0  0  0  0  0  0  0  0  0
   10.6757   15.8393   22.0546 O   0  0  0  0  0  0  0  0  0  0  0  0
   10.8903   13.8904   24.8844 O   0  0  0  0  0  0  0  0  0  0  0  0
   13.5566   15.8825   20.6065 O   0  0  0  0  0  0  0  0  0  0  0  0
   13.0489   13.7956   24.2199 O   0  0  0  0  0  0  0  0  0  0  0  0
    6.0974   13.0949   26.4817 H   0  0  0  0  0  0  0  0  0  0  0  0
    5.7881   10.7212   27.0819 H   0  0  0  0  0  0  0  0  0  0  0  0
    7.6945   13.7540   24.7073 H   0  0  0  0  0  0  0  0  0  0  0  0
    7.0778    8.9397   25.9144 H   0  0  0  0  0  0  0  0  0  0  0  0
   10.3553    9.9944   22.3057 H   0  0  0  0  0  0  0  0  0  0  0  0
   12.4467   16.6503   17.5487 H   0  0  0  0  0  0  0  0  0  0  0  0
   12.7539   15.0213   16.9464 H   0  0  0  0  0  0  0  0  0  0  0  0
   14.6843   14.7685   18.4087 H   0  0  0  0  0  0  0  0  0  0  0  0
   14.8696   16.2892   17.5241 H   0  0  0  0  0  0  0  0  0  0  0  0
   10.8980   15.1155   18.6682 H   0  0  0  0  0  0  0  0  0  0  0  0
   12.2252   14.0405   19.1040 H   0  0  0  0  0  0  0  0  0  0  0  0
   15.4004   16.5086   19.9753 H   0  0  0  0  0  0  0  0  0  0  0  0
   14.0601   17.5644   19.5121 H   0  0  0  0  0  0  0  0  0  0  0  0
   11.8086   16.9042   20.1687 H   0  0  0  0  0  0  0  0  0  0  0  0
    9.3269   13.8265   22.9652 H   0  0  0  0  0  0  0  0  0  0  0  0
    9.5180   12.9183   21.4867 H   0  0  0  0  0  0  0  0  0  0  0  0
   11.8378   12.0988   22.5562 H   0  0  0  0  0  0  0  0  0  0  0  0
    9.0135    8.6056   23.8922 H   0  0  0  0  0  0  0  0  0  0  0  0
   12.5726   13.4976   20.9718 H   0  0  0  0  0  0  0  0  0  0  0  0
   13.6146   13.5490   23.4581 H   0  0  0  0  0  0  0  0  0  0  0  0
  1  2  2  0  0  0  0
  1  3  1  0  0  0  0
  2  4  1  0  0  0  0
  3  6  2  0  0  0  0
  4  8  2  0  0  0  0
  5  7  2  0  0  0  0
  5 18  1  0  0  0  0
  6  7  1  0  0  0  0
  6  8  1  0  0  0  0
  7 16  1  0  0  0  0
  8 18  1  0  0  0  0
  9 15  1  0  0  0  0
  9 19  1  0  0  0  0
  9 20  2  0  0  0  0
 10 17  1  0  0  0  0
 10 21  2  0  0  0  0
 10 23  1  0  0  0  0
 11 12  1  0  0  0  0
 11 13  1  0  0  0  0
 12 14  1  0  0  0  0
 13 15  1  0  0  0  0
 14 22  1  0  0  0  0
 15 22  1  0  0  0  0
 16 17  1  0  0  0  0
 17 19  1  0  0  0  0
  1 24  1  0  0  0  0
  2 25  1  0  0  0  0
  3 26  1  0  0  0  0
  4 27  1  0  0  0  0
  5 28  1  0  0  0  0
 11 29  1  0  0  0  0
 11 30  1  0  0  0  0
 12 31  1  0  0  0  0
 12 32  1  0  0  0  0
 13 33  1  0  0  0  0
 13 34  1  0  0  0  0
 14 35  1  0  0  0  0
 14 36  1  0  0  0  0
 15 37  1  0  0  0  0
 16 38  1  0  0  0  0
 16 39  1  0  0  0  0
 17 40  1  0  0  0  0
 18 41  1  0  0  0  0
 19 42  1  0  0  0  0
 23 43  1  0  0  0  0
M  END
> <Catalog ID>
Z963640316

> <PlateID>
1041831-R-10

> <Well>
A05

> <MW (desalted)>
316.352

> <ClogP>
1.869

> <HBD>
3

> <TPSA>
91.420

> <RotBonds>
5

> <ROCS_ShapeQuery>
A71EV2A-x0451_0A_A71EV2A-x0310_0A_A71EV2A-x0416_0A_peptide

> <ROCS_TanimotoCombo>
0.545 

> <ROCS_ShapeTanimoto>
0.362 

> <ROCS_ColorTanimoto>
0.184 

> <ROCS_RefTversky>
0.317 

> <ROCS_RefColorTversky>
0.211 

> <ROCS_RefTverskyCombo>
0.529 

> <ROCS_FitTversky>
1.635 

> <ROCS_FitColorTversky>
0.583 

> <ROCS_FitTverskyCombo>
2.218 

> <ROCS_ColorScore>
-6.476

> <ROCS_Overlap>
2204.237

> <ROCS_Rank>
116                 

$$$$
untitled-dbase-1342_1092
  -OEChem-11132311063D

 53 56  0     0  0  0  0  0  0999 V2000
   10.2607    6.0683   21.2115 C   0  0  0  0  0  0  0  0  0  0  0  0
   11.2544    6.9950   21.5262 C   0  0  0  0  0  0  0  0  0  0  0  0
    8.9325    6.3277   21.5500 C   0  0  0  0  0  0  0  0  0  0  0  0
   10.9202    8.1812   22.1795 C   0  0  0  0  0  0  0  0  0  0  0  0
    8.5983    7.5139   22.2033 C   0  0  0  0  0  0  0  0  0  0  0  0
   12.6830   15.2512   22.3776 C   0  0  0  0  0  0  0  0  0  0  0  0
    9.9995   10.8193   22.9776 C   0  0  0  0  0  0  0  0  0  0  0  0
   13.2029   16.0908   21.3743 C   0  0  0  0  0  0  0  0  0  0  0  0
    7.8283   12.8088   25.3475 C   0  0  0  0  0  0  0  0  0  0  0  0
    8.5399   11.9378   24.4987 C   0  0  0  0  0  0  0  0  0  0  0  0
    9.5921    8.4407   22.5181 C   0  0  0  0  0  0  0  0  0  0  0  0
    9.6469   11.9937   23.6426 C   0  0  0  0  0  0  0  0  0  0  0  0
    9.2459    9.6706   23.1951 C   0  0  0  0  0  0  0  0  0  0  0  0
    7.8767   10.7271   24.6245 C   0  0  0  0  0  0  0  0  0  0  0  0
   11.8185   14.4164   21.7127 C   0  0  0  0  0  0  0  0  0  0  0  0
   10.4000   13.2190   23.4509 C   0  0  0  0  0  0  0  0  0  0  0  0
    6.3131    9.3015   27.2562 C   0  0  0  0  0  0  0  0  0  0  0  0
    5.5398    8.9609   24.8704 C   0  0  0  0  0  0  0  0  0  0  0  0
   11.9372   14.2509   17.9972 C   0  0  0  0  0  0  0  0  0  0  0  0
    9.7576   14.8550   19.1334 C   0  0  0  0  0  0  0  0  0  0  0  0
    5.8821    9.9830   25.9560 C   0  0  0  0  0  0  0  0  0  0  0  0
   11.1367   14.2141   19.3005 C   0  0  0  0  0  0  0  0  0  0  0  0
   12.7100   15.8145   20.1641 N   0  0  0  0  0  0  0  0  0  0  0  0
    6.8022   12.2105   25.9614 N   0  0  0  0  0  0  0  0  0  0  0  0
    8.1694    9.5668   24.0116 N   0  0  0  0  0  0  0  0  0  0  0  0
    6.8568   10.9469   25.5026 N   0  0  0  0  0  0  0  0  0  0  0  0
   11.8713   14.7918   20.4026 N   0  0  0  0  0  0  0  0  0  0  0  0
   10.9992   13.3616   22.1881 N   0  0  0  0  0  0  0  0  0  0  0  0
   10.5281   14.0571   24.3566 O   0  0  0  0  0  0  0  0  0  0  0  0
   10.5209    5.1455   20.7013 H   0  0  0  0  0  0  0  0  0  0  0  0
   12.2883    6.7940   21.2612 H   0  0  0  0  0  0  0  0  0  0  0  0
    8.1581    5.6071   21.3040 H   0  0  0  0  0  0  0  0  0  0  0  0
   11.7063    8.8939   22.4178 H   0  0  0  0  0  0  0  0  0  0  0  0
    7.5587    7.7027   22.4603 H   0  0  0  0  0  0  0  0  0  0  0  0
   12.9063   15.2546   23.4346 H   0  0  0  0  0  0  0  0  0  0  0  0
   10.8511   10.8087   22.3019 H   0  0  0  0  0  0  0  0  0  0  0  0
   13.9203   16.8925   21.4748 H   0  0  0  0  0  0  0  0  0  0  0  0
    8.0120   13.8551   25.5465 H   0  0  0  0  0  0  0  0  0  0  0  0
    7.2289    8.7151   27.1262 H   0  0  0  0  0  0  0  0  0  0  0  0
    5.5308    8.6225   27.6121 H   0  0  0  0  0  0  0  0  0  0  0  0
    6.4997   10.0420   28.0419 H   0  0  0  0  0  0  0  0  0  0  0  0
    6.4190    8.3632   24.6057 H   0  0  0  0  0  0  0  0  0  0  0  0
    5.1900    9.4658   23.9636 H   0  0  0  0  0  0  0  0  0  0  0  0
    4.7523    8.2711   25.1921 H   0  0  0  0  0  0  0  0  0  0  0  0
   12.1435   15.2765   17.6731 H   0  0  0  0  0  0  0  0  0  0  0  0
   11.3856   13.7522   17.1930 H   0  0  0  0  0  0  0  0  0  0  0  0
   12.8984   13.7384   18.1149 H   0  0  0  0  0  0  0  0  0  0  0  0
    9.8488   15.9170   18.8800 H   0  0  0  0  0  0  0  0  0  0  0  0
    9.1829   14.7783   20.0625 H   0  0  0  0  0  0  0  0  0  0  0  0
    9.1758   14.3721   18.3411 H   0  0  0  0  0  0  0  0  0  0  0  0
    4.9643   10.5446   26.1734 H   0  0  0  0  0  0  0  0  0  0  0  0
   10.9749   13.1579   19.5518 H   0  0  0  0  0  0  0  0  0  0  0  0
   10.8216   12.6087   21.5278 H   0  0  0  0  0  0  0  0  0  0  0  0
  1  2  2  0  0  0  0
  1  3  1  0  0  0  0
  2  4  1  0  0  0  0
  3  5  2  0  0  0  0
  4 11  2  0  0  0  0
  5 11  1  0  0  0  0
  6  8  1  0  0  0  0
  6 15  2  0  0  0  0
  7 12  1  0  0  0  0
  7 13  2  0  0  0  0
  8 23  2  0  0  0  0
  9 10  1  0  0  0  0
  9 24  2  0  0  0  0
 10 12  2  0  0  0  0
 10 14  1  0  0  0  0
 11 13  1  0  0  0  0
 12 16  1  0  0  0  0
 13 25  1  0  0  0  0
 14 25  2  0  0  0  0
 14 26  1  0  0  0  0
 15 27  1  0  0  0  0
 15 28  1  0  0  0  0
 16 28  1  0  0  0  0
 16 29  2  0  0  0  0
 17 21  1  0  0  0  0
 18 21  1  0  0  0  0
 19 22  1  0  0  0  0
 20 22  1  0  0  0  0
 21 26  1  0  0  0  0
 22 27  1  0  0  0  0
 23 27  1  0  0  0  0
 24 26  1  0  0  0  0
  1 30  1  0  0  0  0
  2 31  1  0  0  0  0
  3 32  1  0  0  0  0
  4 33  1  0  0  0  0
  5 34  1  0  0  0  0
  6 35  1  0  0  0  0
  7 36  1  0  0  0  0
  8 37  1  0  0  0  0
  9 38  1  0  0  0  0
 17 39  1  0  0  0  0
 17 40  1  0  0  0  0
 17 41  1  0  0  0  0
 18 42  1  0  0  0  0
 18 43  1  0  0  0  0
 18 44  1  0  0  0  0
 19 45  1  0  0  0  0
 19 46  1  0  0  0  0
 19 47  1  0  0  0  0
 20 48  1  0  0  0  0
 20 49  1  0  0  0  0
 20 50  1  0  0  0  0
 21 51  1  0  0  0  0
 22 52  1  0  0  0  0
 28 53  1  0  0  0  0
M  END
> <Catalog ID>
Z51781592

> <PlateID>
1041831-R-17

> <Well>
G03

> <MW (desalted)>
388.466

> <ClogP>
3.717

> <HBD>
1

> <TPSA>
77.630

> <RotBonds>
5

> <ROCS_ShapeQuery>
A71EV2A-x0451_0A_A71EV2A-x0310_0A_A71EV2A-x0416_0A_peptide

> <ROCS_TanimotoCombo>
0.545 

> <ROCS_ShapeTanimoto>
0.371 

> <ROCS_ColorTanimoto>
0.174 

> <ROCS_RefTversky>
0.334 

> <ROCS_RefColorTversky>
0.207 

> <ROCS_RefTverskyCombo>
0.541 

> <ROCS_FitTversky>
1.416 

> <ROCS_FitColorTversky>
0.526 

> <ROCS_FitTverskyCombo>
1.941 

> <ROCS_ColorScore>
-6.336

> <ROCS_Overlap>
2329.242

> <ROCS_Rank>
117                 

$$$$
untitled-dbase-327_6249
  -OEChem-11132311063D

 41 43  0     1  0  0  0  0  0999 V2000
    6.9694   12.8569   25.4793 C   0  0  0  0  0  0  0  0  0  0  0  0
    6.6134   11.6776   26.1306 C   0  0  0  0  0  0  0  0  0  0  0  0
    7.8987   12.8448   24.4328 C   0  0  0  0  0  0  0  0  0  0  0  0
    7.1725   10.4517   25.7586 C   0  0  0  0  0  0  0  0  0  0  0  0
    9.6037    9.8835   23.1351 C   0  0  0  0  0  0  0  0  0  0  0  0
    8.4758   11.6208   24.0402 C   0  0  0  0  0  0  0  0  0  0  0  0
    9.4247   11.2449   23.0486 C   0  0  0  0  0  0  0  0  0  0  0  0
    8.1002   10.4548   24.7109 C   0  0  0  0  0  0  0  0  0  0  0  0
   12.9830   14.6045   21.9867 C   0  0  0  0  0  0  0  0  0  0  0  0
   10.7739   13.8170   23.8711 C   0  0  0  0  0  0  0  0  0  0  0  0
   12.9563   16.3588   18.2509 C   0  0  0  0  0  0  0  0  0  0  0  0
   13.7342   15.0730   18.4789 C   0  0  0  0  0  0  0  0  0  0  0  0
   12.7259   16.6345   20.5756 C   0  0  0  0  0  0  0  0  0  0  0  0
   13.5004   15.3453   20.8001 C   0  0  2  0  0  0  0  0  0  0  0  0
   10.1032   12.1451   22.0942 C   0  0  0  0  0  0  0  0  0  0  0  0
   11.2635   12.9613   22.7120 C   0  0  1  0  0  0  0  0  0  0  0  0
    8.8004    9.4159   24.1403 N   0  0  0  0  0  0  0  0  0  0  0  0
   11.9140   13.7697   21.7114 N   0  0  0  0  0  0  0  0  0  0  0  0
   13.5109   14.7706   23.0801 O   0  0  0  0  0  0  0  0  0  0  0  0
   10.7688   13.4261   25.0337 O   0  0  0  0  0  0  0  0  0  0  0  0
   13.1545   17.2446   19.3555 O   0  0  0  0  0  0  0  0  0  0  0  0
   13.3063   14.4606   19.6979 O   0  0  0  0  0  0  0  0  0  0  0  0
   10.3471   15.0548   23.5237 O   0  0  0  0  0  0  0  0  0  0  0  0
    6.5206   13.7978   25.7861 H   0  0  0  0  0  0  0  0  0  0  0  0
    5.8896   11.7101   26.9409 H   0  0  0  0  0  0  0  0  0  0  0  0
    8.1651   13.7726   23.9344 H   0  0  0  0  0  0  0  0  0  0  0  0
    6.8956    9.5343   26.2669 H   0  0  0  0  0  0  0  0  0  0  0  0
   10.2288    9.2048   22.5713 H   0  0  0  0  0  0  0  0  0  0  0  0
   13.2770   16.8612   17.3296 H   0  0  0  0  0  0  0  0  0  0  0  0
   11.8845   16.1488   18.1698 H   0  0  0  0  0  0  0  0  0  0  0  0
   13.5844   14.3707   17.6545 H   0  0  0  0  0  0  0  0  0  0  0  0
   14.8025   15.2826   18.5615 H   0  0  0  0  0  0  0  0  0  0  0  0
   11.6544   16.4488   20.5009 H   0  0  0  0  0  0  0  0  0  0  0  0
   12.8986   17.3421   21.3891 H   0  0  0  0  0  0  0  0  0  0  0  0
   14.5267   15.5147   20.9342 H   0  0  0  0  0  0  0  0  0  0  0  0
    9.3656   12.8461   21.6537 H   0  0  0  0  0  0  0  0  0  0  0  0
   10.4917   11.5854   21.2179 H   0  0  0  0  0  0  0  0  0  0  0  0
   12.0360   12.2944   23.1120 H   0  0  0  0  0  0  0  0  0  0  0  0
    8.7310    8.4481   24.4233 H   0  0  0  0  0  0  0  0  0  0  0  0
   11.5702   13.7244   20.7550 H   0  0  0  0  0  0  0  0  0  0  0  0
   10.3982   15.2543   22.5652 H   0  0  0  0  0  0  0  0  0  0  0  0
  1  2  2  0  0  0  0
  1  3  1  0  0  0  0
  2  4  1  0  0  0  0
  3  6  2  0  0  0  0
  4  8  2  0  0  0  0
  5  7  2  0  0  0  0
  5 17  1  0  0  0  0
  6  7  1  0  0  0  0
  6  8  1  0  0  0  0
  7 15  1  0  0  0  0
  8 17  1  0  0  0  0
  9 14  1  0  0  0  0
  9 18  1  0  0  0  0
  9 19  2  0  0  0  0
 10 16  1  0  0  0  0
 10 20  2  0  0  0  0
 10 23  1  0  0  0  0
 11 12  1  0  0  0  0
 11 21  1  0  0  0  0
 12 22  1  0  0  0  0
 13 14  1  0  0  0  0
 13 21  1  0  0  0  0
 14 22  1  0  0  0  0
 15 16  1  0  0  0  0
 16 18  1  0  0  0  0
  1 24  1  0  0  0  0
  2 25  1  0  0  0  0
  3 26  1  0  0  0  0
  4 27  1  0  0  0  0
  5 28  1  0  0  0  0
 11 29  1  0  0  0  0
 11 30  1  0  0  0  0
 12 31  1  0  0  0  0
 12 32  1  0  0  0  0
 13 33  1  0  0  0  0
 13 34  1  0  0  0  0
 14 35  1  0  0  0  0
 15 36  1  0  0  0  0
 15 37  1  0  0  0  0
 16 38  1  0  0  0  0
 17 39  1  0  0  0  0
 18 40  1  0  0  0  0
 23 41  1  0  0  0  0
M  END
> <Catalog ID>
Z398807360

> <PlateID>
1041831-R-05

> <Well>
A08

> <MW (desalted)>
318.325

> <ClogP>
0.770

> <HBD>
3

> <TPSA>
100.650

> <RotBonds>
5

> <ROCS_ShapeQuery>
A71EV2A-x0451_0A_A71EV2A-x0310_0A_A71EV2A-x0416_0A_peptide

> <ROCS_TanimotoCombo>
0.545 

> <ROCS_ShapeTanimoto>
0.352 

> <ROCS_ColorTanimoto>
0.193 

> <ROCS_RefTversky>
0.311 

> <ROCS_RefColorTversky>
0.225 

> <ROCS_RefTverskyCombo>
0.537 

> <ROCS_FitTversky>
1.595 

> <ROCS_FitColorTversky>
0.573 

> <ROCS_FitTverskyCombo>
2.168 

> <ROCS_ColorScore>
-6.912

> <ROCS_Overlap>
2162.141

> <ROCS_Rank>
118                 

$$$$
untitled-dbase-829_159
  -OEChem-11132311063D

 46 50  0     1  0  0  0  0  0999 V2000
    7.0849    9.7011   24.9901 C   0  0  0  0  0  0  0  0  0  0  0  0
    8.3751   11.9117   24.2231 C   0  0  0  0  0  0  0  0  0  0  0  0
    9.2758   12.8928   23.6924 C   0  0  0  0  0  0  0  0  0  0  0  0
   10.3649   12.3125   23.0707 C   0  0  0  0  0  0  0  0  0  0  0  0
    7.1691   12.0005   24.9278 C   0  0  0  0  0  0  0  0  0  0  0  0
    8.8352   10.6264   23.9617 C   0  0  0  0  0  0  0  0  0  0  0  0
   12.4770   15.3573   22.7965 C   0  0  0  0  0  0  0  0  0  0  0  0
    9.1402   14.3807   23.7730 C   0  0  0  0  0  0  0  0  0  0  0  0
   11.4868   13.0503   22.4120 C   0  0  0  0  0  0  0  0  0  0  0  0
   13.0267   15.8632   17.7596 C   0  0  0  0  0  0  0  0  0  0  0  0
   11.8155   15.7505   18.6977 C   0  0  0  0  0  0  0  0  0  0  0  0
   13.4132   17.1931   19.6954 C   0  0  0  0  0  0  0  0  0  0  0  0
   14.5570   15.1093   19.5984 C   0  0  0  0  0  0  0  0  0  0  0  0
   10.0190   15.0668   22.7206 C   0  0  0  0  0  0  0  0  0  0  0  0
   14.1580   16.2989   18.7063 C   0  0  1  0  0  0  0  0  0  0  0  0
   12.4119   16.0996   20.0743 C   0  0  2  0  0  0  0  0  0  0  0  0
   13.3279   14.9330   20.5160 C   0  0  2  0  0  0  0  0  0  0  0  0
   13.6923   14.9960   21.9790 C   0  0  0  0  0  0  0  0  0  0  0  0
    6.5210   10.8808   25.3137 N   0  0  0  0  0  0  0  0  0  0  0  0
    8.2296    9.4779   24.3212 N   0  0  0  0  0  0  0  0  0  0  0  0
   11.3790   14.4988   22.6927 N   0  0  0  0  0  0  0  0  0  0  0  0
    6.5932   13.2455   25.2431 N   0  0  0  0  0  0  0  0  0  0  0  0
   12.5048   16.3659   23.5061 O   0  0  0  0  0  0  0  0  0  0  0  0
   10.3078   10.6122   23.1042 S   0  0  0  0  0  0  0  0  0  0  0  0
    6.5449    8.8171   25.3108 H   0  0  0  0  0  0  0  0  0  0  0  0
    8.0899   14.6543   23.6154 H   0  0  0  0  0  0  0  0  0  0  0  0
    9.4393   14.7458   24.7609 H   0  0  0  0  0  0  0  0  0  0  0  0
   12.4505   12.7180   22.8146 H   0  0  0  0  0  0  0  0  0  0  0  0
   11.4777   12.8649   21.3350 H   0  0  0  0  0  0  0  0  0  0  0  0
   13.2443   14.9178   17.2528 H   0  0  0  0  0  0  0  0  0  0  0  0
   12.8407   16.6265   16.9957 H   0  0  0  0  0  0  0  0  0  0  0  0
   11.0482   16.4786   18.4109 H   0  0  0  0  0  0  0  0  0  0  0  0
   11.3646   14.7536   18.6714 H   0  0  0  0  0  0  0  0  0  0  0  0
   14.0366   17.5284   20.5297 H   0  0  0  0  0  0  0  0  0  0  0  0
   12.9434   18.0617   19.2215 H   0  0  0  0  0  0  0  0  0  0  0  0
   14.7580   14.2058   19.0133 H   0  0  0  0  0  0  0  0  0  0  0  0
   15.4592   15.3485   20.1732 H   0  0  0  0  0  0  0  0  0  0  0  0
    9.5417   14.9956   21.7383 H   0  0  0  0  0  0  0  0  0  0  0  0
   10.1292   16.1342   22.9509 H   0  0  0  0  0  0  0  0  0  0  0  0
   15.0031   16.7630   18.1940 H   0  0  0  0  0  0  0  0  0  0  0  0
   11.6590   16.3862   20.8117 H   0  0  0  0  0  0  0  0  0  0  0  0
   12.8458   13.9663   20.3262 H   0  0  0  0  0  0  0  0  0  0  0  0
   14.4530   15.7522   22.1657 H   0  0  0  0  0  0  0  0  0  0  0  0
   14.0493   14.0319   22.3378 H   0  0  0  0  0  0  0  0  0  0  0  0
    7.0786   14.0867   24.9991 H   0  0  0  0  0  0  0  0  0  0  0  0
    5.7542   13.2737   25.7891 H   0  0  0  0  0  0  0  0  0  0  0  0
  1 19  2  0  0  0  0
  1 20  1  0  0  0  0
  2  3  1  0  0  0  0
  2  5  2  0  0  0  0
  2  6  1  0  0  0  0
  3  4  2  0  0  0  0
  3  8  1  0  0  0  0
  4  9  1  0  0  0  0
  4 24  1  0  0  0  0
  5 19  1  0  0  0  0
  5 22  1  0  0  0  0
  6 20  2  0  0  0  0
  6 24  1  0  0  0  0
  7 18  1  0  0  0  0
  7 21  1  0  0  0  0
  7 23  2  0  0  0  0
  8 14  1  0  0  0  0
  9 21  1  0  0  0  0
 10 11  1  0  0  0  0
 10 15  1  0  0  0  0
 11 16  1  0  0  0  0
 12 15  1  0  0  0  0
 12 16  1  0  0  0  0
 13 15  1  0  0  0  0
 13 17  1  0  0  0  0
 14 21  1  0  0  0  0
 16 17  1  0  0  0  0
 17 18  1  0  0  0  0
  1 25  1  0  0  0  0
  8 26  1  0  0  0  0
  8 27  1  0  0  0  0
  9 28  1  0  0  0  0
  9 29  1  0  0  0  0
 10 30  1  0  0  0  0
 10 31  1  0  0  0  0
 11 32  1  0  0  0  0
 11 33  1  0  0  0  0
 12 34  1  0  0  0  0
 12 35  1  0  0  0  0
 13 36  1  0  0  0  0
 13 37  1  0  0  0  0
 14 38  1  0  0  0  0
 14 39  1  0  0  0  0
 15 40  1  0  0  0  0
 16 41  1  0  0  0  0
 17 42  1  0  0  0  0
 18 43  1  0  0  0  0
 18 44  1  0  0  0  0
 22 45  1  0  0  0  0
 22 46  1  0  0  0  0
M  END
> <Catalog ID>
Z168753950

> <PlateID>
1041831-R-11

> <Well>
C10

> <MW (desalted)>
342.458

> <ClogP>
2.317

> <HBD>
1

> <TPSA>
72.110

> <RotBonds>
2

> <ROCS_ShapeQuery>
A71EV2A-x0451_0A_A71EV2A-x0310_0A_A71EV2A-x0416_0A_peptide

> <ROCS_TanimotoCombo>
0.544 

> <ROCS_ShapeTanimoto>
0.348 

> <ROCS_ColorTanimoto>
0.196 

> <ROCS_RefTversky>
0.311 

> <ROCS_RefColorTversky>
0.245 

> <ROCS_RefTverskyCombo>
0.555 

> <ROCS_FitTversky>
1.533 

> <ROCS_FitColorTversky>
0.496 

> <ROCS_FitTverskyCombo>
2.029 

> <ROCS_ColorScore>
-7.549

> <ROCS_Overlap>
2159.000

> <ROCS_Rank>
119                 

$$$$
untitled-dbase-676_139
  -OEChem-11132311063D

 47 50  0     1  0  0  0  0  0999 V2000
    4.9149   13.6976   28.1630 C   0  0  0  0  0  0  0  0  0  0  0  0
    4.4598   12.3809   28.0946 C   0  0  0  0  0  0  0  0  0  0  0  0
    6.1606   14.0335   27.6328 C   0  0  0  0  0  0  0  0  0  0  0  0
    5.2504   11.4000   27.4959 C   0  0  0  0  0  0  0  0  0  0  0  0
    6.9512   13.0526   27.0342 C   0  0  0  0  0  0  0  0  0  0  0  0
   12.2992   14.9029   21.2390 C   0  0  0  0  0  0  0  0  0  0  0  0
    6.4962   11.7358   26.9657 C   0  0  0  0  0  0  0  0  0  0  0  0
   11.7976   15.0376   22.5166 C   0  0  0  0  0  0  0  0  0  0  0  0
   12.9437   16.9047   22.4137 C   0  0  0  0  0  0  0  0  0  0  0  0
   10.9127   14.0369   23.1667 C   0  0  0  0  0  0  0  0  0  0  0  0
    7.4125   10.0309   23.3653 C   0  0  0  0  0  0  0  0  0  0  0  0
    8.6205    9.2950   23.9497 C   0  0  0  0  0  0  0  0  0  0  0  0
    8.3157   12.4056   23.1557 C   0  0  0  0  0  0  0  0  0  0  0  0
   10.3273   11.1805   24.1291 C   0  0  0  0  0  0  0  0  0  0  0  0
    7.4681   11.4266   23.9962 C   0  0  2  0  0  0  0  0  0  0  0  0
    9.2861   10.3191   24.8756 C   0  0  1  0  0  0  0  0  0  0  0  0
    9.7338   11.8723   22.8892 C   0  0  0  0  0  0  0  0  0  0  0  0
   13.5349   18.2060   22.7944 C   0  0  0  0  0  0  0  0  0  0  0  0
    7.3478   10.6804   26.3215 C   0  0  0  0  0  0  0  0  0  0  0  0
   12.1664   16.1847   23.1919 N   0  0  0  0  0  0  0  0  0  0  0  0
    8.1937   11.2302   25.2650 N   0  0  0  0  0  0  0  0  0  0  0  0
   10.6000   12.9192   22.4070 N   0  0  0  0  0  0  0  0  0  0  0  0
   10.4973   14.2514   24.3025 O   0  0  0  0  0  0  0  0  0  0  0  0
   13.2719   16.2626   20.8565 S   0  0  0  0  0  0  0  0  0  0  0  0
    4.2986   14.4616   28.6280 H   0  0  0  0  0  0  0  0  0  0  0  0
    3.4894   12.1194   28.5064 H   0  0  0  0  0  0  0  0  0  0  0  0
    6.5148   15.0588   27.6849 H   0  0  0  0  0  0  0  0  0  0  0  0
    4.8878   10.3766   27.4473 H   0  0  0  0  0  0  0  0  0  0  0  0
    7.9205   13.3234   26.6238 H   0  0  0  0  0  0  0  0  0  0  0  0
   12.1484   14.1001   20.5309 H   0  0  0  0  0  0  0  0  0  0  0  0
    7.4416   10.0587   22.2712 H   0  0  0  0  0  0  0  0  0  0  0  0
    6.4923    9.5111   23.6571 H   0  0  0  0  0  0  0  0  0  0  0  0
    8.2762    8.4242   24.5204 H   0  0  0  0  0  0  0  0  0  0  0  0
    9.2938    8.9300   23.1672 H   0  0  0  0  0  0  0  0  0  0  0  0
    7.8132   12.6036   22.2007 H   0  0  0  0  0  0  0  0  0  0  0  0
    8.3732   13.3651   23.6880 H   0  0  0  0  0  0  0  0  0  0  0  0
   10.7205   11.9356   24.8238 H   0  0  0  0  0  0  0  0  0  0  0  0
   11.1771   10.5551   23.8279 H   0  0  0  0  0  0  0  0  0  0  0  0
    6.4693   11.8541   24.1392 H   0  0  0  0  0  0  0  0  0  0  0  0
    9.7701    9.8433   25.7359 H   0  0  0  0  0  0  0  0  0  0  0  0
    9.6839   11.1425   22.0720 H   0  0  0  0  0  0  0  0  0  0  0  0
   14.5177   18.0680   23.2715 H   0  0  0  0  0  0  0  0  0  0  0  0
   13.6726   18.8655   21.9221 H   0  0  0  0  0  0  0  0  0  0  0  0
   12.8920   18.7587   23.4989 H   0  0  0  0  0  0  0  0  0  0  0  0
    7.9997   10.2049   27.0624 H   0  0  0  0  0  0  0  0  0  0  0  0
    6.7293    9.8924   25.8791 H   0  0  0  0  0  0  0  0  0  0  0  0
   10.9322   12.8427   21.4499 H   0  0  0  0  0  0  0  0  0  0  0  0
  1  2  2  0  0  0  0
  1  3  1  0  0  0  0
  2  4  1  0  0  0  0
  3  5  2  0  0  0  0
  4  7  2  0  0  0  0
  5  7  1  0  0  0  0
  6  8  2  0  0  0  0
  6 24  1  0  0  0  0
  7 19  1  0  0  0  0
  8 10  1  0  0  0  0
  8 20  1  0  0  0  0
  9 18  1  0  0  0  0
  9 20  2  0  0  0  0
  9 24  1  0  0  0  0
 10 22  1  0  0  0  0
 10 23  2  0  0  0  0
 11 12  1  0  0  0  0
 11 15  1  0  0  0  0
 12 16  1  0  0  0  0
 13 15  1  0  0  0  0
 13 17  1  0  0  0  0
 14 16  1  0  0  0  0
 14 17  1  0  0  0  0
 15 21  1  0  0  0  0
 16 21  1  0  0  0  0
 17 22  1  0  0  0  0
 19 21  1  0  0  0  0
  1 25  1  0  0  0  0
  2 26  1  0  0  0  0
  3 27  1  0  0  0  0
  4 28  1  0  0  0  0
  5 29  1  0  0  0  0
  6 30  1  0  0  0  0
 11 31  1  0  0  0  0
 11 32  1  0  0  0  0
 12 33  1  0  0  0  0
 12 34  1  0  0  0  0
 13 35  1  0  0  0  0
 13 36  1  0  0  0  0
 14 37  1  0  0  0  0
 14 38  1  0  0  0  0
 15 39  1  0  0  0  0
 16 40  1  0  0  0  0
 17 41  1  0  0  0  0
 18 42  1  0  0  0  0
 18 43  1  0  0  0  0
 18 44  1  0  0  0  0
 19 45  1  0  0  0  0
 19 46  1  0  0  0  0
 22 47  1  0  0  0  0
M  END
> <Catalog ID>
Z1173262640

> <PlateID>
1041831-R-09

> <Well>
D07

> <MW (desalted)>
341.470

> <ClogP>
2.974

> <HBD>
1

> <TPSA>
45.230

> <RotBonds>
4

> <ROCS_ShapeQuery>
A71EV2A-x0451_0A_A71EV2A-x0310_0A_A71EV2A-x0416_0A_peptide

> <ROCS_TanimotoCombo>
0.544 

> <ROCS_ShapeTanimoto>
0.319 

> <ROCS_ColorTanimoto>
0.225 

> <ROCS_RefTversky>
0.290 

> <ROCS_RefColorTversky>
0.261 

> <ROCS_RefTverskyCombo>
0.551 

> <ROCS_FitTversky>
1.456 

> <ROCS_FitColorTversky>
0.625 

> <ROCS_FitTverskyCombo>
2.081 

> <ROCS_ColorScore>
-8.008

> <ROCS_Overlap>
2014.144

> <ROCS_Rank>
120                 

$$$$
untitled-dbase-2291_2520
  -OEChem-11132311063D

 41 43  0     0  0  0  0  0  0999 V2000
    7.1532    9.8724   26.0178 C   0  0  0  0  0  0  0  0  0  0  0  0
    6.2984   10.8095   26.6052 C   0  0  0  0  0  0  0  0  0  0  0  0
    7.0655   12.5450   25.0897 C   0  0  0  0  0  0  0  0  0  0  0  0
    9.4385   10.4454   23.2673 C   0  0  0  0  0  0  0  0  0  0  0  0
    7.9353   11.6180   24.4819 C   0  0  0  0  0  0  0  0  0  0  0  0
    8.8736   11.6913   23.4146 C   0  0  0  0  0  0  0  0  0  0  0  0
    7.9591   10.3057   24.9590 C   0  0  0  0  0  0  0  0  0  0  0  0
    6.2536   12.1257   26.1499 C   0  0  0  0  0  0  0  0  0  0  0  0
   10.5134   13.5597   22.9702 C   0  0  0  0  0  0  0  0  0  0  0  0
   11.6804   15.9897   20.4927 C   0  0  0  0  0  0  0  0  0  0  0  0
   14.0207   16.2735   21.3452 C   0  0  0  0  0  0  0  0  0  0  0  0
   12.2889   15.5976   19.1519 C   0  0  0  0  0  0  0  0  0  0  0  0
   14.5033   15.8673   19.9581 C   0  0  0  0  0  0  0  0  0  0  0  0
   12.6324   15.7012   21.6624 C   0  0  0  0  0  0  0  0  0  0  0  0
    9.1985   12.9075   22.5884 C   0  0  0  0  0  0  0  0  0  0  0  0
   12.7007   14.2050   21.9856 C   0  0  0  0  0  0  0  0  0  0  0  0
    8.8803    9.6164   24.2031 N   0  0  0  0  0  0  0  0  0  0  0  0
   11.4005   13.6327   21.8912 N   0  0  0  0  0  0  0  0  0  0  0  0
   10.7608   13.9769   24.0988 O   0  0  0  0  0  0  0  0  0  0  0  0
   13.5501   16.2381   18.9625 O   0  0  0  0  0  0  0  0  0  0  0  0
   12.1420   16.3680   22.8286 O   0  0  0  0  0  0  0  0  0  0  0  0
    5.1878   13.2522   26.9008 Cl  0  0  0  0  0  0  0  0  0  0  0  0
    7.1868    8.8476   26.3721 H   0  0  0  0  0  0  0  0  0  0  0  0
    5.6638   10.4904   27.4295 H   0  0  0  0  0  0  0  0  0  0  0  0
    7.0305   13.5720   24.7360 H   0  0  0  0  0  0  0  0  0  0  0  0
   10.1870   10.0728   22.5816 H   0  0  0  0  0  0  0  0  0  0  0  0
   11.4135   17.0563   20.4655 H   0  0  0  0  0  0  0  0  0  0  0  0
   10.7505   15.4187   20.6366 H   0  0  0  0  0  0  0  0  0  0  0  0
   14.7415   15.9022   22.0905 H   0  0  0  0  0  0  0  0  0  0  0  0
   14.0141   17.3717   21.4126 H   0  0  0  0  0  0  0  0  0  0  0  0
   12.4581   14.5163   19.1236 H   0  0  0  0  0  0  0  0  0  0  0  0
   11.6240   15.8469   18.3163 H   0  0  0  0  0  0  0  0  0  0  0  0
   15.4747   16.3167   19.7192 H   0  0  0  0  0  0  0  0  0  0  0  0
   14.6257   14.7801   19.9115 H   0  0  0  0  0  0  0  0  0  0  0  0
    9.2357   12.6316   21.5268 H   0  0  0  0  0  0  0  0  0  0  0  0
    8.3966   13.6497   22.6902 H   0  0  0  0  0  0  0  0  0  0  0  0
   13.3744   13.7501   21.2620 H   0  0  0  0  0  0  0  0  0  0  0  0
   13.0890   14.1121   22.9981 H   0  0  0  0  0  0  0  0  0  0  0  0
    9.1107    8.6397   24.3226 H   0  0  0  0  0  0  0  0  0  0  0  0
   11.0991   13.2551   20.9866 H   0  0  0  0  0  0  0  0  0  0  0  0
   11.2587   16.0081   22.9949 H   0  0  0  0  0  0  0  0  0  0  0  0
  1  2  1  0  0  0  0
  1  7  2  0  0  0  0
  2  8  2  0  0  0  0
  3  5  2  0  0  0  0
  3  8  1  0  0  0  0
  4  6  2  0  0  0  0
  4 17  1  0  0  0  0
  5  6  1  0  0  0  0
  5  7  1  0  0  0  0
  6 15  1  0  0  0  0
  7 17  1  0  0  0  0
  8 22  1  0  0  0  0
  9 15  1  0  0  0  0
  9 18  1  0  0  0  0
  9 19  2  0  0  0  0
 10 12  1  0  0  0  0
 10 14  1  0  0  0  0
 11 13  1  0  0  0  0
 11 14  1  0  0  0  0
 12 20  1  0  0  0  0
 13 20  1  0  0  0  0
 14 16  1  0  0  0  0
 14 21  1  0  0  0  0
 16 18  1  0  0  0  0
  1 23  1  0  0  0  0
  2 24  1  0  0  0  0
  3 25  1  0  0  0  0
  4 26  1  0  0  0  0
 10 27  1  0  0  0  0
 10 28  1  0  0  0  0
 11 29  1  0  0  0  0
 11 30  1  0  0  0  0
 12 31  1  0  0  0  0
 12 32  1  0  0  0  0
 13 33  1  0  0  0  0
 13 34  1  0  0  0  0
 15 35  1  0  0  0  0
 15 36  1  0  0  0  0
 16 37  1  0  0  0  0
 16 38  1  0  0  0  0
 17 39  1  0  0  0  0
 18 40  1  0  0  0  0
 21 41  1  0  0  0  0
M  END
> <Catalog ID>
Z1286190803

> <PlateID>
1041831-R-29

> <Well>
F02

> <MW (desalted)>
322.787

> <ClogP>
0.804

> <HBD>
3

> <TPSA>
74.350

> <RotBonds>
4

> <ROCS_ShapeQuery>
A71EV2A-x0451_0A_A71EV2A-x0310_0A_A71EV2A-x0416_0A_peptide

> <ROCS_TanimotoCombo>
0.544 

> <ROCS_ShapeTanimoto>
0.338 

> <ROCS_ColorTanimoto>
0.206 

> <ROCS_RefTversky>
0.300 

> <ROCS_RefColorTversky>
0.227 

> <ROCS_RefTverskyCombo>
0.527 

> <ROCS_FitTversky>
1.606 

> <ROCS_FitColorTversky>
0.684 

> <ROCS_FitTverskyCombo>
2.291 

> <ROCS_ColorScore>
-6.949

> <ROCS_Overlap>
2083.129

> <ROCS_Rank>
121                 

$$$$
untitled-dbase-595_6398
  -OEChem-11132311063D

 42 45  0     0  0  0  0  0  0999 V2000
    8.0413   12.6563   24.7256 C   0  0  0  0  0  0  0  0  0  0  0  0
    6.7589   12.6111   25.2845 C   0  0  0  0  0  0  0  0  0  0  0  0
    6.7301   10.1848   25.1552 C   0  0  0  0  0  0  0  0  0  0  0  0
   10.0156    9.7590   23.6922 C   0  0  0  0  0  0  0  0  0  0  0  0
    8.6811   11.4509   24.3750 C   0  0  0  0  0  0  0  0  0  0  0  0
    9.9437   11.1284   23.8034 C   0  0  0  0  0  0  0  0  0  0  0  0
    8.0121   10.2454   24.5975 C   0  0  0  0  0  0  0  0  0  0  0  0
    6.1153   11.3932   25.4952 C   0  0  0  0  0  0  0  0  0  0  0  0
   13.5939   16.3730   20.7660 C   0  0  0  0  0  0  0  0  0  0  0  0
   11.6598   15.8329   21.6076 C   0  0  0  0  0  0  0  0  0  0  0  0
   10.5326   13.5451   23.3279 C   0  0  0  0  0  0  0  0  0  0  0  0
   14.4091   16.5604   19.5562 C   0  0  0  0  0  0  0  0  0  0  0  0
   13.5205   15.8767   18.4796 C   0  0  0  0  0  0  0  0  0  0  0  0
   12.0838   15.8664   19.0442 C   0  0  0  0  0  0  0  0  0  0  0  0
    9.4461   13.1436   21.1040 C   0  0  0  0  0  0  0  0  0  0  0  0
   10.9953   12.0838   23.3989 C   0  0  0  0  0  0  0  0  0  0  0  0
   10.2217   15.4087   21.6839 C   0  0  0  0  0  0  0  0  0  0  0  0
   13.7290   16.4539   22.0637 N   0  0  0  0  0  0  0  0  0  0  0  0
   12.4855   16.1073   22.6046 N   0  0  0  0  0  0  0  0  0  0  0  0
    8.8458    9.2352   24.1734 N   0  0  0  0  0  0  0  0  0  0  0  0
   12.3268   15.9993   20.4606 N   0  0  0  0  0  0  0  0  0  0  0  0
   10.0848   14.0148   22.0879 N   0  0  0  0  0  0  0  0  0  0  0  0
   10.5688   14.2458   24.3433 O   0  0  0  0  0  0  0  0  0  0  0  0
    4.5366   11.3742   26.1867 Cl  0  0  0  0  0  0  0  0  0  0  0  0
    8.5288   13.6138   24.5661 H   0  0  0  0  0  0  0  0  0  0  0  0
    6.2728   13.5469   25.5520 H   0  0  0  0  0  0  0  0  0  0  0  0
    6.2385    9.2301   25.3146 H   0  0  0  0  0  0  0  0  0  0  0  0
   10.7929    9.1088   23.3154 H   0  0  0  0  0  0  0  0  0  0  0  0
   14.5333   17.6251   19.3355 H   0  0  0  0  0  0  0  0  0  0  0  0
   15.3907   16.0851   19.6252 H   0  0  0  0  0  0  0  0  0  0  0  0
   13.5854   16.3735   17.5068 H   0  0  0  0  0  0  0  0  0  0  0  0
   13.8592   14.8414   18.3413 H   0  0  0  0  0  0  0  0  0  0  0  0
   11.5048   16.7351   18.7188 H   0  0  0  0  0  0  0  0  0  0  0  0
   11.5535   14.9332   18.8420 H   0  0  0  0  0  0  0  0  0  0  0  0
    8.3589   13.1358   21.2713 H   0  0  0  0  0  0  0  0  0  0  0  0
    9.6584   13.5169   20.0913 H   0  0  0  0  0  0  0  0  0  0  0  0
    9.8403   12.1220   21.2083 H   0  0  0  0  0  0  0  0  0  0  0  0
   11.4001   11.8144   22.4041 H   0  0  0  0  0  0  0  0  0  0  0  0
   11.8493   12.0371   24.1022 H   0  0  0  0  0  0  0  0  0  0  0  0
    9.6753   16.0245   22.4067 H   0  0  0  0  0  0  0  0  0  0  0  0
    9.7252   15.5268   20.7151 H   0  0  0  0  0  0  0  0  0  0  0  0
    8.6263    8.2495   24.2137 H   0  0  0  0  0  0  0  0  0  0  0  0
  1  2  1  0  0  0  0
  1  5  2  0  0  0  0
  2  8  2  0  0  0  0
  3  7  2  0  0  0  0
  3  8  1  0  0  0  0
  4  6  2  0  0  0  0
  4 20  1  0  0  0  0
  5  6  1  0  0  0  0
  5  7  1  0  0  0  0
  6 16  1  0  0  0  0
  7 20  1  0  0  0  0
  8 24  1  0  0  0  0
  9 12  1  0  0  0  0
  9 18  2  0  0  0  0
  9 21  1  0  0  0  0
 10 17  1  0  0  0  0
 10 19  2  0  0  0  0
 10 21  1  0  0  0  0
 11 16  1  0  0  0  0
 11 22  1  0  0  0  0
 11 23  2  0  0  0  0
 12 13  1  0  0  0  0
 13 14  1  0  0  0  0
 14 21  1  0  0  0  0
 15 22  1  0  0  0  0
 17 22  1  0  0  0  0
 18 19  1  0  0  0  0
  1 25  1  0  0  0  0
  2 26  1  0  0  0  0
  3 27  1  0  0  0  0
  4 28  1  0  0  0  0
 12 29  1  0  0  0  0
 12 30  1  0  0  0  0
 13 31  1  0  0  0  0
 13 32  1  0  0  0  0
 14 33  1  0  0  0  0
 14 34  1  0  0  0  0
 15 35  1  0  0  0  0
 15 36  1  0  0  0  0
 15 37  1  0  0  0  0
 16 38  1  0  0  0  0
 16 39  1  0  0  0  0
 17 40  1  0  0  0  0
 17 41  1  0  0  0  0
 20 42  1  0  0  0  0
M  END
> <Catalog ID>
Z1081529544

> <PlateID>
1041831-R-08

> <Well>
D06

> <MW (desalted)>
343.811

> <ClogP>
0.586

> <HBD>
1

> <TPSA>
66.810

> <RotBonds>
4

> <ROCS_ShapeQuery>
A71EV2A-x0451_0A_A71EV2A-x0310_0A_A71EV2A-x0416_0A_peptide

> <ROCS_TanimotoCombo>
0.544 

> <ROCS_ShapeTanimoto>
0.358 

> <ROCS_ColorTanimoto>
0.186 

> <ROCS_RefTversky>
0.317 

> <ROCS_RefColorTversky>
0.206 

> <ROCS_RefTverskyCombo>
0.523 

> <ROCS_FitTversky>
1.558 

> <ROCS_FitColorTversky>
0.660 

> <ROCS_FitTverskyCombo>
2.218 

> <ROCS_ColorScore>
-6.287

> <ROCS_Overlap>
2204.503

> <ROCS_Rank>
122                 

$$$$
untitled-dbase-217_50
  -OEChem-11132311063D

 43 46  0     1  0  0  0  0  0999 V2000
    7.0426   10.2813   25.2918 C   0  0  0  0  0  0  0  0  0  0  0  0
    6.3840   11.3478   25.8969 C   0  0  0  0  0  0  0  0  0  0  0  0
    8.0464   12.8714   25.0154 C   0  0  0  0  0  0  0  0  0  0  0  0
    8.7239   11.8109   24.3995 C   0  0  0  0  0  0  0  0  0  0  0  0
    8.2044   10.5152   24.5491 C   0  0  0  0  0  0  0  0  0  0  0  0
    6.8847   12.6400   25.7587 C   0  0  0  0  0  0  0  0  0  0  0  0
   10.5505   10.9233   23.0414 C   0  0  0  0  0  0  0  0  0  0  0  0
    9.9502   11.9823   23.6052 C   0  0  0  0  0  0  0  0  0  0  0  0
   10.0058    9.5478   23.1959 C   0  0  0  0  0  0  0  0  0  0  0  0
   10.6205   13.2747   23.3563 C   0  0  0  0  0  0  0  0  0  0  0  0
   13.8727   16.9456   19.7327 C   0  0  0  0  0  0  0  0  0  0  0  0
   13.8691   16.0340   20.9579 C   0  0  0  0  0  0  0  0  0  0  0  0
   11.0495   13.7253   19.7046 C   0  0  0  0  0  0  0  0  0  0  0  0
   10.9981   12.7584   20.8867 C   0  0  0  0  0  0  0  0  0  0  0  0
   12.5530   14.2257   22.1613 C   0  0  0  0  0  0  0  0  0  0  0  0
   13.5460   16.1628   18.4659 C   0  0  0  0  0  0  0  0  0  0  0  0
   12.5691   15.2266   21.0069 C   0  0  2  0  0  0  0  0  0  0  0  0
   12.3606   14.5047   19.6709 C   0  0  2  0  0  0  0  0  0  0  0  0
    8.8566    9.4256   23.9458 N   0  0  0  0  0  0  0  0  0  0  0  0
   11.3228   13.4229   22.1604 N   0  0  0  0  0  0  0  0  0  0  0  0
   10.5795    8.5977   22.6674 O   0  0  0  0  0  0  0  0  0  0  0  0
   10.5231   14.1425   24.2256 O   0  0  0  0  0  0  0  0  0  0  0  0
   12.3137   15.4527   18.6021 O   0  0  0  0  0  0  0  0  0  0  0  0
    6.0689   13.9589   26.5079 Cl  0  0  0  0  0  0  0  0  0  0  0  0
    6.6457    9.2758   25.4042 H   0  0  0  0  0  0  0  0  0  0  0  0
    5.4817   11.1571   26.4724 H   0  0  0  0  0  0  0  0  0  0  0  0
    8.4120   13.8908   24.9264 H   0  0  0  0  0  0  0  0  0  0  0  0
   11.4566   11.0111   22.4493 H   0  0  0  0  0  0  0  0  0  0  0  0
   13.1135   17.7243   19.8765 H   0  0  0  0  0  0  0  0  0  0  0  0
   14.8424   17.4442   19.6322 H   0  0  0  0  0  0  0  0  0  0  0  0
   14.7315   15.3573   20.9100 H   0  0  0  0  0  0  0  0  0  0  0  0
   13.9817   16.6336   21.8684 H   0  0  0  0  0  0  0  0  0  0  0  0
   10.9231   13.1745   18.7647 H   0  0  0  0  0  0  0  0  0  0  0  0
   10.2028   14.4225   19.7555 H   0  0  0  0  0  0  0  0  0  0  0  0
   10.0059   12.3048   20.9090 H   0  0  0  0  0  0  0  0  0  0  0  0
   11.7301   11.9535   20.7520 H   0  0  0  0  0  0  0  0  0  0  0  0
   13.3908   13.5222   22.0772 H   0  0  0  0  0  0  0  0  0  0  0  0
   12.6706   14.7516   23.1147 H   0  0  0  0  0  0  0  0  0  0  0  0
   13.4425   16.8504   17.6205 H   0  0  0  0  0  0  0  0  0  0  0  0
   14.3469   15.4556   18.2199 H   0  0  0  0  0  0  0  0  0  0  0  0
   11.7486   15.9445   21.1534 H   0  0  0  0  0  0  0  0  0  0  0  0
   13.1822   13.8008   19.4783 H   0  0  0  0  0  0  0  0  0  0  0  0
    8.4562    8.5003   24.0727 H   0  0  0  0  0  0  0  0  0  0  0  0
  1  2  1  0  0  0  0
  1  5  2  0  0  0  0
  2  6  2  0  0  0  0
  3  4  2  0  0  0  0
  3  6  1  0  0  0  0
  4  5  1  0  0  0  0
  4  8  1  0  0  0  0
  5 19  1  0  0  0  0
  6 24  1  0  0  0  0
  7  8  2  0  0  0  0
  7  9  1  0  0  0  0
  8 10  1  0  0  0  0
  9 19  1  0  0  0  0
  9 21  2  0  0  0  0
 10 20  1  0  0  0  0
 10 22  2  0  0  0  0
 11 12  1  0  0  0  0
 11 16  1  0  0  0  0
 12 17  1  0  0  0  0
 13 14  1  0  0  0  0
 13 18  1  0  0  0  0
 14 20  1  0  0  0  0
 15 17  1  0  0  0  0
 15 20  1  0  0  0  0
 16 23  1  0  0  0  0
 17 18  1  0  0  0  0
 18 23  1  0  0  0  0
  1 25  1  0  0  0  0
  2 26  1  0  0  0  0
  3 27  1  0  0  0  0
  7 28  1  0  0  0  0
 11 29  1  0  0  0  0
 11 30  1  0  0  0  0
 12 31  1  0  0  0  0
 12 32  1  0  0  0  0
 13 33  1  0  0  0  0
 13 34  1  0  0  0  0
 14 35  1  0  0  0  0
 14 36  1  0  0  0  0
 15 37  1  0  0  0  0
 15 38  1  0  0  0  0
 16 39  1  0  0  0  0
 16 40  1  0  0  0  0
 17 41  1  0  0  0  0
 18 42  1  0  0  0  0
 19 43  1  0  0  0  0
M  END
> <Catalog ID>
Z1454352131

> <PlateID>
1041831-R-03

> <Well>
F08

> <MW (desalted)>
346.808

> <ClogP>
1.222

> <HBD>
1

> <TPSA>
58.640

> <RotBonds>
1

> <ROCS_ShapeQuery>
A71EV2A-x0451_0A_A71EV2A-x0310_0A_A71EV2A-x0416_0A_peptide

> <ROCS_TanimotoCombo>
0.544 

> <ROCS_ShapeTanimoto>
0.380 

> <ROCS_ColorTanimoto>
0.164 

> <ROCS_RefTversky>
0.330 

> <ROCS_RefColorTversky>
0.183 

> <ROCS_RefTverskyCombo>
0.514 

> <ROCS_FitTversky>
1.645 

> <ROCS_FitColorTversky>
0.609 

> <ROCS_FitTverskyCombo>
2.254 

> <ROCS_ColorScore>
-5.598

> <ROCS_Overlap>
2296.566

> <ROCS_Rank>
123                 

$$$$
untitled-dbase-1072_4582
  -OEChem-11132311063D

 44 47  0     0  0  0  0  0  0999 V2000
    4.5442   13.3767   28.4579 C   0  0  0  0  0  0  0  0  0  0  0  0
    4.2518   13.5027   27.0999 C   0  0  0  0  0  0  0  0  0  0  0  0
    5.7319   12.7668   28.8619 C   0  0  0  0  0  0  0  0  0  0  0  0
    9.0775   16.6303   20.6159 C   0  0  0  0  0  0  0  0  0  0  0  0
    5.1470   13.0188   26.1459 C   0  0  0  0  0  0  0  0  0  0  0  0
    6.6271   12.2829   27.9079 C   0  0  0  0  0  0  0  0  0  0  0  0
    9.6290   15.5455   21.2884 C   0  0  0  0  0  0  0  0  0  0  0  0
    9.8693   17.2899   19.6897 C   0  0  0  0  0  0  0  0  0  0  0  0
   11.6454   15.8841   20.0736 C   0  0  0  0  0  0  0  0  0  0  0  0
    9.7834   10.4355   22.7940 C   0  0  0  0  0  0  0  0  0  0  0  0
    6.3346   12.4088   26.5499 C   0  0  0  0  0  0  0  0  0  0  0  0
   10.9369   15.1588   21.0180 C   0  0  0  0  0  0  0  0  0  0  0  0
    8.2917    9.0985   23.5155 C   0  0  0  0  0  0  0  0  0  0  0  0
    8.0787   10.2791   24.1926 C   0  0  0  0  0  0  0  0  0  0  0  0
    8.3051   12.8955   25.0978 C   0  0  0  0  0  0  0  0  0  0  0  0
    7.2705   11.9028   25.5524 C   0  0  0  0  0  0  0  0  0  0  0  0
    9.1676   12.4472   24.1723 C   0  0  0  0  0  0  0  0  0  0  0  0
    7.5363    7.8904   23.6587 C   0  0  0  0  0  0  0  0  0  0  0  0
   10.1819   13.4004   23.7110 C   0  0  0  0  0  0  0  0  0  0  0  0
   11.5606   13.9915   21.7268 C   0  0  0  0  0  0  0  0  0  0  0  0
   11.1435   16.9435   19.4002 N   0  0  0  0  0  0  0  0  0  0  0  0
    9.3489    9.2030   22.6510 N   0  0  0  0  0  0  0  0  0  0  0  0
    7.1766   10.6723   25.1305 N   0  0  0  0  0  0  0  0  0  0  0  0
    9.0520   11.1403   23.7172 N   0  0  0  0  0  0  0  0  0  0  0  0
    7.8971    6.7788   22.8836 N   0  0  0  0  0  0  0  0  0  0  0  0
   10.5744   13.1793   22.4027 N   0  0  0  0  0  0  0  0  0  0  0  0
    6.5571    7.8003   24.4391 O   0  0  0  0  0  0  0  0  0  0  0  0
   10.6020   14.2864   24.4541 O   0  0  0  0  0  0  0  0  0  0  0  0
    3.8472   13.7535   29.2006 H   0  0  0  0  0  0  0  0  0  0  0  0
    3.3269   13.9774   26.7854 H   0  0  0  0  0  0  0  0  0  0  0  0
    5.9597   12.6690   29.9193 H   0  0  0  0  0  0  0  0  0  0  0  0
    8.0599   16.9494   20.8104 H   0  0  0  0  0  0  0  0  0  0  0  0
    4.9092   13.1222   25.0902 H   0  0  0  0  0  0  0  0  0  0  0  0
    7.5494   11.8093   28.2343 H   0  0  0  0  0  0  0  0  0  0  0  0
    9.0328   15.0077   22.0206 H   0  0  0  0  0  0  0  0  0  0  0  0
    9.4855   18.1424   19.1389 H   0  0  0  0  0  0  0  0  0  0  0  0
   12.6699   15.6291   19.8208 H   0  0  0  0  0  0  0  0  0  0  0  0
   10.6184   10.8652   22.2577 H   0  0  0  0  0  0  0  0  0  0  0  0
    8.3139   13.8955   25.5136 H   0  0  0  0  0  0  0  0  0  0  0  0
   12.0966   13.3509   21.0180 H   0  0  0  0  0  0  0  0  0  0  0  0
   12.2866   14.3279   22.4744 H   0  0  0  0  0  0  0  0  0  0  0  0
    8.6807    6.8608   22.2448 H   0  0  0  0  0  0  0  0  0  0  0  0
    7.4011    5.8951   22.9397 H   0  0  0  0  0  0  0  0  0  0  0  0
   10.1494   12.4099   21.8933 H   0  0  0  0  0  0  0  0  0  0  0  0
  1  2  2  0  0  0  0
  1  3  1  0  0  0  0
  2  5  1  0  0  0  0
  3  6  2  0  0  0  0
  4  7  1  0  0  0  0
  4  8  2  0  0  0  0
  5 11  2  0  0  0  0
  6 11  1  0  0  0  0
  7 12  2  0  0  0  0
  8 21  1  0  0  0  0
  9 12  1  0  0  0  0
  9 21  2  0  0  0  0
 10 22  2  0  0  0  0
 10 24  1  0  0  0  0
 11 16  1  0  0  0  0
 12 20  1  0  0  0  0
 13 14  2  0  0  0  0
 13 18  1  0  0  0  0
 13 22  1  0  0  0  0
 14 23  1  0  0  0  0
 14 24  1  0  0  0  0
 15 16  1  0  0  0  0
 15 17  2  0  0  0  0
 16 23  2  0  0  0  0
 17 19  1  0  0  0  0
 17 24  1  0  0  0  0
 18 25  1  0  0  0  0
 18 27  2  0  0  0  0
 19 26  1  0  0  0  0
 19 28  2  0  0  0  0
 20 26  1  0  0  0  0
  1 29  1  0  0  0  0
  2 30  1  0  0  0  0
  3 31  1  0  0  0  0
  4 32  1  0  0  0  0
  5 33  1  0  0  0  0
  6 34  1  0  0  0  0
  7 35  1  0  0  0  0
  8 36  1  0  0  0  0
  9 37  1  0  0  0  0
 10 38  1  0  0  0  0
 15 39  1  0  0  0  0
 20 40  1  0  0  0  0
 20 41  1  0  0  0  0
 25 42  1  0  0  0  0
 25 43  1  0  0  0  0
 26 44  1  0  0  0  0
M  END
> <Catalog ID>
Z242186052

> <PlateID>
1041831-R-14

> <Well>
D03

> <MW (desalted)>
372.380

> <ClogP>
2.314

> <HBD>
2

> <TPSA>
115.270

> <RotBonds>
5

> <ROCS_ShapeQuery>
A71EV2A-x0451_0A_A71EV2A-x0310_0A_A71EV2A-x0416_0A_peptide

> <ROCS_TanimotoCombo>
0.543 

> <ROCS_ShapeTanimoto>
0.381 

> <ROCS_ColorTanimoto>
0.162 

> <ROCS_RefTversky>
0.340 

> <ROCS_RefColorTversky>
0.199 

> <ROCS_RefTverskyCombo>
0.539 

> <ROCS_FitTversky>
1.470 

> <ROCS_FitColorTversky>
0.470 

> <ROCS_FitTverskyCombo>
1.940 

> <ROCS_ColorScore>
-6.108

> <ROCS_Overlap>
2365.003

> <ROCS_Rank>
124                 

$$$$
untitled-dbase-1472_45
  -OEChem-11132311063D

 42 44  0     1  0  0  0  0  0999 V2000
    7.2161   13.1387   25.8437 C   0  0  0  0  0  0  0  0  0  0  0  0
    6.3210   12.0888   25.8748 C   0  0  0  0  0  0  0  0  0  0  0  0
    8.4386   12.9888   25.1806 C   0  0  0  0  0  0  0  0  0  0  0  0
    6.6644   10.8978   25.2504 C   0  0  0  0  0  0  0  0  0  0  0  0
    8.8259   11.7913   24.5212 C   0  0  0  0  0  0  0  0  0  0  0  0
    7.9025   10.7294   24.5877 C   0  0  0  0  0  0  0  0  0  0  0  0
   10.5236   10.9246   22.8186 C   0  0  0  0  0  0  0  0  0  0  0  0
   10.8631   14.0422   23.3199 C   0  0  0  0  0  0  0  0  0  0  0  0
    9.6074    9.8155   22.4004 C   0  0  0  0  0  0  0  0  0  0  0  0
   13.3747   15.2932   20.9563 C   0  0  0  0  0  0  0  0  0  0  0  0
    9.2457    9.0109   23.6191 C   0  0  0  0  0  0  0  0  0  0  0  0
   14.3188   15.8003   19.8864 C   0  0  0  0  0  0  0  0  0  0  0  0
   12.1461   15.8937   19.0504 C   0  0  0  0  0  0  0  0  0  0  0  0
   12.1964   14.8264   20.1296 C   0  0  2  0  0  0  0  0  0  0  0  0
   11.0707   12.8391   24.2039 C   0  0  0  0  0  0  0  0  0  0  0  0
   10.9047   14.6863   20.9121 C   0  0  0  0  0  0  0  0  0  0  0  0
   10.1099   11.7877   23.8396 N   0  0  0  0  0  0  0  0  0  0  0  0
   11.0445   13.7243   21.9815 N   0  0  0  0  0  0  0  0  0  0  0  0
   11.5966   11.0437   22.2144 O   0  0  0  0  0  0  0  0  0  0  0  0
   10.5683   15.1542   23.7501 O   0  0  0  0  0  0  0  0  0  0  0  0
    7.9984    9.4537   24.1093 O   0  0  0  0  0  0  0  0  0  0  0  0
   13.5038   16.2968   18.8142 O   0  0  0  0  0  0  0  0  0  0  0  0
    6.9708   14.0819   26.3228 H   0  0  0  0  0  0  0  0  0  0  0  0
    5.3668   12.1906   26.3809 H   0  0  0  0  0  0  0  0  0  0  0  0
    9.0719   13.8730   25.1756 H   0  0  0  0  0  0  0  0  0  0  0  0
    5.9564   10.0708   25.2903 H   0  0  0  0  0  0  0  0  0  0  0  0
    8.7415   10.2344   21.8769 H   0  0  0  0  0  0  0  0  0  0  0  0
   10.1589    9.1812   21.6965 H   0  0  0  0  0  0  0  0  0  0  0  0
   13.8189   14.5064   21.5723 H   0  0  0  0  0  0  0  0  0  0  0  0
   13.0813   16.1189   21.6160 H   0  0  0  0  0  0  0  0  0  0  0  0
    9.1072    7.9632   23.3306 H   0  0  0  0  0  0  0  0  0  0  0  0
   10.0019    9.0250   24.4140 H   0  0  0  0  0  0  0  0  0  0  0  0
   14.9761   16.5956   20.2488 H   0  0  0  0  0  0  0  0  0  0  0  0
   14.9378   14.9899   19.4868 H   0  0  0  0  0  0  0  0  0  0  0  0
   11.7088   15.5253   18.1177 H   0  0  0  0  0  0  0  0  0  0  0  0
   11.5875   16.7802   19.3706 H   0  0  0  0  0  0  0  0  0  0  0  0
   12.4398   13.8602   19.6737 H   0  0  0  0  0  0  0  0  0  0  0  0
   12.0879   12.4580   24.0746 H   0  0  0  0  0  0  0  0  0  0  0  0
   10.9186   13.1175   25.2509 H   0  0  0  0  0  0  0  0  0  0  0  0
   10.6369   15.6633   21.3408 H   0  0  0  0  0  0  0  0  0  0  0  0
   10.1070   14.3534   20.2317 H   0  0  0  0  0  0  0  0  0  0  0  0
   11.2877   12.7676   21.7414 H   0  0  0  0  0  0  0  0  0  0  0  0
  1  2  2  0  0  0  0
  1  3  1  0  0  0  0
  2  4  1  0  0  0  0
  3  5  2  0  0  0  0
  4  6  2  0  0  0  0
  5  6  1  0  0  0  0
  5 17  1  0  0  0  0
  6 21  1  0  0  0  0
  7  9  1  0  0  0  0
  7 17  1  0  0  0  0
  7 19  2  0  0  0  0
  8 15  1  0  0  0  0
  8 18  1  0  0  0  0
  8 20  2  0  0  0  0
  9 11  1  0  0  0  0
 10 12  1  0  0  0  0
 10 14  1  0  0  0  0
 11 21  1  0  0  0  0
 12 22  1  0  0  0  0
 13 14  1  0  0  0  0
 13 22  1  0  0  0  0
 14 16  1  0  0  0  0
 15 17  1  0  0  0  0
 16 18  1  0  0  0  0
  1 23  1  0  0  0  0
  2 24  1  0  0  0  0
  3 25  1  0  0  0  0
  4 26  1  0  0  0  0
  9 27  1  0  0  0  0
  9 28  1  0  0  0  0
 10 29  1  0  0  0  0
 10 30  1  0  0  0  0
 11 31  1  0  0  0  0
 11 32  1  0  0  0  0
 12 33  1  0  0  0  0
 12 34  1  0  0  0  0
 13 35  1  0  0  0  0
 13 36  1  0  0  0  0
 14 37  1  0  0  0  0
 15 38  1  0  0  0  0
 15 39  1  0  0  0  0
 16 40  1  0  0  0  0
 16 41  1  0  0  0  0
 18 42  1  0  0  0  0
M  END
> <Catalog ID>
Z384361038

> <PlateID>
1041831-R-19

> <Well>
D03

> <MW (desalted)>
304.341

> <ClogP>
0.232

> <HBD>
1

> <TPSA>
67.870

> <RotBonds>
4

> <ROCS_ShapeQuery>
A71EV2A-x0451_0A_A71EV2A-x0310_0A_A71EV2A-x0416_0A_peptide

> <ROCS_TanimotoCombo>
0.543 

> <ROCS_ShapeTanimoto>
0.369 

> <ROCS_ColorTanimoto>
0.174 

> <ROCS_RefTversky>
0.320 

> <ROCS_RefColorTversky>
0.193 

> <ROCS_RefTverskyCombo>
0.513 

> <ROCS_FitTversky>
1.706 

> <ROCS_FitColorTversky>
0.641 

> <ROCS_FitTverskyCombo>
2.347 

> <ROCS_ColorScore>
-5.890

> <ROCS_Overlap>
2223.230

> <ROCS_Rank>
125                 

$$$$
untitled-dbase-3266_1304
  -OEChem-11132311063D

 46 50  0     1  0  0  0  0  0999 V2000
   11.6870   15.3036   22.3935 C   0  0  0  0  0  0  0  0  0  0  0  0
   10.8487   14.2434   22.0489 C   0  0  0  0  0  0  0  0  0  0  0  0
   12.6855   15.1209   23.3502 C   0  0  0  0  0  0  0  0  0  0  0  0
   12.0072   12.8176   23.6180 C   0  0  0  0  0  0  0  0  0  0  0  0
   15.0843   11.6392   27.6384 C   0  0  0  0  0  0  0  0  0  0  0  0
   16.9408   13.1367   27.3016 C   0  0  0  0  0  0  0  0  0  0  0  0
   11.0088   13.0004   22.6612 C   0  0  0  0  0  0  0  0  0  0  0  0
   12.8455   13.8779   23.9625 C   0  0  0  0  0  0  0  0  0  0  0  0
   15.0299   12.4173   26.5010 C   0  0  0  0  0  0  0  0  0  0  0  0
    8.5071    8.1769   22.6218 C   0  0  0  0  0  0  0  0  0  0  0  0
    9.7136    9.1157   22.8781 C   0  0  0  0  0  0  0  0  0  0  0  0
    7.6354    9.4446   22.4360 C   0  0  0  0  0  0  0  0  0  0  0  0
    7.9572   12.7123   25.1850 C   0  0  0  0  0  0  0  0  0  0  0  0
    6.6637   11.9132   25.0733 C   0  0  0  0  0  0  0  0  0  0  0  0
    9.0204   11.8568   24.5047 C   0  0  2  0  0  0  0  0  0  0  0  0
    8.9360   11.6443   22.9626 C   0  0  2  0  0  0  0  0  0  0  0  0
    8.4431   10.4303   24.7114 C   0  0  2  0  0  0  0  0  0  0  0  0
    8.6914   10.1817   23.2333 C   0  0  0  0  0  0  0  0  0  0  0  0
   13.9282   12.4036   25.4824 C   0  0  0  0  0  0  0  0  0  0  0  0
   16.0934   13.2769   26.3064 N   0  0  0  0  0  0  0  0  0  0  0  0
   10.1676   11.9378   22.3166 N   0  0  0  0  0  0  0  0  0  0  0  0
    7.0743   10.5449   25.1723 O   0  0  0  0  0  0  0  0  0  0  0  0
   13.8199   13.6998   24.8960 O   0  0  0  0  0  0  0  0  0  0  0  0
   16.5219   11.9883   28.5061 S   0  0  0  0  0  0  0  0  0  0  0  0
   11.5623   16.2716   21.9169 H   0  0  0  0  0  0  0  0  0  0  0  0
   10.0731   14.3973   21.3030 H   0  0  0  0  0  0  0  0  0  0  0  0
   13.3358   15.9504   23.6139 H   0  0  0  0  0  0  0  0  0  0  0  0
   12.1358   11.8504   24.0983 H   0  0  0  0  0  0  0  0  0  0  0  0
   14.3753   10.9045   27.9934 H   0  0  0  0  0  0  0  0  0  0  0  0
   17.8549   13.7110   27.3642 H   0  0  0  0  0  0  0  0  0  0  0  0
    8.5888    7.5253   21.7483 H   0  0  0  0  0  0  0  0  0  0  0  0
    8.2263    7.5738   23.4931 H   0  0  0  0  0  0  0  0  0  0  0  0
   10.3964    8.7954   23.6696 H   0  0  0  0  0  0  0  0  0  0  0  0
   10.2957    9.3020   21.9687 H   0  0  0  0  0  0  0  0  0  0  0  0
    7.5581    9.7663   21.3906 H   0  0  0  0  0  0  0  0  0  0  0  0
    6.6286    9.3854   22.8569 H   0  0  0  0  0  0  0  0  0  0  0  0
    7.8676   13.7100   24.7461 H   0  0  0  0  0  0  0  0  0  0  0  0
    8.2174   12.8309   26.2438 H   0  0  0  0  0  0  0  0  0  0  0  0
    5.9573   12.1529   25.8723 H   0  0  0  0  0  0  0  0  0  0  0  0
    6.1767   12.0593   24.1040 H   0  0  0  0  0  0  0  0  0  0  0  0
   10.0312   11.9993   24.9042 H   0  0  0  0  0  0  0  0  0  0  0  0
    8.1050   12.1673   22.4780 H   0  0  0  0  0  0  0  0  0  0  0  0
    9.0225    9.8061   25.3995 H   0  0  0  0  0  0  0  0  0  0  0  0
   14.1325   11.6709   24.6942 H   0  0  0  0  0  0  0  0  0  0  0  0
   12.9728   12.1391   25.9482 H   0  0  0  0  0  0  0  0  0  0  0  0
   10.4810   11.3425   21.5436 H   0  0  0  0  0  0  0  0  0  0  0  0
  1  2  2  0  0  0  0
  1  3  1  0  0  0  0
  2  7  1  0  0  0  0
  3  8  2  0  0  0  0
  4  7  2  0  0  0  0
  4  8  1  0  0  0  0
  5  9  2  0  0  0  0
  5 24  1  0  0  0  0
  6 20  2  0  0  0  0
  6 24  1  0  0  0  0
  7 21  1  0  0  0  0
  8 23  1  0  0  0  0
  9 19  1  0  0  0  0
  9 20  1  0  0  0  0
 10 11  1  0  0  0  0
 10 12  1  0  0  0  0
 11 18  1  0  0  0  0
 12 18  1  0  0  0  0
 13 14  1  0  0  0  0
 13 15  1  0  0  0  0
 14 22  1  0  0  0  0
 15 16  1  0  0  0  0
 15 17  1  0  0  0  0
 16 18  1  0  0  0  0
 16 21  1  0  0  0  0
 17 18  1  0  0  0  0
 17 22  1  0  0  0  0
 19 23  1  0  0  0  0
  1 25  1  0  0  0  0
  2 26  1  0  0  0  0
  3 27  1  0  0  0  0
  4 28  1  0  0  0  0
  5 29  1  0  0  0  0
  6 30  1  0  0  0  0
 10 31  1  0  0  0  0
 10 32  1  0  0  0  0
 11 33  1  0  0  0  0
 11 34  1  0  0  0  0
 12 35  1  0  0  0  0
 12 36  1  0  0  0  0
 13 37  1  0  0  0  0
 13 38  1  0  0  0  0
 14 39  1  0  0  0  0
 14 40  1  0  0  0  0
 15 41  1  0  0  0  0
 16 42  1  0  0  0  0
 17 43  1  0  0  0  0
 19 44  1  0  0  0  0
 19 45  1  0  0  0  0
 21 46  1  0  0  0  0
M  END
> <Catalog ID>
Z1612689980

> <PlateID>
1041831-R-41

> <Well>
G07

> <MW (desalted)>
342.455

> <ClogP>
2.950

> <HBD>
1

> <TPSA>
43.380

> <RotBonds>
5

> <ROCS_ShapeQuery>
A71EV2A-x0451_0A_A71EV2A-x0310_0A_A71EV2A-x0416_0A_peptide

> <ROCS_TanimotoCombo>
0.543 

> <ROCS_ShapeTanimoto>
0.346 

> <ROCS_ColorTanimoto>
0.197 

> <ROCS_RefTversky>
0.309 

> <ROCS_RefColorTversky>
0.237 

> <ROCS_RefTverskyCombo>
0.545 

> <ROCS_FitTversky>
1.535 

> <ROCS_FitColorTversky>
0.541 

> <ROCS_FitTverskyCombo>
2.076 

> <ROCS_ColorScore>
-7.274

> <ROCS_Overlap>
2145.977

> <ROCS_Rank>
126                 

$$$$
untitled-dbase-1124_212
  -OEChem-11132311063D

 44 46  0     0  0  0  0  0  0999 V2000
    7.2100   10.3137   25.1074 C   0  0  0  0  0  0  0  0  0  0  0  0
    8.0655    9.5496   24.3138 C   0  0  0  0  0  0  0  0  0  0  0  0
   11.8806   15.8696   19.7641 C   0  0  0  0  0  0  0  0  0  0  0  0
    8.3207   12.3272   24.3664 C   0  0  0  0  0  0  0  0  0  0  0  0
   11.6398    8.4199   21.9016 C   0  0  0  0  0  0  0  0  0  0  0  0
   12.6375   16.2472   18.6820 C   0  0  0  0  0  0  0  0  0  0  0  0
    7.3375   11.7025   25.1337 C   0  0  0  0  0  0  0  0  0  0  0  0
    9.0488   10.1743   23.5466 C   0  0  0  0  0  0  0  0  0  0  0  0
    9.1764   11.5631   23.5729 C   0  0  0  0  0  0  0  0  0  0  0  0
   12.8219   15.4473   20.7218 C   0  0  0  0  0  0  0  0  0  0  0  0
   10.4415    8.0161   21.2828 C   0  0  0  0  0  0  0  0  0  0  0  0
   11.2441    9.3158   22.8645 C   0  0  0  0  0  0  0  0  0  0  0  0
   10.8154   13.4250   23.0958 C   0  0  0  0  0  0  0  0  0  0  0  0
   10.2828    7.0602   20.1741 C   0  0  0  0  0  0  0  0  0  0  0  0
   12.0372   10.0860   23.8426 C   0  0  0  0  0  0  0  0  0  0  0  0
   12.5498   14.9272   22.1037 C   0  0  0  0  0  0  0  0  0  0  0  0
    6.4223   12.5183   25.9830 C   0  0  0  0  0  0  0  0  0  0  0  0
   14.0807   15.5468   20.2864 N   0  0  0  0  0  0  0  0  0  0  0  0
    9.3652    8.6069   21.8086 N   0  0  0  0  0  0  0  0  0  0  0  0
   13.9356   16.0359   19.0431 N   0  0  0  0  0  0  0  0  0  0  0  0
    9.8857    9.3910   22.7680 N   0  0  0  0  0  0  0  0  0  0  0  0
   10.1528   12.2158   22.8135 N   0  0  0  0  0  0  0  0  0  0  0  0
   11.7260   13.7404   22.0823 N   0  0  0  0  0  0  0  0  0  0  0  0
   10.6422   14.1310   24.0864 O   0  0  0  0  0  0  0  0  0  0  0  0
    5.5118   11.7741   26.6781 F   0  0  0  0  0  0  0  0  0  0  0  0
    7.0706   13.2612   26.9281 F   0  0  0  0  0  0  0  0  0  0  0  0
    5.6877   13.4103   25.2566 F   0  0  0  0  0  0  0  0  0  0  0  0
    6.4472    9.8185   25.7026 H   0  0  0  0  0  0  0  0  0  0  0  0
    7.9538    8.4679   24.3045 H   0  0  0  0  0  0  0  0  0  0  0  0
   10.8036   15.8978   19.8431 H   0  0  0  0  0  0  0  0  0  0  0  0
    8.4175   13.4106   24.3892 H   0  0  0  0  0  0  0  0  0  0  0  0
   12.6497    8.1059   21.6801 H   0  0  0  0  0  0  0  0  0  0  0  0
   12.3750   16.6378   17.7094 H   0  0  0  0  0  0  0  0  0  0  0  0
   10.1497    6.0306   20.5485 H   0  0  0  0  0  0  0  0  0  0  0  0
    9.4105    7.2982   19.5394 H   0  0  0  0  0  0  0  0  0  0  0  0
   11.1562    7.0573   19.4974 H   0  0  0  0  0  0  0  0  0  0  0  0
   12.3405   11.0613   23.4281 H   0  0  0  0  0  0  0  0  0  0  0  0
   11.4749   10.2772   24.7725 H   0  0  0  0  0  0  0  0  0  0  0  0
   12.9535    9.5508   24.1453 H   0  0  0  0  0  0  0  0  0  0  0  0
   13.4866   14.6783   22.6140 H   0  0  0  0  0  0  0  0  0  0  0  0
   12.0375   15.6793   22.7129 H   0  0  0  0  0  0  0  0  0  0  0  0
   14.7689   16.2034   18.4932 H   0  0  0  0  0  0  0  0  0  0  0  0
   10.4289   11.7635   21.9374 H   0  0  0  0  0  0  0  0  0  0  0  0
   11.8123   13.1058   21.2947 H   0  0  0  0  0  0  0  0  0  0  0  0
  1  2  1  0  0  0  0
  1  7  2  0  0  0  0
  2  8  2  0  0  0  0
  3  6  2  0  0  0  0
  3 10  1  0  0  0  0
  4  7  1  0  0  0  0
  4  9  2  0  0  0  0
  5 11  1  0  0  0  0
  5 12  2  0  0  0  0
  6 20  1  0  0  0  0
  7 17  1  0  0  0  0
  8  9  1  0  0  0  0
  8 21  1  0  0  0  0
  9 22  1  0  0  0  0
 10 16  1  0  0  0  0
 10 18  2  0  0  0  0
 11 14  1  0  0  0  0
 11 19  2  0  0  0  0
 12 15  1  0  0  0  0
 12 21  1  0  0  0  0
 13 22  1  0  0  0  0
 13 23  1  0  0  0  0
 13 24  2  0  0  0  0
 16 23  1  0  0  0  0
 17 25  1  0  0  0  0
 17 26  1  0  0  0  0
 17 27  1  0  0  0  0
 18 20  1  0  0  0  0
 19 21  1  0  0  0  0
  1 28  1  0  0  0  0
  2 29  1  0  0  0  0
  3 30  1  0  0  0  0
  4 31  1  0  0  0  0
  5 32  1  0  0  0  0
  6 33  1  0  0  0  0
 14 34  1  0  0  0  0
 14 35  1  0  0  0  0
 14 36  1  0  0  0  0
 15 37  1  0  0  0  0
 15 38  1  0  0  0  0
 15 39  1  0  0  0  0
 16 40  1  0  0  0  0
 16 41  1  0  0  0  0
 20 42  1  0  0  0  0
 22 43  1  0  0  0  0
 23 44  1  0  0  0  0
M  END
> <Catalog ID>
Z433445586

> <PlateID>
1041831-R-15

> <Well>
A05

> <MW (desalted)>
378.352

> <ClogP>
3.172

> <HBD>
3

> <TPSA>
87.630

> <RotBonds>
5

> <ROCS_ShapeQuery>
A71EV2A-x0451_0A_A71EV2A-x0310_0A_A71EV2A-x0416_0A_peptide

> <ROCS_TanimotoCombo>
0.543 

> <ROCS_ShapeTanimoto>
0.379 

> <ROCS_ColorTanimoto>
0.164 

> <ROCS_RefTversky>
0.336 

> <ROCS_RefColorTversky>
0.187 

> <ROCS_RefTverskyCombo>
0.524 

> <ROCS_FitTversky>
1.506 

> <ROCS_FitColorTversky>
0.564 

> <ROCS_FitTverskyCombo>
2.071 

> <ROCS_ColorScore>
-5.726

> <ROCS_Overlap>
2340.375

> <ROCS_Rank>
127                 

$$$$
untitled-dbase-346_2383
  -OEChem-11132311063D

 47 50  0     1  0  0  0  0  0999 V2000
    6.3550   12.3824   25.6901 C   0  0  0  0  0  0  0  0  0  0  0  0
   10.3600   14.6407   17.5542 C   0  0  0  0  0  0  0  0  0  0  0  0
    6.1836   11.1094   26.2304 C   0  0  0  0  0  0  0  0  0  0  0  0
   11.4549   14.6005   16.6952 C   0  0  0  0  0  0  0  0  0  0  0  0
    7.3152   12.6166   24.6990 C   0  0  0  0  0  0  0  0  0  0  0  0
   10.5184   15.0823   18.8690 C   0  0  0  0  0  0  0  0  0  0  0  0
    6.9634   10.0324   25.7993 C   0  0  0  0  0  0  0  0  0  0  0  0
   12.7064   15.0154   17.1453 C   0  0  0  0  0  0  0  0  0  0  0  0
    9.5641   10.1087   23.2800 C   0  0  0  0  0  0  0  0  0  0  0  0
    8.1132   11.5462   24.2486 C   0  0  0  0  0  0  0  0  0  0  0  0
   11.7771   15.4819   19.3454 C   0  0  0  0  0  0  0  0  0  0  0  0
    9.1538   11.4220   23.2860 C   0  0  0  0  0  0  0  0  0  0  0  0
    7.9193   10.2814   24.8080 C   0  0  0  0  0  0  0  0  0  0  0  0
   12.8639   15.4725   18.4572 C   0  0  0  0  0  0  0  0  0  0  0  0
   11.2778   15.0552   21.7588 C   0  0  0  0  0  0  0  0  0  0  0  0
   11.5377   13.0311   24.0623 C   0  0  0  0  0  0  0  0  0  0  0  0
   13.4312   16.0542   21.1304 C   0  0  0  0  0  0  0  0  0  0  0  0
   14.1922   16.6854   19.9778 C   0  0  0  0  0  0  0  0  0  0  0  0
   11.9493   15.9574   20.7684 C   0  0  1  0  0  0  0  0  0  0  0  0
    9.7162   12.5252   22.4223 C   0  0  0  0  0  0  0  0  0  0  0  0
   11.2271   12.7180   22.6060 C   0  0  1  0  0  0  0  0  0  0  0  0
    8.8135    9.4286   24.2011 N   0  0  0  0  0  0  0  0  0  0  0  0
   11.7363   13.7518   21.7336 N   0  0  0  0  0  0  0  0  0  0  0  0
   10.4080   15.5066   22.4945 O   0  0  0  0  0  0  0  0  0  0  0  0
   12.2804   12.3384   24.7502 O   0  0  0  0  0  0  0  0  0  0  0  0
   14.1300   15.8732   18.8025 O   0  0  0  0  0  0  0  0  0  0  0  0
   10.9349   14.1435   24.5461 O   0  0  0  0  0  0  0  0  0  0  0  0
    5.7363   13.2039   26.0411 H   0  0  0  0  0  0  0  0  0  0  0  0
    9.3801   14.3319   17.2010 H   0  0  0  0  0  0  0  0  0  0  0  0
    5.4319   10.9501   26.9993 H   0  0  0  0  0  0  0  0  0  0  0  0
   11.3335   14.2465   15.6759 H   0  0  0  0  0  0  0  0  0  0  0  0
    7.4360   13.6145   24.2872 H   0  0  0  0  0  0  0  0  0  0  0  0
    9.6491   15.1189   19.5226 H   0  0  0  0  0  0  0  0  0  0  0  0
    6.8299    9.0421   26.2212 H   0  0  0  0  0  0  0  0  0  0  0  0
   13.5576   14.9762   16.4706 H   0  0  0  0  0  0  0  0  0  0  0  0
   10.3212    9.5962   22.7026 H   0  0  0  0  0  0  0  0  0  0  0  0
   13.8449   15.0718   21.3712 H   0  0  0  0  0  0  0  0  0  0  0  0
   13.5368   16.6929   22.0139 H   0  0  0  0  0  0  0  0  0  0  0  0
   13.7391   17.6479   19.7263 H   0  0  0  0  0  0  0  0  0  0  0  0
   15.2403   16.8746   20.2270 H   0  0  0  0  0  0  0  0  0  0  0  0
   11.5071   16.9493   20.8848 H   0  0  0  0  0  0  0  0  0  0  0  0
    9.1796   13.4528   22.6629 H   0  0  0  0  0  0  0  0  0  0  0  0
    9.4861   12.3238   21.3671 H   0  0  0  0  0  0  0  0  0  0  0  0
   11.7800   11.8066   22.3508 H   0  0  0  0  0  0  0  0  0  0  0  0
    8.9024    8.4430   24.4065 H   0  0  0  0  0  0  0  0  0  0  0  0
   12.4659   13.5087   21.0704 H   0  0  0  0  0  0  0  0  0  0  0  0
   10.3644   14.6154   23.9035 H   0  0  0  0  0  0  0  0  0  0  0  0
  1  3  2  0  0  0  0
  1  5  1  0  0  0  0
  2  4  2  0  0  0  0
  2  6  1  0  0  0  0
  3  7  1  0  0  0  0
  4  8  1  0  0  0  0
  5 10  2  0  0  0  0
  6 11  2  0  0  0  0
  7 13  2  0  0  0  0
  8 14  2  0  0  0  0
  9 12  2  0  0  0  0
  9 22  1  0  0  0  0
 10 12  1  0  0  0  0
 10 13  1  0  0  0  0
 11 14  1  0  0  0  0
 11 19  1  0  0  0  0
 12 20  1  0  0  0  0
 13 22  1  0  0  0  0
 14 26  1  0  0  0  0
 15 19  1  0  0  0  0
 15 23  1  0  0  0  0
 15 24  2  0  0  0  0
 16 21  1  0  0  0  0
 16 25  2  0  0  0  0
 16 27  1  0  0  0  0
 17 18  1  0  0  0  0
 17 19  1  0  0  0  0
 18 26  1  0  0  0  0
 20 21  1  0  0  0  0
 21 23  1  0  0  0  0
  1 28  1  0  0  0  0
  2 29  1  0  0  0  0
  3 30  1  0  0  0  0
  4 31  1  0  0  0  0
  5 32  1  0  0  0  0
  6 33  1  0  0  0  0
  7 34  1  0  0  0  0
  8 35  1  0  0  0  0
  9 36  1  0  0  0  0
 17 37  1  0  0  0  0
 17 38  1  0  0  0  0
 18 39  1  0  0  0  0
 18 40  1  0  0  0  0
 19 41  1  0  0  0  0
 20 42  1  0  0  0  0
 20 43  1  0  0  0  0
 21 44  1  0  0  0  0
 22 45  1  0  0  0  0
 23 46  1  0  0  0  0
 27 47  1  0  0  0  0
M  END
> <Catalog ID>
Z1148253496

> <PlateID>
1041831-R-05

> <Well>
C07

> <MW (desalted)>
364.395

> <ClogP>
2.358

> <HBD>
3

> <TPSA>
91.420

> <RotBonds>
5

> <ROCS_ShapeQuery>
A71EV2A-x0451_0A_A71EV2A-x0310_0A_A71EV2A-x0416_0A_peptide

> <ROCS_TanimotoCombo>
0.543 

> <ROCS_ShapeTanimoto>
0.366 

> <ROCS_ColorTanimoto>
0.177 

> <ROCS_RefTversky>
0.327 

> <ROCS_RefColorTversky>
0.210 

> <ROCS_RefTverskyCombo>
0.537 

> <ROCS_FitTversky>
1.475 

> <ROCS_FitColorTversky>
0.533 

> <ROCS_FitTverskyCombo>
2.007 

> <ROCS_ColorScore>
-6.430

> <ROCS_Overlap>
2276.766

> <ROCS_Rank>
128                 

$$$$
untitled-dbase-5_58
  -OEChem-11132311063D

 40 43  0     1  0  0  0  0  0999 V2000
   11.8454   13.3525   22.0248 C   0  0  0  0  0  0  0  0  0  0  0  0
   10.8587   12.5198   22.5226 C   0  0  0  0  0  0  0  0  0  0  0  0
    4.8076   10.1795   26.4285 C   0  0  0  0  0  0  0  0  0  0  0  0
    3.8021   10.7768   27.2121 C   0  0  0  0  0  0  0  0  0  0  0  0
    5.6856   11.2009   26.1596 C   0  0  0  0  0  0  0  0  0  0  0  0
   12.0047   14.5902   22.6150 C   0  0  0  0  0  0  0  0  0  0  0  0
   10.0968   12.9797   23.5779 C   0  0  0  0  0  0  0  0  0  0  0  0
    6.7867   11.5892   24.1211 C   0  0  0  0  0  0  0  0  0  0  0  0
    6.8929   11.2837   25.4341 C   0  0  0  0  0  0  0  0  0  0  0  0
    8.2735   11.0611   26.0506 C   0  0  0  0  0  0  0  0  0  0  0  0
    8.4863   10.2669   22.8737 C   0  0  0  0  0  0  0  0  0  0  0  0
    9.3328    9.8253   24.0784 C   0  0  0  0  0  0  0  0  0  0  0  0
    8.0137   11.6826   23.2345 C   0  0  2  0  0  0  0  0  0  0  0  0
    9.4130   11.0650   24.9974 C   0  0  1  0  0  0  0  0  0  0  0  0
    5.7245   13.6419   26.7931 C   0  0  0  0  0  0  0  0  0  0  0  0
   13.0541   15.5243   22.1179 C   0  0  0  0  0  0  0  0  0  0  0  0
    4.0201   12.0769   27.4271 N   0  0  0  0  0  0  0  0  0  0  0  0
   11.2445   15.0143   23.6467 N   0  0  0  0  0  0  0  0  0  0  0  0
   10.2750   14.1957   24.1362 N   0  0  0  0  0  0  0  0  0  0  0  0
    5.1728   12.3049   26.7748 N   0  0  0  0  0  0  0  0  0  0  0  0
    9.1219   12.1592   24.0661 N   0  0  1  0  0  0  0  0  0  0  0  0
   13.7833   15.0256   21.0754 F   0  0  0  0  0  0  0  0  0  0  0  0
   12.5586   16.7151   21.6668 F   0  0  0  0  0  0  0  0  0  0  0  0
   13.9673   15.8495   23.0793 F   0  0  0  0  0  0  0  0  0  0  0  0
   12.4671   13.0343   21.1950 H   0  0  0  0  0  0  0  0  0  0  0  0
   10.6999   11.5390   22.0860 H   0  0  0  0  0  0  0  0  0  0  0  0
    4.8805    9.1507   26.1064 H   0  0  0  0  0  0  0  0  0  0  0  0
    2.9197   10.3189   27.6352 H   0  0  0  0  0  0  0  0  0  0  0  0
    5.8208   11.7470   23.6476 H   0  0  0  0  0  0  0  0  0  0  0  0
    8.4559   11.8542   26.7870 H   0  0  0  0  0  0  0  0  0  0  0  0
    8.2812   10.1081   26.5936 H   0  0  0  0  0  0  0  0  0  0  0  0
    9.1177   10.2977   21.9776 H   0  0  0  0  0  0  0  0  0  0  0  0
    7.6637    9.5703   22.6795 H   0  0  0  0  0  0  0  0  0  0  0  0
    8.8965    8.9566   24.5822 H   0  0  0  0  0  0  0  0  0  0  0  0
   10.3341    9.5427   23.7331 H   0  0  0  0  0  0  0  0  0  0  0  0
    7.8381   12.3104   22.3555 H   0  0  0  0  0  0  0  0  0  0  0  0
   10.3968   11.1485   25.4717 H   0  0  0  0  0  0  0  0  0  0  0  0
    5.3194   14.1858   25.9358 H   0  0  0  0  0  0  0  0  0  0  0  0
    5.4459   14.1380   27.7270 H   0  0  0  0  0  0  0  0  0  0  0  0
    6.8147   13.5838   26.7299 H   0  0  0  0  0  0  0  0  0  0  0  0
  1  2  1  0  0  0  0
  1  6  2  0  0  0  0
  2  7  2  0  0  0  0
  3  4  1  0  0  0  0
  3  5  2  0  0  0  0
  4 17  2  0  0  0  0
  5  9  1  0  0  0  0
  5 20  1  0  0  0  0
  6 16  1  0  0  0  0
  6 18  1  0  0  0  0
  7 19  1  0  0  0  0
  7 21  1  0  0  0  0
  8  9  2  0  0  0  0
  8 13  1  0  0  0  0
  9 10  1  0  0  0  0
 10 14  1  0  0  0  0
 11 12  1  0  0  0  0
 11 13  1  0  0  0  0
 12 14  1  0  0  0  0
 13 21  1  0  0  0  0
 14 21  1  0  0  0  0
 15 20  1  0  0  0  0
 16 22  1  0  0  0  0
 16 23  1  0  0  0  0
 16 24  1  0  0  0  0
 17 20  1  0  0  0  0
 18 19  2  0  0  0  0
  1 25  1  0  0  0  0
  2 26  1  0  0  0  0
  3 27  1  0  0  0  0
  4 28  1  0  0  0  0
  8 29  1  0  0  0  0
 10 30  1  0  0  0  0
 10 31  1  0  0  0  0
 11 32  1  0  0  0  0
 11 33  1  0  0  0  0
 12 34  1  0  0  0  0
 12 35  1  0  0  0  0
 13 36  1  0  0  0  0
 14 37  1  0  0  0  0
 15 38  1  0  0  0  0
 15 39  1  0  0  0  0
 15 40  1  0  0  0  0
M  END
> <Catalog ID>
Z2017206063

> <PlateID>
1041831-R-01

> <Well>
A06

> <MW (desalted)>
335.327

> <ClogP>
1.810

> <HBD>
0

> <TPSA>
46.840

> <RotBonds>
3

> <ROCS_ShapeQuery>
A71EV2A-x0451_0A_A71EV2A-x0310_0A_A71EV2A-x0416_0A_peptide

> <ROCS_TanimotoCombo>
0.543 

> <ROCS_ShapeTanimoto>
0.319 

> <ROCS_ColorTanimoto>
0.223 

> <ROCS_RefTversky>
0.292 

> <ROCS_RefColorTversky>
0.255 

> <ROCS_RefTverskyCombo>
0.547 

> <ROCS_FitTversky>
1.409 

> <ROCS_FitColorTversky>
0.644 

> <ROCS_FitTverskyCombo>
2.053 

> <ROCS_ColorScore>
-7.819

> <ROCS_Overlap>
2031.984

> <ROCS_Rank>
129                 

$$$$
untitled-dbase-75_3010
  -OEChem-11132311063D

 42 46  0     1  0  0  0  0  0999 V2000
   13.8618   16.2973   18.1750 C   0  0  0  0  0  0  0  0  0  0  0  0
   12.4901   16.5004   18.3771 C   0  0  0  0  0  0  0  0  0  0  0  0
   14.6454   15.7225   19.1744 C   0  0  0  0  0  0  0  0  0  0  0  0
   11.8848   16.1317   19.5822 C   0  0  0  0  0  0  0  0  0  0  0  0
   14.0307   15.3532   20.3613 C   0  0  0  0  0  0  0  0  0  0  0  0
   12.6585   15.5568   20.5845 C   0  0  0  0  0  0  0  0  0  0  0  0
    7.3706   11.9105   25.0590 C   0  0  0  0  0  0  0  0  0  0  0  0
    8.9830   11.0770   23.9999 C   0  0  0  0  0  0  0  0  0  0  0  0
   10.6419   13.5392   23.2363 C   0  0  0  0  0  0  0  0  0  0  0  0
   14.6906   14.7580   21.5756 C   0  0  0  0  0  0  0  0  0  0  0  0
   13.5010   14.2862   22.4473 C   0  0  0  0  0  0  0  0  0  0  0  0
    5.6674   12.4378   26.9806 C   0  0  0  0  0  0  0  0  0  0  0  0
    4.9455   12.6799   25.6920 C   0  0  0  0  0  0  0  0  0  0  0  0
   11.5155   15.9281   22.9062 C   0  0  0  0  0  0  0  0  0  0  0  0
    6.4402   12.9034   25.7660 C   0  0  0  0  0  0  0  0  0  0  0  0
   10.8827   14.6806   22.3442 C   0  0  1  0  0  0  0  0  0  0  0  0
   12.2903   15.0629   21.9463 C   0  0  1  0  0  0  0  0  0  0  0  0
   10.2938   11.0774   23.2679 C   0  0  0  0  0  0  0  0  0  0  0  0
    7.1123   10.6273   24.9622 N   0  0  0  0  0  0  0  0  0  0  0  0
    8.1730   10.0789   24.2656 N   0  0  0  0  0  0  0  0  0  0  0  0
   10.5297   12.3274   22.5817 N   0  0  0  0  0  0  0  0  0  0  0  0
   10.5610   13.7237   24.4451 O   0  0  0  0  0  0  0  0  0  0  0  0
    8.5430   12.2756   24.4717 O   0  0  0  0  0  0  0  0  0  0  0  0
   14.3169   16.5936   17.2340 H   0  0  0  0  0  0  0  0  0  0  0  0
   11.8919   16.9508   17.5897 H   0  0  0  0  0  0  0  0  0  0  0  0
   15.7089   15.5720   19.0232 H   0  0  0  0  0  0  0  0  0  0  0  0
   10.8217   16.2980   19.7243 H   0  0  0  0  0  0  0  0  0  0  0  0
   15.3498   13.9223   21.3229 H   0  0  0  0  0  0  0  0  0  0  0  0
   15.2630   15.5331   22.0966 H   0  0  0  0  0  0  0  0  0  0  0  0
   13.3399   13.2132   22.2840 H   0  0  0  0  0  0  0  0  0  0  0  0
   13.7078   14.4393   23.5117 H   0  0  0  0  0  0  0  0  0  0  0  0
    5.5177   13.1476   27.7850 H   0  0  0  0  0  0  0  0  0  0  0  0
    5.7826   11.4115   27.3078 H   0  0  0  0  0  0  0  0  0  0  0  0
    4.5761   11.8169   25.1511 H   0  0  0  0  0  0  0  0  0  0  0  0
    4.3084   13.5536   25.6257 H   0  0  0  0  0  0  0  0  0  0  0  0
   11.1326   16.8814   22.5596 H   0  0  0  0  0  0  0  0  0  0  0  0
   11.8083   15.9333   23.9499 H   0  0  0  0  0  0  0  0  0  0  0  0
    6.7834   13.9334   25.7677 H   0  0  0  0  0  0  0  0  0  0  0  0
   10.0954   14.8329   21.6129 H   0  0  0  0  0  0  0  0  0  0  0  0
   11.1243   10.9124   23.9630 H   0  0  0  0  0  0  0  0  0  0  0  0
   10.3285   10.2751   22.5235 H   0  0  0  0  0  0  0  0  0  0  0  0
   10.6172   12.3145   21.5700 H   0  0  0  0  0  0  0  0  0  0  0  0
  1  2  2  0  0  0  0
  1  3  1  0  0  0  0
  2  4  1  0  0  0  0
  3  5  2  0  0  0  0
  4  6  2  0  0  0  0
  5  6  1  0  0  0  0
  5 10  1  0  0  0  0
  6 17  1  0  0  0  0
  7 15  1  0  0  0  0
  7 19  2  0  0  0  0
  7 23  1  0  0  0  0
  8 18  1  0  0  0  0
  8 20  2  0  0  0  0
  8 23  1  0  0  0  0
  9 16  1  0  0  0  0
  9 21  1  0  0  0  0
  9 22  2  0  0  0  0
 10 11  1  0  0  0  0
 11 17  1  0  0  0  0
 12 13  1  0  0  0  0
 12 15  1  0  0  0  0
 13 15  1  0  0  0  0
 14 16  1  0  0  0  0
 14 17  1  0  0  0  0
 16 17  1  0  0  0  0
 18 21  1  0  0  0  0
 19 20  1  0  0  0  0
  1 24  1  0  0  0  0
  2 25  1  0  0  0  0
  3 26  1  0  0  0  0
  4 27  1  0  0  0  0
 10 28  1  0  0  0  0
 10 29  1  0  0  0  0
 11 30  1  0  0  0  0
 11 31  1  0  0  0  0
 12 32  1  0  0  0  0
 12 33  1  0  0  0  0
 13 34  1  0  0  0  0
 13 35  1  0  0  0  0
 14 36  1  0  0  0  0
 14 37  1  0  0  0  0
 15 38  1  0  0  0  0
 16 39  1  0  0  0  0
 18 40  1  0  0  0  0
 18 41  1  0  0  0  0
 21 42  1  0  0  0  0
M  END
> <Catalog ID>
Z1953008757

> <PlateID>
1041831-R-01

> <Well>
H06

> <MW (desalted)>
309.362

> <ClogP>
0.641

> <HBD>
1

> <TPSA>
68.020

> <RotBonds>
4

> <ROCS_ShapeQuery>
A71EV2A-x0451_0A_A71EV2A-x0310_0A_A71EV2A-x0416_0A_peptide

> <ROCS_TanimotoCombo>
0.543 

> <ROCS_ShapeTanimoto>
0.334 

> <ROCS_ColorTanimoto>
0.208 

> <ROCS_RefTversky>
0.300 

> <ROCS_RefColorTversky>
0.221 

> <ROCS_RefTverskyCombo>
0.521 

> <ROCS_FitTversky>
1.525 

> <ROCS_FitColorTversky>
0.788 

> <ROCS_FitTverskyCombo>
2.313 

> <ROCS_ColorScore>
-6.725

> <ROCS_Overlap>
2084.279

> <ROCS_Rank>
130                 

$$$$
untitled-dbase-139_1102
  -OEChem-11132311063D

 46 49  0     1  0  0  0  0  0999 V2000
   13.5367   15.8991   18.3876 C   0  0  0  0  0  0  0  0  0  0  0  0
   14.4087   16.8591   18.9047 C   0  0  0  0  0  0  0  0  0  0  0  0
   12.5666   15.2961   19.1980 C   0  0  0  0  0  0  0  0  0  0  0  0
   14.3428   17.2498   20.2461 C   0  0  0  0  0  0  0  0  0  0  0  0
   12.4878   15.6782   20.5476 C   0  0  0  0  0  0  0  0  0  0  0  0
   13.3684   16.6366   21.0367 C   0  0  0  0  0  0  0  0  0  0  0  0
   11.6917   15.3339   21.6611 C   0  0  0  0  0  0  0  0  0  0  0  0
   10.4310   13.6518   23.0606 C   0  0  0  0  0  0  0  0  0  0  0  0
    6.6448   11.9157   25.5993 C   0  0  0  0  0  0  0  0  0  0  0  0
    8.0000   11.2569   25.9606 C   0  0  0  0  0  0  0  0  0  0  0  0
    7.2883   12.3870   24.2705 C   0  0  0  0  0  0  0  0  0  0  0  0
    9.7447    9.9728   23.6765 C   0  0  0  0  0  0  0  0  0  0  0  0
    9.7535   11.4798   24.0577 C   0  0  2  0  0  0  0  0  0  0  0  0
    8.1912   10.0164   23.6651 C   0  0  2  0  0  0  0  0  0  0  0  0
    8.3130   11.2952   24.4756 C   0  0  0  0  0  0  0  0  0  0  0  0
    6.7881    6.6334   24.0473 C   0  0  0  0  0  0  0  0  0  0  0  0
   10.5644   14.3370   21.7142 C   0  0  0  0  0  0  0  0  0  0  0  0
    7.4921    7.7919   23.3734 C   0  0  0  0  0  0  0  0  0  0  0  0
   12.0259   16.0061   22.7650 N   0  0  0  0  0  0  0  0  0  0  0  0
   13.0415   16.7855   22.3576 N   0  0  0  0  0  0  0  0  0  0  0  0
    9.9671   12.3622   22.9123 N   0  0  0  0  0  0  0  0  0  0  0  0
   10.7094   14.1932   24.1275 O   0  0  0  0  0  0  0  0  0  0  0  0
    7.5296    8.8903   24.2652 O   0  0  0  0  0  0  0  0  0  0  0  0
   13.6113   15.6136   17.3415 H   0  0  0  0  0  0  0  0  0  0  0  0
   15.1521   17.3123   18.2537 H   0  0  0  0  0  0  0  0  0  0  0  0
   11.8945   14.5512   18.7831 H   0  0  0  0  0  0  0  0  0  0  0  0
   15.0193   17.9956   20.6489 H   0  0  0  0  0  0  0  0  0  0  0  0
    5.8286   11.1974   25.4616 H   0  0  0  0  0  0  0  0  0  0  0  0
    6.3098   12.7106   26.2706 H   0  0  0  0  0  0  0  0  0  0  0  0
    8.6401   11.9025   26.5736 H   0  0  0  0  0  0  0  0  0  0  0  0
    7.9341   10.2777   26.4412 H   0  0  0  0  0  0  0  0  0  0  0  0
    6.6480   12.3066   23.3881 H   0  0  0  0  0  0  0  0  0  0  0  0
    7.6892   13.4057   24.3266 H   0  0  0  0  0  0  0  0  0  0  0  0
   10.2091    9.7145   22.7199 H   0  0  0  0  0  0  0  0  0  0  0  0
   10.1659    9.3223   24.4525 H   0  0  0  0  0  0  0  0  0  0  0  0
   10.4514   11.7242   24.8654 H   0  0  0  0  0  0  0  0  0  0  0  0
    7.7990   10.1836   22.6532 H   0  0  0  0  0  0  0  0  0  0  0  0
    7.3183    6.3288   24.9540 H   0  0  0  0  0  0  0  0  0  0  0  0
    5.7618    6.9072   24.3130 H   0  0  0  0  0  0  0  0  0  0  0  0
    6.7235    5.7749   23.3706 H   0  0  0  0  0  0  0  0  0  0  0  0
    9.6179   14.8395   21.4778 H   0  0  0  0  0  0  0  0  0  0  0  0
   10.7116   13.5697   20.9436 H   0  0  0  0  0  0  0  0  0  0  0  0
    6.9568    8.0915   22.4674 H   0  0  0  0  0  0  0  0  0  0  0  0
    8.5176    7.5169   23.1094 H   0  0  0  0  0  0  0  0  0  0  0  0
   13.4725   17.4021   23.0350 H   0  0  0  0  0  0  0  0  0  0  0  0
    9.7693   12.0175   21.9862 H   0  0  0  0  0  0  0  0  0  0  0  0
  1  2  2  0  0  0  0
  1  3  1  0  0  0  0
  2  4  1  0  0  0  0
  3  5  2  0  0  0  0
  4  6  2  0  0  0  0
  5  6  1  0  0  0  0
  5  7  1  0  0  0  0
  6 20  1  0  0  0  0
  7 17  1  0  0  0  0
  7 19  2  0  0  0  0
  8 17  1  0  0  0  0
  8 21  1  0  0  0  0
  8 22  2  0  0  0  0
  9 10  1  0  0  0  0
  9 11  1  0  0  0  0
 10 15  1  0  0  0  0
 11 15  1  0  0  0  0
 12 13  1  0  0  0  0
 12 14  1  0  0  0  0
 13 15  1  0  0  0  0
 13 21  1  0  0  0  0
 14 15  1  0  0  0  0
 14 23  1  0  0  0  0
 16 18  1  0  0  0  0
 18 23  1  0  0  0  0
 19 20  1  0  0  0  0
  1 24  1  0  0  0  0
  2 25  1  0  0  0  0
  3 26  1  0  0  0  0
  4 27  1  0  0  0  0
  9 28  1  0  0  0  0
  9 29  1  0  0  0  0
 10 30  1  0  0  0  0
 10 31  1  0  0  0  0
 11 32  1  0  0  0  0
 11 33  1  0  0  0  0
 12 34  1  0  0  0  0
 12 35  1  0  0  0  0
 13 36  1  0  0  0  0
 14 37  1  0  0  0  0
 16 38  1  0  0  0  0
 16 39  1  0  0  0  0
 16 40  1  0  0  0  0
 17 41  1  0  0  0  0
 17 42  1  0  0  0  0
 18 43  1  0  0  0  0
 18 44  1  0  0  0  0
 20 45  1  0  0  0  0
 21 46  1  0  0  0  0
M  END
> <Catalog ID>
Z1261910141

> <PlateID>
1041831-R-02

> <Well>
F10

> <MW (desalted)>
313.394

> <ClogP>
2.709

> <HBD>
2

> <TPSA>
67.010

> <RotBonds>
5

> <ROCS_ShapeQuery>
A71EV2A-x0451_0A_A71EV2A-x0310_0A_A71EV2A-x0416_0A_peptide

> <ROCS_TanimotoCombo>
0.543 

> <ROCS_ShapeTanimoto>
0.331 

> <ROCS_ColorTanimoto>
0.211 

> <ROCS_RefTversky>
0.297 

> <ROCS_RefColorTversky>
0.232 

> <ROCS_RefTverskyCombo>
0.530 

> <ROCS_FitTversky>
1.526 

> <ROCS_FitColorTversky>
0.698 

> <ROCS_FitTverskyCombo>
2.224 

> <ROCS_ColorScore>
-7.106

> <ROCS_Overlap>
2066.743

> <ROCS_Rank>
131                 

$$$$
untitled-dbase-2220_2307
  -OEChem-11132311063D

 38 40  0     1  0  0  0  0  0999 V2000
    6.8990   12.8683   25.2806 C   0  0  0  0  0  0  0  0  0  0  0  0
    6.5016   11.7048   25.9363 C   0  0  0  0  0  0  0  0  0  0  0  0
    7.9072   12.8352   24.3104 C   0  0  0  0  0  0  0  0  0  0  0  0
    7.0968   10.4741   25.6448 C   0  0  0  0  0  0  0  0  0  0  0  0
   12.7100   16.9618   18.3748 C   0  0  0  0  0  0  0  0  0  0  0  0
   11.8448   16.3299   19.2609 C   0  0  0  0  0  0  0  0  0  0  0  0
   14.4868   15.6478   19.2539 C   0  0  0  0  0  0  0  0  0  0  0  0
    9.7294    9.8542   23.2362 C   0  0  0  0  0  0  0  0  0  0  0  0
    8.5219   11.6059   23.9998 C   0  0  0  0  0  0  0  0  0  0  0  0
    9.5480   11.2109   23.0965 C   0  0  0  0  0  0  0  0  0  0  0  0
    8.1034   10.4560   24.6728 C   0  0  0  0  0  0  0  0  0  0  0  0
   14.0578   16.6200   18.3648 C   0  0  0  0  0  0  0  0  0  0  0  0
   12.3729   15.3705   20.1098 C   0  0  0  0  0  0  0  0  0  0  0  0
   11.4952   14.6629   21.0773 C   0  0  0  0  0  0  0  0  0  0  0  0
   10.8105   13.8179   23.9462 C   0  0  0  0  0  0  0  0  0  0  0  0
   10.2926   12.0899   22.1720 C   0  0  0  0  0  0  0  0  0  0  0  0
   11.3953   12.9342   22.8542 C   0  0  1  0  0  0  0  0  0  0  0  0
   13.6762   15.0120   20.1293 N   0  0  0  0  0  0  0  0  0  0  0  0
    8.8534    9.4079   24.1890 N   0  0  0  0  0  0  0  0  0  0  0  0
   12.1162   13.7198   21.8842 N   0  0  0  0  0  0  0  0  0  0  0  0
   10.2953   14.9239   21.1011 O   0  0  0  0  0  0  0  0  0  0  0  0
   10.3907   14.9508   23.7346 O   0  0  0  0  0  0  0  0  0  0  0  0
   10.7806   13.2553   25.1781 O   0  0  0  0  0  0  0  0  0  0  0  0
   15.1550   17.3795   17.2880 Cl  0  0  0  0  0  0  0  0  0  0  0  0
    6.4209   13.8134   25.5240 H   0  0  0  0  0  0  0  0  0  0  0  0
    5.7165   11.7535   26.6865 H   0  0  0  0  0  0  0  0  0  0  0  0
    8.2051   13.7508   23.8076 H   0  0  0  0  0  0  0  0  0  0  0  0
    6.7875    9.5690   26.1565 H   0  0  0  0  0  0  0  0  0  0  0  0
   12.3217   17.7187   17.6984 H   0  0  0  0  0  0  0  0  0  0  0  0
   10.7913   16.5887   19.2791 H   0  0  0  0  0  0  0  0  0  0  0  0
   15.5265   15.3368   19.2954 H   0  0  0  0  0  0  0  0  0  0  0  0
   10.4015    9.1656   22.7428 H   0  0  0  0  0  0  0  0  0  0  0  0
    9.5866   12.7710   21.6552 H   0  0  0  0  0  0  0  0  0  0  0  0
   10.7524   11.5091   21.3453 H   0  0  0  0  0  0  0  0  0  0  0  0
   12.1388   12.2862   23.3325 H   0  0  0  0  0  0  0  0  0  0  0  0
    8.7690    8.4480   24.4938 H   0  0  0  0  0  0  0  0  0  0  0  0
   13.1043   13.5153   21.7614 H   0  0  0  0  0  0  0  0  0  0  0  0
   11.1437   12.3459   25.2246 H   0  0  0  0  0  0  0  0  0  0  0  0
  1  2  2  0  0  0  0
  1  3  1  0  0  0  0
  2  4  1  0  0  0  0
  3  9  2  0  0  0  0
  4 11  2  0  0  0  0
  5  6  1  0  0  0  0
  5 12  2  0  0  0  0
  6 13  2  0  0  0  0
  7 12  1  0  0  0  0
  7 18  2  0  0  0  0
  8 10  2  0  0  0  0
  8 19  1  0  0  0  0
  9 10  1  0  0  0  0
  9 11  1  0  0  0  0
 10 16  1  0  0  0  0
 11 19  1  0  0  0  0
 12 24  1  0  0  0  0
 13 14  1  0  0  0  0
 13 18  1  0  0  0  0
 14 20  1  0  0  0  0
 14 21  2  0  0  0  0
 15 17  1  0  0  0  0
 15 22  2  0  0  0  0
 15 23  1  0  0  0  0
 16 17  1  0  0  0  0
 17 20  1  0  0  0  0
  1 25  1  0  0  0  0
  2 26  1  0  0  0  0
  3 27  1  0  0  0  0
  4 28  1  0  0  0  0
  5 29  1  0  0  0  0
  6 30  1  0  0  0  0
  7 31  1  0  0  0  0
  8 32  1  0  0  0  0
 16 33  1  0  0  0  0
 16 34  1  0  0  0  0
 17 35  1  0  0  0  0
 19 36  1  0  0  0  0
 20 37  1  0  0  0  0
 23 38  1  0  0  0  0
M  END
> <Catalog ID>
Z1227710919

> <PlateID>
1041831-R-28

> <Well>
F11

> <MW (desalted)>
343.764

> <ClogP>
2.760

> <HBD>
3

> <TPSA>
95.080

> <RotBonds>
5

> <ROCS_ShapeQuery>
A71EV2A-x0451_0A_A71EV2A-x0310_0A_A71EV2A-x0416_0A_peptide

> <ROCS_TanimotoCombo>
0.543 

> <ROCS_ShapeTanimoto>
0.364 

> <ROCS_ColorTanimoto>
0.178 

> <ROCS_RefTversky>
0.321 

> <ROCS_RefColorTversky>
0.206 

> <ROCS_RefTverskyCombo>
0.527 

> <ROCS_FitTversky>
1.594 

> <ROCS_FitColorTversky>
0.568 

> <ROCS_FitTverskyCombo>
2.162 

> <ROCS_ColorScore>
-6.315

> <ROCS_Overlap>
2229.495

> <ROCS_Rank>
132                 

$$$$
untitled-dbase-428_3802
  -OEChem-11132311063D

 45 47  0     0  0  0  0  0  0999 V2000
    4.0853   11.7022   28.2355 C   0  0  0  0  0  0  0  0  0  0  0  0
    9.0836    9.1887   23.1928 C   0  0  0  0  0  0  0  0  0  0  0  0
    3.5930   12.9767   28.4934 C   0  0  0  0  0  0  0  0  0  0  0  0
    9.9351   10.1841   22.7137 C   0  0  0  0  0  0  0  0  0  0  0  0
    8.0606    9.5150   24.0832 C   0  0  0  0  0  0  0  0  0  0  0  0
    5.1306   11.5361   27.3338 C   0  0  0  0  0  0  0  0  0  0  0  0
    8.7408   11.8322   24.0154 C   0  0  0  0  0  0  0  0  0  0  0  0
    4.1757   14.0438   27.8289 C   0  0  0  0  0  0  0  0  0  0  0  0
   11.2481   15.5103   21.5482 C   0  0  0  0  0  0  0  0  0  0  0  0
    9.7637   11.5059   23.1250 C   0  0  0  0  0  0  0  0  0  0  0  0
    7.8892   10.8367   24.4945 C   0  0  0  0  0  0  0  0  0  0  0  0
    5.6444   12.6676   26.7211 C   0  0  0  0  0  0  0  0  0  0  0  0
   11.7641   16.2302   20.4540 C   0  0  0  0  0  0  0  0  0  0  0  0
    9.9488   15.9413   21.6608 C   0  0  0  0  0  0  0  0  0  0  0  0
   11.0154   13.6859   23.2862 C   0  0  0  0  0  0  0  0  0  0  0  0
   13.1227   16.1618   19.8871 C   0  0  0  0  0  0  0  0  0  0  0  0
    8.8662   15.5848   22.5934 C   0  0  0  0  0  0  0  0  0  0  0  0
   11.9556   14.4937   22.4055 C   0  0  0  0  0  0  0  0  0  0  0  0
    6.7728   12.5257   25.7423 C   0  0  0  0  0  0  0  0  0  0  0  0
    5.1924   13.9217   26.9463 N   0  0  0  0  0  0  0  0  0  0  0  0
   10.8660   17.0557   19.9102 N   0  0  0  0  0  0  0  0  0  0  0  0
    9.7724   16.8572   20.6657 N   0  0  0  0  0  0  0  0  0  0  0  0
   10.6156   12.5014   22.6453 N   0  0  0  0  0  0  0  0  0  0  0  0
   10.6778   14.0631   24.4038 O   0  0  0  0  0  0  0  0  0  0  0  0
    6.8911   11.1552   25.3635 O   0  0  0  0  0  0  0  0  0  0  0  0
    3.6551   10.8401   28.7364 H   0  0  0  0  0  0  0  0  0  0  0  0
    9.2167    8.1599   22.8716 H   0  0  0  0  0  0  0  0  0  0  0  0
    2.7788   13.1299   29.1924 H   0  0  0  0  0  0  0  0  0  0  0  0
   10.7291    9.9182   22.0206 H   0  0  0  0  0  0  0  0  0  0  0  0
    7.4004    8.7349   24.4520 H   0  0  0  0  0  0  0  0  0  0  0  0
    5.5237   10.5471   27.1238 H   0  0  0  0  0  0  0  0  0  0  0  0
    8.6028   12.8616   24.3387 H   0  0  0  0  0  0  0  0  0  0  0  0
    3.8282   15.0581   27.9951 H   0  0  0  0  0  0  0  0  0  0  0  0
   13.1882   15.3941   19.0976 H   0  0  0  0  0  0  0  0  0  0  0  0
   13.4376   17.1231   19.4441 H   0  0  0  0  0  0  0  0  0  0  0  0
   13.8811   15.9185   20.6523 H   0  0  0  0  0  0  0  0  0  0  0  0
    8.8749   16.2353   23.4848 H   0  0  0  0  0  0  0  0  0  0  0  0
    7.8685   15.6728   22.1276 H   0  0  0  0  0  0  0  0  0  0  0  0
    8.9446   14.5400   22.9437 H   0  0  0  0  0  0  0  0  0  0  0  0
   12.5200   13.8023   21.7669 H   0  0  0  0  0  0  0  0  0  0  0  0
   12.6900   15.0001   23.0446 H   0  0  0  0  0  0  0  0  0  0  0  0
    6.5925   13.1295   24.8463 H   0  0  0  0  0  0  0  0  0  0  0  0
    7.7166   12.8580   26.1877 H   0  0  0  0  0  0  0  0  0  0  0  0
    8.9368   17.3853   20.4461 H   0  0  0  0  0  0  0  0  0  0  0  0
   10.9986   12.3491   21.7051 H   0  0  0  0  0  0  0  0  0  0  0  0
  1  3  2  0  0  0  0
  1  6  1  0  0  0  0
  2  4  1  0  0  0  0
  2  5  2  0  0  0  0
  3  8  1  0  0  0  0
  4 10  2  0  0  0  0
  5 11  1  0  0  0  0
  6 12  2  0  0  0  0
  7 10  1  0  0  0  0
  7 11  2  0  0  0  0
  8 20  2  0  0  0  0
  9 13  1  0  0  0  0
  9 14  2  0  0  0  0
  9 18  1  0  0  0  0
 10 23  1  0  0  0  0
 11 25  1  0  0  0  0
 12 19  1  0  0  0  0
 12 20  1  0  0  0  0
 13 16  1  0  0  0  0
 13 21  2  0  0  0  0
 14 17  1  0  0  0  0
 14 22  1  0  0  0  0
 15 18  1  0  0  0  0
 15 23  1  0  0  0  0
 15 24  2  0  0  0  0
 19 25  1  0  0  0  0
 21 22  1  0  0  0  0
  1 26  1  0  0  0  0
  2 27  1  0  0  0  0
  3 28  1  0  0  0  0
  4 29  1  0  0  0  0
  5 30  1  0  0  0  0
  6 31  1  0  0  0  0
  7 32  1  0  0  0  0
  8 33  1  0  0  0  0
 16 34  1  0  0  0  0
 16 35  1  0  0  0  0
 16 36  1  0  0  0  0
 17 37  1  0  0  0  0
 17 38  1  0  0  0  0
 17 39  1  0  0  0  0
 18 40  1  0  0  0  0
 18 41  1  0  0  0  0
 19 42  1  0  0  0  0
 19 43  1  0  0  0  0
 22 44  1  0  0  0  0
 23 45  1  0  0  0  0
M  END
> <Catalog ID>
Z1815548134

> <PlateID>
1041831-R-06

> <Well>
C09

> <MW (desalted)>
336.388

> <ClogP>
1.582

> <HBD>
2

> <TPSA>
79.900

> <RotBonds>
6

> <ROCS_ShapeQuery>
A71EV2A-x0451_0A_A71EV2A-x0310_0A_A71EV2A-x0416_0A_peptide

> <ROCS_TanimotoCombo>
0.542 

> <ROCS_ShapeTanimoto>
0.354 

> <ROCS_ColorTanimoto>
0.188 

> <ROCS_RefTversky>
0.316 

> <ROCS_RefColorTversky>
0.211 

> <ROCS_RefTverskyCombo>
0.527 

> <ROCS_FitTversky>
1.524 

> <ROCS_FitColorTversky>
0.637 

> <ROCS_FitTverskyCombo>
2.161 

> <ROCS_ColorScore>
-6.455

> <ROCS_Overlap>
2194.343

> <ROCS_Rank>
133                 

$$$$
untitled-dbase-459_3793
  -OEChem-11132311063D

 46 49  0     1  0  0  0  0  0999 V2000
    6.5653   12.4927   25.7749 C   0  0  0  0  0  0  0  0  0  0  0  0
    6.1770   11.1873   26.1286 C   0  0  0  0  0  0  0  0  0  0  0  0
    7.6546   12.7123   24.9255 C   0  0  0  0  0  0  0  0  0  0  0  0
    6.8702   10.0792   25.6387 C   0  0  0  0  0  0  0  0  0  0  0  0
    8.6924   16.7719   19.6814 C   0  0  0  0  0  0  0  0  0  0  0  0
    8.3395   11.6106   24.4472 C   0  0  0  0  0  0  0  0  0  0  0  0
    7.9413   10.3237   24.8027 C   0  0  0  0  0  0  0  0  0  0  0  0
   10.1275   15.5255   21.1611 C   0  0  0  0  0  0  0  0  0  0  0  0
   10.7068   15.9604   19.9875 C   0  0  0  0  0  0  0  0  0  0  0  0
    9.7603   10.0125   23.4260 C   0  0  0  0  0  0  0  0  0  0  0  0
   10.7000   14.7441   22.2875 C   0  0  0  0  0  0  0  0  0  0  0  0
   14.4954   15.8356   20.0402 C   0  0  0  0  0  0  0  0  0  0  0  0
   14.2238   16.5415   18.7110 C   0  0  0  0  0  0  0  0  0  0  0  0
   13.1372   15.6403   20.7103 C   0  0  0  0  0  0  0  0  0  0  0  0
   12.7259   16.8244   18.6808 C   0  0  0  0  0  0  0  0  0  0  0  0
    9.5211   11.5320   23.5231 C   0  0  2  0  0  0  0  0  0  0  0  0
   12.1296   15.7265   19.5626 C   0  0  0  0  0  0  0  0  0  0  0  0
   10.7539   12.2442   24.0530 C   0  0  0  0  0  0  0  0  0  0  0  0
   11.7512   12.5979   22.9546 C   0  0  0  0  0  0  0  0  0  0  0  0
    9.8853   16.6749   19.1376 N   0  0  0  0  0  0  0  0  0  0  0  0
    8.7762    9.3891   24.2010 N   0  0  0  0  0  0  0  0  0  0  0  0
   11.1897   13.4818   21.9710 N   0  0  0  0  0  0  0  0  0  0  0  0
   10.6491    9.4712   22.7861 O   0  0  0  0  0  0  0  0  0  0  0  0
   10.6953   15.2274   23.4166 O   0  0  0  0  0  0  0  0  0  0  0  0
    8.4884   16.0275   21.2142 S   0  0  0  0  0  0  0  0  0  0  0  0
    6.0094   13.3402   26.1672 H   0  0  0  0  0  0  0  0  0  0  0  0
    5.3267   11.0428   26.7898 H   0  0  0  0  0  0  0  0  0  0  0  0
    7.9464   13.7204   24.6528 H   0  0  0  0  0  0  0  0  0  0  0  0
    6.5734    9.0724   25.9087 H   0  0  0  0  0  0  0  0  0  0  0  0
    7.8788   17.2919   19.1945 H   0  0  0  0  0  0  0  0  0  0  0  0
   14.9722   14.8530   19.8556 H   0  0  0  0  0  0  0  0  0  0  0  0
   15.1923   16.4115   20.6773 H   0  0  0  0  0  0  0  0  0  0  0  0
   14.7872   17.4905   18.6709 H   0  0  0  0  0  0  0  0  0  0  0  0
   14.5501   15.9368   17.8488 H   0  0  0  0  0  0  0  0  0  0  0  0
   13.0843   14.6828   21.2371 H   0  0  0  0  0  0  0  0  0  0  0  0
   12.9787   16.4343   21.4503 H   0  0  0  0  0  0  0  0  0  0  0  0
   12.5043   17.8376   19.0105 H   0  0  0  0  0  0  0  0  0  0  0  0
   12.3613   16.7097   17.6587 H   0  0  0  0  0  0  0  0  0  0  0  0
    9.2419   11.8983   22.5290 H   0  0  0  0  0  0  0  0  0  0  0  0
   12.1562   14.7754   18.9917 H   0  0  0  0  0  0  0  0  0  0  0  0
   11.2510   11.5937   24.7834 H   0  0  0  0  0  0  0  0  0  0  0  0
   10.4472   13.1527   24.5868 H   0  0  0  0  0  0  0  0  0  0  0  0
   12.6192   13.1076   23.3843 H   0  0  0  0  0  0  0  0  0  0  0  0
   12.1047   11.7009   22.4364 H   0  0  0  0  0  0  0  0  0  0  0  0
    8.6793    8.3879   24.3235 H   0  0  0  0  0  0  0  0  0  0  0  0
   11.0990   13.1295   21.0195 H   0  0  0  0  0  0  0  0  0  0  0  0
  1  2  2  0  0  0  0
  1  3  1  0  0  0  0
  2  4  1  0  0  0  0
  3  6  2  0  0  0  0
  4  7  2  0  0  0  0
  5 20  2  0  0  0  0
  5 25  1  0  0  0  0
  6  7  1  0  0  0  0
  6 16  1  0  0  0  0
  7 21  1  0  0  0  0
  8  9  2  0  0  0  0
  8 11  1  0  0  0  0
  8 25  1  0  0  0  0
  9 17  1  0  0  0  0
  9 20  1  0  0  0  0
 10 16  1  0  0  0  0
 10 21  1  0  0  0  0
 10 23  2  0  0  0  0
 11 22  1  0  0  0  0
 11 24  2  0  0  0  0
 12 13  1  0  0  0  0
 12 14  1  0  0  0  0
 13 15  1  0  0  0  0
 14 17  1  0  0  0  0
 15 17  1  0  0  0  0
 16 18  1  0  0  0  0
 18 19  1  0  0  0  0
 19 22  1  0  0  0  0
  1 26  1  0  0  0  0
  2 27  1  0  0  0  0
  3 28  1  0  0  0  0
  4 29  1  0  0  0  0
  5 30  1  0  0  0  0
 12 31  1  0  0  0  0
 12 32  1  0  0  0  0
 13 33  1  0  0  0  0
 13 34  1  0  0  0  0
 14 35  1  0  0  0  0
 14 36  1  0  0  0  0
 15 37  1  0  0  0  0
 15 38  1  0  0  0  0
 16 39  1  0  0  0  0
 17 40  1  0  0  0  0
 18 41  1  0  0  0  0
 18 42  1  0  0  0  0
 19 43  1  0  0  0  0
 19 44  1  0  0  0  0
 21 45  1  0  0  0  0
 22 46  1  0  0  0  0
M  END
> <Catalog ID>
Z1675230146

> <PlateID>
1041831-R-06

> <Well>
F10

> <MW (desalted)>
355.454

> <ClogP>
2.421

> <HBD>
2

> <TPSA>
71.090

> <RotBonds>
5

> <ROCS_ShapeQuery>
A71EV2A-x0451_0A_A71EV2A-x0310_0A_A71EV2A-x0416_0A_peptide

> <ROCS_TanimotoCombo>
0.542 

> <ROCS_ShapeTanimoto>
0.361 

> <ROCS_ColorTanimoto>
0.181 

> <ROCS_RefTversky>
0.320 

> <ROCS_RefColorTversky>
0.204 

> <ROCS_RefTverskyCombo>
0.524 

> <ROCS_FitTversky>
1.557 

> <ROCS_FitColorTversky>
0.616 

> <ROCS_FitTverskyCombo>
2.173 

> <ROCS_ColorScore>
-6.252

> <ROCS_Overlap>
2222.317

> <ROCS_Rank>
134                 

$$$$
untitled-dbase-1970_160
  -OEChem-11132311063D

 41 45  0     1  0  0  0  0  0999 V2000
   11.0217   15.3142   22.2947 C   0  0  0  0  0  0  0  0  0  0  0  0
   11.3071   13.3921   23.2956 C   0  0  0  0  0  0  0  0  0  0  0  0
   11.0954   16.2101   21.1919 C   0  0  0  0  0  0  0  0  0  0  0  0
   11.6126   15.7793   20.0243 C   0  0  0  0  0  0  0  0  0  0  0  0
   12.0994   14.4163   19.8624 C   0  0  0  0  0  0  0  0  0  0  0  0
   12.0304   13.5694   20.9032 C   0  0  0  0  0  0  0  0  0  0  0  0
    7.1110    9.1439   21.8563 C   0  0  0  0  0  0  0  0  0  0  0  0
    8.6169    9.1214   22.2202 C   0  0  0  0  0  0  0  0  0  0  0  0
    7.1245   10.6653   22.1463 C   0  0  0  0  0  0  0  0  0  0  0  0
    7.9528   12.6339   24.9934 C   0  0  0  0  0  0  0  0  0  0  0  0
    6.9458   11.7967   25.7745 C   0  0  0  0  0  0  0  0  0  0  0  0
    9.0384   11.6367   24.5872 C   0  0  2  0  0  0  0  0  0  0  0  0
    9.4037   11.4934   23.0812 C   0  0  2  0  0  0  0  0  0  0  0  0
    8.2161   10.3197   24.4945 C   0  0  2  0  0  0  0  0  0  0  0  0
    8.3635   10.4030   22.9864 C   0  0  0  0  0  0  0  0  0  0  0  0
   11.6850   11.9602   23.5431 C   0  0  0  0  0  0  0  0  0  0  0  0
   10.5812   15.4335   23.5291 N   0  0  0  0  0  0  0  0  0  0  0  0
   10.7621   14.2186   24.1603 N   0  0  0  0  0  0  0  0  0  0  0  0
   11.4949   14.0258   22.1008 N   0  0  0  0  0  0  0  0  0  0  0  0
   10.7445   11.0343   22.9277 N   0  0  0  0  0  0  0  0  0  0  0  0
    6.9168   10.5398   25.0876 O   0  0  0  0  0  0  0  0  0  0  0  0
   10.7346   17.2264   21.3026 H   0  0  0  0  0  0  0  0  0  0  0  0
   11.6787   16.4426   19.1686 H   0  0  0  0  0  0  0  0  0  0  0  0
   12.5085   14.1156   18.9057 H   0  0  0  0  0  0  0  0  0  0  0  0
   12.3758   12.5446   20.8479 H   0  0  0  0  0  0  0  0  0  0  0  0
    6.8654    8.8587   20.8302 H   0  0  0  0  0  0  0  0  0  0  0  0
    6.4826    8.5697   22.5474 H   0  0  0  0  0  0  0  0  0  0  0  0
    8.9460    8.2491   22.7948 H   0  0  0  0  0  0  0  0  0  0  0  0
    9.2540    9.2107   21.3311 H   0  0  0  0  0  0  0  0  0  0  0  0
    7.3121   11.2744   21.2552 H   0  0  0  0  0  0  0  0  0  0  0  0
    6.2401   11.0536   22.6551 H   0  0  0  0  0  0  0  0  0  0  0  0
    7.5018   13.1404   24.1421 H   0  0  0  0  0  0  0  0  0  0  0  0
    8.3892   13.3847   25.6557 H   0  0  0  0  0  0  0  0  0  0  0  0
    7.2456   11.6493   26.8144 H   0  0  0  0  0  0  0  0  0  0  0  0
    5.9426   12.2318   25.7423 H   0  0  0  0  0  0  0  0  0  0  0  0
    9.8746   11.5919   25.2964 H   0  0  0  0  0  0  0  0  0  0  0  0
    9.1580   12.4041   22.4703 H   0  0  0  0  0  0  0  0  0  0  0  0
    8.7048    9.4559   24.9683 H   0  0  0  0  0  0  0  0  0  0  0  0
   12.6807   11.7482   23.1386 H   0  0  0  0  0  0  0  0  0  0  0  0
   11.7164   11.7419   24.6157 H   0  0  0  0  0  0  0  0  0  0  0  0
   10.9574   10.9493   21.9344 H   0  0  0  0  0  0  0  0  0  0  0  0
  1  3  1  0  0  0  0
  1 17  2  0  0  0  0
  1 19  1  0  0  0  0
  2 16  1  0  0  0  0
  2 18  2  0  0  0  0
  2 19  1  0  0  0  0
  3  4  2  0  0  0  0
  4  5  1  0  0  0  0
  5  6  2  0  0  0  0
  6 19  1  0  0  0  0
  7  8  1  0  0  0  0
  7  9  1  0  0  0  0
  8 15  1  0  0  0  0
  9 15  1  0  0  0  0
 10 11  1  0  0  0  0
 10 12  1  0  0  0  0
 11 21  1  0  0  0  0
 12 13  1  0  0  0  0
 12 14  1  0  0  0  0
 13 15  1  0  0  0  0
 13 20  1  0  0  0  0
 14 15  1  0  0  0  0
 14 21  1  0  0  0  0
 16 20  1  0  0  0  0
 17 18  1  0  0  0  0
  3 22  1  0  0  0  0
  4 23  1  0  0  0  0
  5 24  1  0  0  0  0
  6 25  1  0  0  0  0
  7 26  1  0  0  0  0
  7 27  1  0  0  0  0
  8 28  1  0  0  0  0
  8 29  1  0  0  0  0
  9 30  1  0  0  0  0
  9 31  1  0  0  0  0
 10 32  1  0  0  0  0
 10 33  1  0  0  0  0
 11 34  1  0  0  0  0
 11 35  1  0  0  0  0
 12 36  1  0  0  0  0
 13 37  1  0  0  0  0
 14 38  1  0  0  0  0
 16 39  1  0  0  0  0
 16 40  1  0  0  0  0
 20 41  1  0  0  0  0
M  END
> <Catalog ID>
Z1632638863

> <PlateID>
1041831-R-25

> <Well>
E11

> <MW (desalted)>
284.356

> <ClogP>
0.970

> <HBD>
1

> <TPSA>
51.450

> <RotBonds>
3

> <ROCS_ShapeQuery>
A71EV2A-x0451_0A_A71EV2A-x0310_0A_A71EV2A-x0416_0A_peptide

> <ROCS_TanimotoCombo>
0.542 

> <ROCS_ShapeTanimoto>
0.325 

> <ROCS_ColorTanimoto>
0.217 

> <ROCS_RefTversky>
0.291 

> <ROCS_RefColorTversky>
0.263 

> <ROCS_RefTverskyCombo>
0.555 

> <ROCS_FitTversky>
1.558 

> <ROCS_FitColorTversky>
0.552 

> <ROCS_FitTverskyCombo>
2.110 

> <ROCS_ColorScore>
-8.108

> <ROCS_Overlap>
2023.662

> <ROCS_Rank>
135                 

$$$$
untitled-dbase-2121_890
  -OEChem-11132311063D

 51 54  0     1  0  0  0  0  0999 V2000
   14.1058   11.2880   26.6726 C   0  0  0  0  0  0  0  0  0  0  0  0
    5.4535   11.6294   27.4866 C   0  0  0  0  0  0  0  0  0  0  0  0
   13.5886   11.3788   25.3852 C   0  0  0  0  0  0  0  0  0  0  0  0
    6.5601   12.0624   26.7178 C   0  0  0  0  0  0  0  0  0  0  0  0
    8.8303   12.1078   24.6318 C   0  0  0  0  0  0  0  0  0  0  0  0
   15.1209   12.1620   27.0269 C   0  0  0  0  0  0  0  0  0  0  0  0
   15.1104   13.1552   24.9552 C   0  0  0  0  0  0  0  0  0  0  0  0
    5.1341   10.3743   27.0231 C   0  0  0  0  0  0  0  0  0  0  0  0
   14.0950   12.3276   24.5038 C   0  0  0  0  0  0  0  0  0  0  0  0
    7.9208   11.0534   24.8390 C   0  0  0  0  0  0  0  0  0  0  0  0
    6.8382   11.0410   25.8395 C   0  0  0  0  0  0  0  0  0  0  0  0
    9.6393   11.6681   23.6127 C   0  0  0  0  0  0  0  0  0  0  0  0
   11.2765   13.5526   23.2319 C   0  0  0  0  0  0  0  0  0  0  0  0
   13.2024   16.3342   19.1376 C   0  0  0  0  0  0  0  0  0  0  0  0
   13.9054   16.1938   20.4643 C   0  0  0  0  0  0  0  0  0  0  0  0
   11.7990   15.8794   19.4775 C   0  0  0  0  0  0  0  0  0  0  0  0
   13.2737   14.9244   21.0085 C   0  0  1  0  0  0  0  0  0  0  0  0
    9.7069    9.5471   22.2635 C   0  0  0  0  0  0  0  0  0  0  0  0
   13.5572   12.4511   23.1075 C   0  0  0  0  0  0  0  0  0  0  0  0
   13.2959   14.8385   22.5222 C   0  0  0  0  0  0  0  0  0  0  0  0
   15.6384   13.0966   26.1984 N   0  0  0  0  0  0  0  0  0  0  0  0
    8.1317   10.0216   24.0175 N   0  0  0  0  0  0  0  0  0  0  0  0
    9.1829   10.4256   23.2841 N   0  0  0  0  0  0  0  0  0  0  0  0
   10.7373   12.2909   22.9688 N   0  0  0  0  0  0  0  0  0  0  0  0
   12.6815   13.6249   22.9562 N   0  0  0  0  0  0  0  0  0  0  0  0
   10.6234   14.5157   23.6395 O   0  0  0  0  0  0  0  0  0  0  0  0
    5.9735   10.0083   26.0191 O   0  0  0  0  0  0  0  0  0  0  0  0
   11.9151   14.9202   20.5392 O   0  0  0  0  0  0  0  0  0  0  0  0
   13.7263   10.5562   27.3766 H   0  0  0  0  0  0  0  0  0  0  0  0
    4.9517   12.1649   28.2795 H   0  0  0  0  0  0  0  0  0  0  0  0
   12.7917   10.7071   25.0777 H   0  0  0  0  0  0  0  0  0  0  0  0
    7.0839   13.0046   26.8018 H   0  0  0  0  0  0  0  0  0  0  0  0
    8.8931   13.0557   25.1479 H   0  0  0  0  0  0  0  0  0  0  0  0
   15.5583   12.1311   28.0194 H   0  0  0  0  0  0  0  0  0  0  0  0
   15.5451   13.9145   24.3125 H   0  0  0  0  0  0  0  0  0  0  0  0
    4.3785    9.6494   27.2880 H   0  0  0  0  0  0  0  0  0  0  0  0
   13.2354   17.3464   18.7262 H   0  0  0  0  0  0  0  0  0  0  0  0
   13.6500   15.6519   18.4052 H   0  0  0  0  0  0  0  0  0  0  0  0
   14.9929   16.1230   20.3744 H   0  0  0  0  0  0  0  0  0  0  0  0
   13.6679   17.0560   21.0992 H   0  0  0  0  0  0  0  0  0  0  0  0
   11.1915   16.7123   19.8470 H   0  0  0  0  0  0  0  0  0  0  0  0
   11.2867   15.4253   18.6247 H   0  0  0  0  0  0  0  0  0  0  0  0
   13.7662   14.0425   20.5813 H   0  0  0  0  0  0  0  0  0  0  0  0
   10.4768    8.9202   22.7209 H   0  0  0  0  0  0  0  0  0  0  0  0
    8.8978    8.9290   21.8645 H   0  0  0  0  0  0  0  0  0  0  0  0
   10.1320   10.1469   21.4538 H   0  0  0  0  0  0  0  0  0  0  0  0
   14.3756   12.5456   22.3855 H   0  0  0  0  0  0  0  0  0  0  0  0
   12.9788   11.5638   22.8292 H   0  0  0  0  0  0  0  0  0  0  0  0
   14.3393   14.8679   22.8428 H   0  0  0  0  0  0  0  0  0  0  0  0
   12.7481   15.6985   22.9131 H   0  0  0  0  0  0  0  0  0  0  0  0
   11.1845   11.7578   22.2298 H   0  0  0  0  0  0  0  0  0  0  0  0
  1  3  1  0  0  0  0
  1  6  2  0  0  0  0
  2  4  1  0  0  0  0
  2  8  2  0  0  0  0
  3  9  2  0  0  0  0
  4 11  2  0  0  0  0
  5 10  1  0  0  0  0
  5 12  2  0  0  0  0
  6 21  1  0  0  0  0
  7  9  1  0  0  0  0
  7 21  2  0  0  0  0
  8 27  1  0  0  0  0
  9 19  1  0  0  0  0
 10 11  1  0  0  0  0
 10 22  2  0  0  0  0
 11 27  1  0  0  0  0
 12 23  1  0  0  0  0
 12 24  1  0  0  0  0
 13 24  1  0  0  0  0
 13 25  1  0  0  0  0
 13 26  2  0  0  0  0
 14 15  1  0  0  0  0
 14 16  1  0  0  0  0
 15 17  1  0  0  0  0
 16 28  1  0  0  0  0
 17 20  1  0  0  0  0
 17 28  1  0  0  0  0
 18 23  1  0  0  0  0
 19 25  1  0  0  0  0
 20 25  1  0  0  0  0
 22 23  1  0  0  0  0
  1 29  1  0  0  0  0
  2 30  1  0  0  0  0
  3 31  1  0  0  0  0
  4 32  1  0  0  0  0
  5 33  1  0  0  0  0
  6 34  1  0  0  0  0
  7 35  1  0  0  0  0
  8 36  1  0  0  0  0
 14 37  1  0  0  0  0
 14 38  1  0  0  0  0
 15 39  1  0  0  0  0
 15 40  1  0  0  0  0
 16 41  1  0  0  0  0
 16 42  1  0  0  0  0
 17 43  1  0  0  0  0
 18 44  1  0  0  0  0
 18 45  1  0  0  0  0
 18 46  1  0  0  0  0
 19 47  1  0  0  0  0
 19 48  1  0  0  0  0
 20 49  1  0  0  0  0
 20 50  1  0  0  0  0
 24 51  1  0  0  0  0
M  END
> <Catalog ID>
Z1893068050

> <PlateID>
1041831-R-27

> <Well>
E02

> <MW (desalted)>
381.428

> <ClogP>
1.870

> <HBD>
1

> <TPSA>
85.420

> <RotBonds>
6

> <ROCS_ShapeQuery>
A71EV2A-x0451_0A_A71EV2A-x0310_0A_A71EV2A-x0416_0A_peptide

> <ROCS_TanimotoCombo>
0.542 

> <ROCS_ShapeTanimoto>
0.369 

> <ROCS_ColorTanimoto>
0.172 

> <ROCS_RefTversky>
0.331 

> <ROCS_RefColorTversky>
0.200 

> <ROCS_RefTverskyCombo>
0.531 

> <ROCS_FitTversky>
1.453 

> <ROCS_FitColorTversky>
0.553 

> <ROCS_FitTverskyCombo>
2.006 

> <ROCS_ColorScore>
-6.126

> <ROCS_Overlap>
2305.730

> <ROCS_Rank>
136                 

$$$$
untitled-dbase-2067_985
  -OEChem-11132311063D

 52 55  0     1  0  0  0  0  0999 V2000
    6.9206   13.1712   25.6122 C   0  0  0  0  0  0  0  0  0  0  0  0
    6.1993   12.0234   25.9268 C   0  0  0  0  0  0  0  0  0  0  0  0
    8.0683   13.0803   24.8229 C   0  0  0  0  0  0  0  0  0  0  0  0
    6.6331   10.7833   25.4637 C   0  0  0  0  0  0  0  0  0  0  0  0
    8.5048   11.8406   24.3279 C   0  0  0  0  0  0  0  0  0  0  0  0
    7.7894   10.6885   24.6824 C   0  0  0  0  0  0  0  0  0  0  0  0
   14.2693   16.0112   20.3895 C   0  0  0  0  0  0  0  0  0  0  0  0
   13.8216   16.3498   21.5979 C   0  0  0  0  0  0  0  0  0  0  0  0
   13.4184   15.2616   19.4461 C   0  0  0  0  0  0  0  0  0  0  0  0
   12.4580   15.9920   22.0444 C   0  0  0  0  0  0  0  0  0  0  0  0
   10.3876   14.0335   22.7390 C   0  0  0  0  0  0  0  0  0  0  0  0
   10.4817    9.0966   24.9128 C   0  0  0  0  0  0  0  0  0  0  0  0
    9.4340    7.9090   22.9773 C   0  0  0  0  0  0  0  0  0  0  0  0
    9.8122   10.3791   22.7899 C   0  0  0  0  0  0  0  0  0  0  0  0
   10.2229    7.8477   25.7634 C   0  0  0  0  0  0  0  0  0  0  0  0
    9.2097    6.6984   23.8898 C   0  0  0  0  0  0  0  0  0  0  0  0
    9.7479   11.7408   23.4800 C   0  0  1  0  0  0  0  0  0  0  0  0
    9.4631    9.2389   23.7612 C   0  0  0  0  0  0  0  0  0  0  0  0
   10.0382    5.4470   25.7725 C   0  0  0  0  0  0  0  0  0  0  0  0
   10.3429   14.9135   21.5160 C   0  0  0  0  0  0  0  0  0  0  0  0
   12.1596   14.9420   19.8858 N   0  0  0  0  0  0  0  0  0  0  0  0
   11.7097   15.2996   21.1359 N   0  0  0  0  0  0  0  0  0  0  0  0
   10.2330    6.6334   24.9395 N   0  0  0  0  0  0  0  0  0  0  0  0
    9.8342   12.7866   22.4859 N   0  0  0  0  0  0  0  0  0  0  0  0
   13.8511   14.9590   18.3362 O   0  0  0  0  0  0  0  0  0  0  0  0
   12.0925   16.3292   23.1694 O   0  0  0  0  0  0  0  0  0  0  0  0
   10.8611   14.3935   23.8136 O   0  0  0  0  0  0  0  0  0  0  0  0
    8.1388    9.4204   24.2999 O   0  0  0  0  0  0  0  0  0  0  0  0
    6.5912   14.1382   25.9811 H   0  0  0  0  0  0  0  0  0  0  0  0
    5.3053   12.0931   26.5391 H   0  0  0  0  0  0  0  0  0  0  0  0
    8.6184   13.9907   24.5976 H   0  0  0  0  0  0  0  0  0  0  0  0
    6.0719    9.8897   25.7249 H   0  0  0  0  0  0  0  0  0  0  0  0
   15.2702   16.2772   20.0691 H   0  0  0  0  0  0  0  0  0  0  0  0
   14.4498   16.9006   22.2892 H   0  0  0  0  0  0  0  0  0  0  0  0
   10.4441    9.9637   25.5819 H   0  0  0  0  0  0  0  0  0  0  0  0
   11.4995    9.0501   24.5035 H   0  0  0  0  0  0  0  0  0  0  0  0
   10.3761    7.7754   22.4291 H   0  0  0  0  0  0  0  0  0  0  0  0
    8.6259    7.9299   22.2351 H   0  0  0  0  0  0  0  0  0  0  0  0
    9.0865   10.3634   21.9635 H   0  0  0  0  0  0  0  0  0  0  0  0
   10.8060   10.2272   22.3501 H   0  0  0  0  0  0  0  0  0  0  0  0
   11.0138    7.7856   26.5209 H   0  0  0  0  0  0  0  0  0  0  0  0
    9.2706    7.9519   26.2998 H   0  0  0  0  0  0  0  0  0  0  0  0
    8.2020    6.7376   24.3238 H   0  0  0  0  0  0  0  0  0  0  0  0
    9.2581    5.7944   23.2702 H   0  0  0  0  0  0  0  0  0  0  0  0
   10.6200   11.8635   24.1319 H   0  0  0  0  0  0  0  0  0  0  0  0
   10.0486    4.5478   25.1390 H   0  0  0  0  0  0  0  0  0  0  0  0
   10.8483    5.3826   26.5138 H   0  0  0  0  0  0  0  0  0  0  0  0
    9.0710    5.5185   26.2916 H   0  0  0  0  0  0  0  0  0  0  0  0
    9.8787   14.3699   20.6877 H   0  0  0  0  0  0  0  0  0  0  0  0
    9.7611   15.8151   21.7288 H   0  0  0  0  0  0  0  0  0  0  0  0
   11.5195   14.4264   19.2897 H   0  0  0  0  0  0  0  0  0  0  0  0
    9.4716   12.5994   21.5556 H   0  0  0  0  0  0  0  0  0  0  0  0
  1  2  2  0  0  0  0
  1  3  1  0  0  0  0
  2  4  1  0  0  0  0
  3  5  2  0  0  0  0
  4  6  2  0  0  0  0
  5  6  1  0  0  0  0
  5 17  1  0  0  0  0
  6 28  1  0  0  0  0
  7  8  2  0  0  0  0
  7  9  1  0  0  0  0
  8 10  1  0  0  0  0
  9 21  1  0  0  0  0
  9 25  2  0  0  0  0
 10 22  1  0  0  0  0
 10 26  2  0  0  0  0
 11 20  1  0  0  0  0
 11 24  1  0  0  0  0
 11 27  2  0  0  0  0
 12 15  1  0  0  0  0
 12 18  1  0  0  0  0
 13 16  1  0  0  0  0
 13 18  1  0  0  0  0
 14 17  1  0  0  0  0
 14 18  1  0  0  0  0
 15 23  1  0  0  0  0
 16 23  1  0  0  0  0
 17 24  1  0  0  0  0
 18 28  1  0  0  0  0
 19 23  1  0  0  0  0
 20 22  1  0  0  0  0
 21 22  1  0  0  0  0
  1 29  1  0  0  0  0
  2 30  1  0  0  0  0
  3 31  1  0  0  0  0
  4 32  1  0  0  0  0
  7 33  1  0  0  0  0
  8 34  1  0  0  0  0
 12 35  1  0  0  0  0
 12 36  1  0  0  0  0
 13 37  1  0  0  0  0
 13 38  1  0  0  0  0
 14 39  1  0  0  0  0
 14 40  1  0  0  0  0
 15 41  1  0  0  0  0
 15 42  1  0  0  0  0
 16 43  1  0  0  0  0
 16 44  1  0  0  0  0
 17 45  1  0  0  0  0
 19 46  1  0  0  0  0
 19 47  1  0  0  0  0
 19 48  1  0  0  0  0
 20 49  1  0  0  0  0
 20 50  1  0  0  0  0
 21 51  1  0  0  0  0
 24 52  1  0  0  0  0
M  END
> <Catalog ID>
Z52237668

> <PlateID>
1041831-R-26

> <Well>
G08

> <MW (desalted)>
384.429

> <ClogP>
0.976

> <HBD>
2

> <TPSA>
90.980

> <RotBonds>
3

> <ROCS_ShapeQuery>
A71EV2A-x0451_0A_A71EV2A-x0310_0A_A71EV2A-x0416_0A_peptide

> <ROCS_TanimotoCombo>
0.541 

> <ROCS_ShapeTanimoto>
0.371 

> <ROCS_ColorTanimoto>
0.170 

> <ROCS_RefTversky>
0.332 

> <ROCS_RefColorTversky>
0.202 

> <ROCS_RefTverskyCombo>
0.535 

> <ROCS_FitTversky>
1.463 

> <ROCS_FitColorTversky>
0.516 

> <ROCS_FitTverskyCombo>
1.979 

> <ROCS_ColorScore>
-6.208

> <ROCS_Overlap>
2312.896

> <ROCS_Rank>
137                 

$$$$
untitled-dbase-3342_862
  -OEChem-11132311063D

 46 49  0     1  0  0  0  0  0999 V2000
   13.7957   16.0101   18.2396 C   0  0  0  0  0  0  0  0  0  0  0  0
   14.6492   15.8019   19.3230 C   0  0  0  0  0  0  0  0  0  0  0  0
   12.4136   15.9952   18.4276 C   0  0  0  0  0  0  0  0  0  0  0  0
   14.1207   15.5787   20.5944 C   0  0  0  0  0  0  0  0  0  0  0  0
   11.8851   15.7720   19.6991 C   0  0  0  0  0  0  0  0  0  0  0  0
    7.9868    7.9402   23.6277 C   0  0  0  0  0  0  0  0  0  0  0  0
   12.7386   15.5637   20.7825 C   0  0  0  0  0  0  0  0  0  0  0  0
    8.6951    9.9470   23.7465 C   0  0  0  0  0  0  0  0  0  0  0  0
    7.5450    9.9033   24.5183 C   0  0  0  0  0  0  0  0  0  0  0  0
    9.3519   11.1709   23.6653 C   0  0  0  0  0  0  0  0  0  0  0  0
    7.7102   12.0444   25.0469 C   0  0  0  0  0  0  0  0  0  0  0  0
   12.3107   12.2730   24.3211 C   0  0  0  0  0  0  0  0  0  0  0  0
   11.8439   11.0819   23.4858 C   0  0  0  0  0  0  0  0  0  0  0  0
   11.8534   13.6666   23.8625 C   0  0  0  0  0  0  0  0  0  0  0  0
   10.5337   11.9585   21.5985 C   0  0  0  0  0  0  0  0  0  0  0  0
   10.7019   13.4770   21.7165 C   0  0  0  0  0  0  0  0  0  0  0  0
   12.1691   15.3233   22.1507 C   0  0  0  0  0  0  0  0  0  0  0  0
    7.1900   13.2464   25.7638 C   0  0  0  0  0  0  0  0  0  0  0  0
    8.9588    8.7173   23.1974 N   0  0  0  0  0  0  0  0  0  0  0  0
    6.9872   10.9138   25.2017 N   0  0  0  0  0  0  0  0  0  0  0  0
    8.8443   12.2363   24.3307 N   0  0  0  0  0  0  0  0  0  0  0  0
    7.1050    8.6132   24.4312 N   0  0  0  0  0  0  0  0  0  0  0  0
   10.5164   11.3054   22.9108 N   0  0  3  0  0  0  0  0  0  0  0  0
   11.9423   13.8953   22.4084 N   0  0  1  0  0  0  0  0  0  0  0  0
    6.0481   13.0072   26.4730 F   0  0  0  0  0  0  0  0  0  0  0  0
    8.0709   13.7649   26.6688 F   0  0  0  0  0  0  0  0  0  0  0  0
    6.8879   14.2716   24.9159 F   0  0  0  0  0  0  0  0  0  0  0  0
   14.2074   16.1853   17.2499 H   0  0  0  0  0  0  0  0  0  0  0  0
   15.7254   15.8146   19.1769 H   0  0  0  0  0  0  0  0  0  0  0  0
   11.7488   16.1583   17.5846 H   0  0  0  0  0  0  0  0  0  0  0  0
   14.7934   15.4172   21.4326 H   0  0  0  0  0  0  0  0  0  0  0  0
   10.8070   15.7619   19.8361 H   0  0  0  0  0  0  0  0  0  0  0  0
    7.8634    6.8916   23.3979 H   0  0  0  0  0  0  0  0  0  0  0  0
   11.9281   12.1168   25.3497 H   0  0  0  0  0  0  0  0  0  0  0  0
   13.4130   12.2535   24.4437 H   0  0  0  0  0  0  0  0  0  0  0  0
   12.5673   10.9160   22.6932 H   0  0  0  0  0  0  0  0  0  0  0  0
   11.8109   10.1979   24.1152 H   0  0  0  0  0  0  0  0  0  0  0  0
   10.8409   13.8871   24.2401 H   0  0  0  0  0  0  0  0  0  0  0  0
   12.5246   14.3853   24.3608 H   0  0  0  0  0  0  0  0  0  0  0  0
    9.5717   11.7775   21.0883 H   0  0  0  0  0  0  0  0  0  0  0  0
   11.2910   11.5071   20.9362 H   0  0  0  0  0  0  0  0  0  0  0  0
   10.7405   13.8698   20.6901 H   0  0  0  0  0  0  0  0  0  0  0  0
    9.8147   13.9292   22.1841 H   0  0  0  0  0  0  0  0  0  0  0  0
   12.8473   15.7019   22.9232 H   0  0  0  0  0  0  0  0  0  0  0  0
   11.2127   15.8419   22.2749 H   0  0  0  0  0  0  0  0  0  0  0  0
    6.2835    8.2267   24.8764 H   0  0  0  0  0  0  0  0  0  0  0  0
  1  2  2  0  0  0  0
  1  3  1  0  0  0  0
  2  4  1  0  0  0  0
  3  5  2  0  0  0  0
  4  7  2  0  0  0  0
  5  7  1  0  0  0  0
  6 19  2  0  0  0  0
  6 22  1  0  0  0  0
  7 17  1  0  0  0  0
  8  9  1  0  0  0  0
  8 10  2  0  0  0  0
  8 19  1  0  0  0  0
  9 20  2  0  0  0  0
  9 22  1  0  0  0  0
 10 21  1  0  0  0  0
 10 23  1  0  0  0  0
 11 18  1  0  0  0  0
 11 20  1  0  0  0  0
 11 21  2  0  0  0  0
 12 13  1  0  0  0  0
 12 14  1  0  0  0  0
 13 23  1  0  0  0  0
 14 24  1  0  0  0  0
 15 16  1  0  0  0  0
 15 23  1  0  0  0  0
 16 24  1  0  0  0  0
 17 24  1  0  0  0  0
 18 25  1  0  0  0  0
 18 26  1  0  0  0  0
 18 27  1  0  0  0  0
  1 28  1  0  0  0  0
  2 29  1  0  0  0  0
  3 30  1  0  0  0  0
  4 31  1  0  0  0  0
  5 32  1  0  0  0  0
  6 33  1  0  0  0  0
 12 34  1  0  0  0  0
 12 35  1  0  0  0  0
 13 36  1  0  0  0  0
 13 37  1  0  0  0  0
 14 38  1  0  0  0  0
 14 39  1  0  0  0  0
 15 40  1  0  0  0  0
 15 41  1  0  0  0  0
 16 42  1  0  0  0  0
 16 43  1  0  0  0  0
 17 44  1  0  0  0  0
 17 45  1  0  0  0  0
 22 46  1  0  0  0  0
M  END
> <Catalog ID>
Z359363068

> <PlateID>
1041831-R-42

> <Well>
G03

> <MW (desalted)>
376.379

> <ClogP>
3.230

> <HBD>
1

> <TPSA>
60.940

> <RotBonds>
4

> <ROCS_ShapeQuery>
A71EV2A-x0451_0A_A71EV2A-x0310_0A_A71EV2A-x0416_0A_peptide

> <ROCS_TanimotoCombo>
0.541 

> <ROCS_ShapeTanimoto>
0.401 

> <ROCS_ColorTanimoto>
0.141 

> <ROCS_RefTversky>
0.350 

> <ROCS_RefColorTversky>
0.168 

> <ROCS_RefTverskyCombo>
0.518 

> <ROCS_FitTversky>
1.561 

> <ROCS_FitColorTversky>
0.463 

> <ROCS_FitTverskyCombo>
2.024 

> <ROCS_ColorScore>
-5.146

> <ROCS_Overlap>
2437.050

> <ROCS_Rank>
138                 

$$$$
untitled-dbase-33_490
  -OEChem-11132311063D

 39 41  0     0  0  0  0  0  0999 V2000
    3.6504   12.5444   27.5832 C   0  0  0  0  0  0  0  0  0  0  0  0
    3.7533   12.6283   28.9717 C   0  0  0  0  0  0  0  0  0  0  0  0
    4.7929   12.3367   26.8104 C   0  0  0  0  0  0  0  0  0  0  0  0
    4.9988   12.5046   29.5874 C   0  0  0  0  0  0  0  0  0  0  0  0
   12.6259   16.8826   21.8693 C   0  0  0  0  0  0  0  0  0  0  0  0
   12.6339   16.6086   20.5176 C   0  0  0  0  0  0  0  0  0  0  0  0
    6.0384   12.2130   27.4261 C   0  0  0  0  0  0  0  0  0  0  0  0
    6.1413   12.2969   28.8147 C   0  0  0  0  0  0  0  0  0  0  0  0
   11.5681   14.9620   21.9159 C   0  0  0  0  0  0  0  0  0  0  0  0
    9.8727    9.7881   23.1793 C   0  0  0  0  0  0  0  0  0  0  0  0
    8.6336    9.6150   23.6487 C   0  0  0  0  0  0  0  0  0  0  0  0
   10.4904   11.0863   23.1805 C   0  0  0  0  0  0  0  0  0  0  0  0
    9.8196   12.1443   23.6576 C   0  0  0  0  0  0  0  0  0  0  0  0
    7.8674   10.7783   24.1851 C   0  0  0  0  0  0  0  0  0  0  0  0
   10.5292   13.4287   23.6188 C   0  0  0  0  0  0  0  0  0  0  0  0
    7.8244   13.1946   24.6695 C   0  0  0  0  0  0  0  0  0  0  0  0
    7.8289   13.1694   26.1871 C   0  0  0  0  0  0  0  0  0  0  0  0
   12.0148   15.9398   22.6726 N   0  0  0  0  0  0  0  0  0  0  0  0
    8.5260   12.0209   24.1582 N   0  0  0  0  0  0  0  0  0  0  0  0
   10.8805   13.7940   22.3266 N   0  0  0  0  0  0  0  0  0  0  0  0
    6.7289   10.5825   24.6096 O   0  0  0  0  0  0  0  0  0  0  0  0
   10.7415   14.0402   24.6645 O   0  0  0  0  0  0  0  0  0  0  0  0
    7.1437   12.0095   26.6421 O   0  0  0  0  0  0  0  0  0  0  0  0
   11.8489   15.1113   20.2295 S   0  0  0  0  0  0  0  0  0  0  0  0
    7.6686   12.1475   29.6027 Cl  0  0  0  0  0  0  0  0  0  0  0  0
    2.6806   12.6408   27.1038 H   0  0  0  0  0  0  0  0  0  0  0  0
    2.8636   12.7900   29.5732 H   0  0  0  0  0  0  0  0  0  0  0  0
    4.7051   12.2724   25.7292 H   0  0  0  0  0  0  0  0  0  0  0  0
    5.0624   12.5723   30.6705 H   0  0  0  0  0  0  0  0  0  0  0  0
   13.0573   17.7637   22.3249 H   0  0  0  0  0  0  0  0  0  0  0  0
   13.0520   17.1958   19.7126 H   0  0  0  0  0  0  0  0  0  0  0  0
   10.4401    8.9516   22.7869 H   0  0  0  0  0  0  0  0  0  0  0  0
    8.1572    8.6416   23.6534 H   0  0  0  0  0  0  0  0  0  0  0  0
   11.4985   11.1581   22.7855 H   0  0  0  0  0  0  0  0  0  0  0  0
    6.8033   13.1825   24.2755 H   0  0  0  0  0  0  0  0  0  0  0  0
    8.3397   14.0871   24.3020 H   0  0  0  0  0  0  0  0  0  0  0  0
    7.3044   14.0468   26.5780 H   0  0  0  0  0  0  0  0  0  0  0  0
    8.8482   13.1555   26.5865 H   0  0  0  0  0  0  0  0  0  0  0  0
   10.6215   13.1603   21.5730 H   0  0  0  0  0  0  0  0  0  0  0  0
  1  2  2  0  0  0  0
  1  3  1  0  0  0  0
  2  4  1  0  0  0  0
  3  7  2  0  0  0  0
  4  8  2  0  0  0  0
  5  6  2  0  0  0  0
  5 18  1  0  0  0  0
  6 24  1  0  0  0  0
  7  8  1  0  0  0  0
  7 23  1  0  0  0  0
  8 25  1  0  0  0  0
  9 18  2  0  0  0  0
  9 20  1  0  0  0  0
  9 24  1  0  0  0  0
 10 11  2  0  0  0  0
 10 12  1  0  0  0  0
 11 14  1  0  0  0  0
 12 13  2  0  0  0  0
 13 15  1  0  0  0  0
 13 19  1  0  0  0  0
 14 19  1  0  0  0  0
 14 21  2  0  0  0  0
 15 20  1  0  0  0  0
 15 22  2  0  0  0  0
 16 17  1  0  0  0  0
 16 19  1  0  0  0  0
 17 23  1  0  0  0  0
  1 26  1  0  0  0  0
  2 27  1  0  0  0  0
  3 28  1  0  0  0  0
  4 29  1  0  0  0  0
  5 30  1  0  0  0  0
  6 31  1  0  0  0  0
 10 32  1  0  0  0  0
 11 33  1  0  0  0  0
 12 34  1  0  0  0  0
 16 35  1  0  0  0  0
 16 36  1  0  0  0  0
 17 37  1  0  0  0  0
 17 38  1  0  0  0  0
 20 39  1  0  0  0  0
M  END
> <Catalog ID>
Z1505513810

> <PlateID>
1041831-R-01

> <Well>
D04

> <MW (desalted)>
375.829

> <ClogP>
2.564

> <HBD>
1

> <TPSA>
71.530

> <RotBonds>
6

> <ROCS_ShapeQuery>
A71EV2A-x0451_0A_A71EV2A-x0310_0A_A71EV2A-x0416_0A_peptide

> <ROCS_TanimotoCombo>
0.541 

> <ROCS_ShapeTanimoto>
0.359 

> <ROCS_ColorTanimoto>
0.182 

> <ROCS_RefTversky>
0.318 

> <ROCS_RefColorTversky>
0.201 

> <ROCS_RefTverskyCombo>
0.519 

> <ROCS_FitTversky>
1.552 

> <ROCS_FitColorTversky>
0.667 

> <ROCS_FitTverskyCombo>
2.220 

> <ROCS_ColorScore>
-6.128

> <ROCS_Overlap>
2211.831

> <ROCS_Rank>
139                 

$$$$
untitled-dbase-2612_2205
  -OEChem-11132311063D

 40 42  0     1  0  0  0  0  0999 V2000
    7.0101   12.8413   25.6800 C   0  0  0  0  0  0  0  0  0  0  0  0
    6.7276   11.6635   26.3692 C   0  0  0  0  0  0  0  0  0  0  0  0
    7.8476   12.8317   24.5587 C   0  0  0  0  0  0  0  0  0  0  0  0
    7.2709   10.4418   25.9615 C   0  0  0  0  0  0  0  0  0  0  0  0
   13.6948   16.6620   20.6648 C   0  0  0  0  0  0  0  0  0  0  0  0
    9.4791    9.8815   23.1462 C   0  0  0  0  0  0  0  0  0  0  0  0
   13.3046   15.5610   18.2470 C   0  0  0  0  0  0  0  0  0  0  0  0
    8.4070   11.6119   24.1290 C   0  0  0  0  0  0  0  0  0  0  0  0
    9.2739   11.2394   23.0637 C   0  0  0  0  0  0  0  0  0  0  0  0
    8.1063   10.4475   24.8389 C   0  0  0  0  0  0  0  0  0  0  0  0
   13.1174   15.4185   20.5080 C   0  0  0  0  0  0  0  0  0  0  0  0
   14.0587   17.3026   19.4980 C   0  0  0  0  0  0  0  0  0  0  0  0
   12.6846   14.6344   21.6933 C   0  0  0  0  0  0  0  0  0  0  0  0
   10.6506   13.8376   23.7470 C   0  0  0  0  0  0  0  0  0  0  0  0
   14.6913   18.6520   19.5667 C   0  0  0  0  0  0  0  0  0  0  0  0
    9.8561   12.1396   22.0476 C   0  0  0  0  0  0  0  0  0  0  0  0
   11.0526   12.9775   22.5578 C   0  0  1  0  0  0  0  0  0  0  0  0
   12.9065   14.8357   19.3096 N   0  0  0  0  0  0  0  0  0  0  0  0
   13.8778   16.7794   18.2676 N   0  0  0  0  0  0  0  0  0  0  0  0
    8.7706    9.4127   24.2199 N   0  0  0  0  0  0  0  0  0  0  0  0
   11.6044   13.7850   21.4989 N   0  0  0  0  0  0  0  0  0  0  0  0
   13.2726   14.7867   22.7608 O   0  0  0  0  0  0  0  0  0  0  0  0
   10.7496   13.4579   24.9091 O   0  0  0  0  0  0  0  0  0  0  0  0
   10.1781   15.0660   23.4266 O   0  0  0  0  0  0  0  0  0  0  0  0
    6.5754   13.7789   26.0159 H   0  0  0  0  0  0  0  0  0  0  0  0
    6.0746   11.6940   27.2376 H   0  0  0  0  0  0  0  0  0  0  0  0
    8.0574   13.7582   24.0317 H   0  0  0  0  0  0  0  0  0  0  0  0
    7.0512    9.5258   26.4992 H   0  0  0  0  0  0  0  0  0  0  0  0
   13.8528   17.1067   21.6400 H   0  0  0  0  0  0  0  0  0  0  0  0
   10.0640    9.2060   22.5372 H   0  0  0  0  0  0  0  0  0  0  0  0
   13.1461   15.1171   17.2717 H   0  0  0  0  0  0  0  0  0  0  0  0
   15.7820   18.5591   19.6335 H   0  0  0  0  0  0  0  0  0  0  0  0
   14.4465   19.2519   18.6807 H   0  0  0  0  0  0  0  0  0  0  0  0
   14.3355   19.2144   20.4396 H   0  0  0  0  0  0  0  0  0  0  0  0
    9.0738   12.8261   21.6653 H   0  0  0  0  0  0  0  0  0  0  0  0
   10.1771   11.5767   21.1463 H   0  0  0  0  0  0  0  0  0  0  0  0
   11.8657   12.3251   22.8966 H   0  0  0  0  0  0  0  0  0  0  0  0
    8.7394    8.4469   24.5159 H   0  0  0  0  0  0  0  0  0  0  0  0
   11.1302   13.7609   20.6001 H   0  0  0  0  0  0  0  0  0  0  0  0
   10.1451   15.2569   22.4656 H   0  0  0  0  0  0  0  0  0  0  0  0
  1  2  2  0  0  0  0
  1  3  1  0  0  0  0
  2  4  1  0  0  0  0
  3  8  2  0  0  0  0
  4 10  2  0  0  0  0
  5 11  1  0  0  0  0
  5 12  2  0  0  0  0
  6  9  2  0  0  0  0
  6 20  1  0  0  0  0
  7 18  1  0  0  0  0
  7 19  2  0  0  0  0
  8  9  1  0  0  0  0
  8 10  1  0  0  0  0
  9 16  1  0  0  0  0
 10 20  1  0  0  0  0
 11 13  1  0  0  0  0
 11 18  2  0  0  0  0
 12 15  1  0  0  0  0
 12 19  1  0  0  0  0
 13 21  1  0  0  0  0
 13 22  2  0  0  0  0
 14 17  1  0  0  0  0
 14 23  2  0  0  0  0
 14 24  1  0  0  0  0
 16 17  1  0  0  0  0
 17 21  1  0  0  0  0
  1 25  1  0  0  0  0
  2 26  1  0  0  0  0
  3 27  1  0  0  0  0
  4 28  1  0  0  0  0
  5 29  1  0  0  0  0
  6 30  1  0  0  0  0
  7 31  1  0  0  0  0
 15 32  1  0  0  0  0
 15 33  1  0  0  0  0
 15 34  1  0  0  0  0
 16 35  1  0  0  0  0
 16 36  1  0  0  0  0
 17 37  1  0  0  0  0
 20 38  1  0  0  0  0
 21 39  1  0  0  0  0
 24 40  1  0  0  0  0
M  END
> <Catalog ID>
Z1603366075

> <PlateID>
1041831-R-33

> <Well>
F03

> <MW (desalted)>
324.334

> <ClogP>
1.684

> <HBD>
3

> <TPSA>
107.970

> <RotBonds>
5

> <ROCS_ShapeQuery>
A71EV2A-x0451_0A_A71EV2A-x0310_0A_A71EV2A-x0416_0A_peptide

> <ROCS_TanimotoCombo>
0.541 

> <ROCS_ShapeTanimoto>
0.353 

> <ROCS_ColorTanimoto>
0.188 

> <ROCS_RefTversky>
0.314 

> <ROCS_RefColorTversky>
0.221 

> <ROCS_RefTverskyCombo>
0.534 

> <ROCS_FitTversky>
1.547 

> <ROCS_FitColorTversky>
0.561 

> <ROCS_FitTverskyCombo>
2.108 

> <ROCS_ColorScore>
-6.768

> <ROCS_Overlap>
2181.026

> <ROCS_Rank>
140                 

$$$$
untitled-dbase-1678_9
  -OEChem-11132311063D

 46 50  0     0  0  0  0  0  0999 V2000
   13.6729   15.5743   18.4446 C   0  0  0  0  0  0  0  0  0  0  0  0
   14.0125   16.9071   18.6849 C   0  0  0  0  0  0  0  0  0  0  0  0
   13.0089   14.8138   19.4153 C   0  0  0  0  0  0  0  0  0  0  0  0
   13.7017   17.5259   19.9002 C   0  0  0  0  0  0  0  0  0  0  0  0
   12.6897   15.4214   20.6412 C   0  0  0  0  0  0  0  0  0  0  0  0
   13.0395   16.7502   20.8543 C   0  0  0  0  0  0  0  0  0  0  0  0
   12.0522   15.0311   21.8385 C   0  0  0  0  0  0  0  0  0  0  0  0
   10.8835   13.2908   23.2340 C   0  0  0  0  0  0  0  0  0  0  0  0
    6.4256   10.5403   24.0422 C   0  0  0  0  0  0  0  0  0  0  0  0
    7.0577   12.2673   25.7467 C   0  0  0  0  0  0  0  0  0  0  0  0
    7.8735    9.9087   25.9895 C   0  0  0  0  0  0  0  0  0  0  0  0
    8.0314   12.3695   23.4378 C   0  0  0  0  0  0  0  0  0  0  0  0
    8.8490   10.0055   23.6810 C   0  0  0  0  0  0  0  0  0  0  0  0
    9.4827   11.7362   25.3895 C   0  0  0  0  0  0  0  0  0  0  0  0
    6.7748   12.0226   24.2552 C   0  0  0  0  0  0  0  0  0  0  0  0
    7.5947    9.6522   24.4992 C   0  0  0  0  0  0  0  0  0  0  0  0
    8.2300   11.3878   26.2123 C   0  0  0  0  0  0  0  0  0  0  0  0
    9.2254   11.4924   23.8835 C   0  0  0  0  0  0  0  0  0  0  0  0
   10.4736   11.8401   23.0682 C   0  0  0  0  0  0  0  0  0  0  0  0
   11.9951   16.0143   22.7396 N   0  0  0  0  0  0  0  0  0  0  0  0
   12.5992   17.0405   22.1174 N   0  0  0  0  0  0  0  0  0  0  0  0
   11.5222   13.7418   22.0823 N   0  0  0  0  0  0  0  0  0  0  0  0
   10.6580   13.9259   24.2588 O   0  0  0  0  0  0  0  0  0  0  0  0
   13.9253   15.1203   17.4899 H   0  0  0  0  0  0  0  0  0  0  0  0
   14.5268   17.4756   17.9139 H   0  0  0  0  0  0  0  0  0  0  0  0
   12.7503   13.7785   19.2150 H   0  0  0  0  0  0  0  0  0  0  0  0
   13.9639   18.5609   20.0886 H   0  0  0  0  0  0  0  0  0  0  0  0
    5.5191   10.2846   24.6047 H   0  0  0  0  0  0  0  0  0  0  0  0
    6.2059   10.3552   22.9835 H   0  0  0  0  0  0  0  0  0  0  0  0
    7.2931   13.3254   25.9148 H   0  0  0  0  0  0  0  0  0  0  0  0
    6.1625   12.0424   26.3394 H   0  0  0  0  0  0  0  0  0  0  0  0
    6.9927    9.6418   26.5864 H   0  0  0  0  0  0  0  0  0  0  0  0
    8.6961    9.2692   26.3326 H   0  0  0  0  0  0  0  0  0  0  0  0
    7.8287   12.2199   22.3694 H   0  0  0  0  0  0  0  0  0  0  0  0
    8.2726   13.4325   23.5665 H   0  0  0  0  0  0  0  0  0  0  0  0
    9.6818    9.3584   23.9857 H   0  0  0  0  0  0  0  0  0  0  0  0
    8.6649    9.8020   22.6182 H   0  0  0  0  0  0  0  0  0  0  0  0
    9.7573   12.7848   25.5627 H   0  0  0  0  0  0  0  0  0  0  0  0
   10.3296   11.1283   25.7330 H   0  0  0  0  0  0  0  0  0  0  0  0
    5.9376   12.6501   23.9298 H   0  0  0  0  0  0  0  0  0  0  0  0
    7.3395    8.5975   24.3470 H   0  0  0  0  0  0  0  0  0  0  0  0
    8.4255   11.5650   27.2758 H   0  0  0  0  0  0  0  0  0  0  0  0
   10.2712   11.6452   22.0131 H   0  0  0  0  0  0  0  0  0  0  0  0
   11.2958   11.1981   23.3906 H   0  0  0  0  0  0  0  0  0  0  0  0
   12.6794   17.9193   22.6135 H   0  0  0  0  0  0  0  0  0  0  0  0
   11.6266   13.0771   21.3185 H   0  0  0  0  0  0  0  0  0  0  0  0
  1  2  2  0  0  0  0
  1  3  1  0  0  0  0
  2  4  1  0  0  0  0
  3  5  2  0  0  0  0
  4  6  2  0  0  0  0
  5  6  1  0  0  0  0
  5  7  1  0  0  0  0
  6 21  1  0  0  0  0
  7 20  2  0  0  0  0
  7 22  1  0  0  0  0
  8 19  1  0  0  0  0
  8 22  1  0  0  0  0
  8 23  2  0  0  0  0
  9 15  1  0  0  0  0
  9 16  1  0  0  0  0
 10 15  1  0  0  0  0
 10 17  1  0  0  0  0
 11 16  1  0  0  0  0
 11 17  1  0  0  0  0
 12 15  1  0  0  0  0
 12 18  1  0  0  0  0
 13 16  1  0  0  0  0
 13 18  1  0  0  0  0
 14 17  1  0  0  0  0
 14 18  1  0  0  0  0
 18 19  1  0  0  0  0
 20 21  1  0  0  0  0
  1 24  1  0  0  0  0
  2 25  1  0  0  0  0
  3 26  1  0  0  0  0
  4 27  1  0  0  0  0
  9 28  1  0  0  0  0
  9 29  1  0  0  0  0
 10 30  1  0  0  0  0
 10 31  1  0  0  0  0
 11 32  1  0  0  0  0
 11 33  1  0  0  0  0
 12 34  1  0  0  0  0
 12 35  1  0  0  0  0
 13 36  1  0  0  0  0
 13 37  1  0  0  0  0
 14 38  1  0  0  0  0
 14 39  1  0  0  0  0
 15 40  1  0  0  0  0
 16 41  1  0  0  0  0
 17 42  1  0  0  0  0
 19 43  1  0  0  0  0
 19 44  1  0  0  0  0
 21 45  1  0  0  0  0
 22 46  1  0  0  0  0
M  END
> <Catalog ID>
Z333062210

> <PlateID>
1041831-R-21

> <Well>
H09

> <MW (desalted)>
309.405

> <ClogP>
5.744

> <HBD>
2

> <TPSA>
57.780

> <RotBonds>
3

> <ROCS_ShapeQuery>
A71EV2A-x0451_0A_A71EV2A-x0310_0A_A71EV2A-x0416_0A_peptide

> <ROCS_TanimotoCombo>
0.541 

> <ROCS_ShapeTanimoto>
0.323 

> <ROCS_ColorTanimoto>
0.218 

> <ROCS_RefTversky>
0.293 

> <ROCS_RefColorTversky>
0.257 

> <ROCS_RefTverskyCombo>
0.550 

> <ROCS_FitTversky>
1.473 

> <ROCS_FitColorTversky>
0.587 

> <ROCS_FitTverskyCombo>
2.060 

> <ROCS_ColorScore>
-7.898

> <ROCS_Overlap>
2035.873

> <ROCS_Rank>
141                 

$$$$
untitled-dbase-2410_130
  -OEChem-11132311063D

 45 48  0     1  0  0  0  0  0999 V2000
   11.1799   14.4995   20.7502 C   0  0  0  0  0  0  0  0  0  0  0  0
   12.1705   15.2967   20.1085 C   0  0  0  0  0  0  0  0  0  0  0  0
   11.5977   14.0585   21.9890 C   0  0  0  0  0  0  0  0  0  0  0  0
   13.3010   15.4207   20.8881 C   0  0  0  0  0  0  0  0  0  0  0  0
   10.8776   13.2203   22.9607 C   0  0  0  0  0  0  0  0  0  0  0  0
   12.1027   15.9386   18.7624 C   0  0  0  0  0  0  0  0  0  0  0  0
   14.4934   16.2186   20.4755 C   0  0  0  0  0  0  0  0  0  0  0  0
    7.2518   12.6063   24.2697 C   0  0  0  0  0  0  0  0  0  0  0  0
   14.4321   16.4505   18.9582 C   0  0  0  0  0  0  0  0  0  0  0  0
    6.4218   11.3269   24.2978 C   0  0  0  0  0  0  0  0  0  0  0  0
    8.7027   12.1481   24.3483 C   0  0  2  0  0  0  0  0  0  0  0  0
    9.2930   11.3434   23.1608 C   0  0  2  0  0  0  0  0  0  0  0  0
    8.5576   10.8312   25.1378 C   0  0  2  0  0  0  0  0  0  0  0  0
    9.5467   10.1521   24.1414 C   0  0  0  0  0  0  0  0  0  0  0  0
    9.0890    8.8045   23.5861 C   0  0  0  0  0  0  0  0  0  0  0  0
   10.9568   10.0415   24.7337 C   0  0  0  0  0  0  0  0  0  0  0  0
   11.1743   11.1146   21.5776 C   0  0  0  0  0  0  0  0  0  0  0  0
   10.4833   11.9391   22.5652 N   0  0  0  0  0  0  0  0  0  0  0  0
   10.6857   13.7159   24.0705 O   0  0  0  0  0  0  0  0  0  0  0  0
   13.1334   16.9312   18.5737 O   0  0  0  0  0  0  0  0  0  0  0  0
    7.1664   10.4234   25.1232 O   0  0  0  0  0  0  0  0  0  0  0  0
   13.1784   14.6049   22.3706 S   0  0  0  0  0  0  0  0  0  0  0  0
   10.2131   14.2609   20.3248 H   0  0  0  0  0  0  0  0  0  0  0  0
   12.2039   15.1821   17.9759 H   0  0  0  0  0  0  0  0  0  0  0  0
   11.1396   16.4408   18.6261 H   0  0  0  0  0  0  0  0  0  0  0  0
   14.4585   17.1853   20.9923 H   0  0  0  0  0  0  0  0  0  0  0  0
   15.4311   15.7195   20.7410 H   0  0  0  0  0  0  0  0  0  0  0  0
    7.0441   13.2147   23.3848 H   0  0  0  0  0  0  0  0  0  0  0  0
    7.0170   13.2089   25.1555 H   0  0  0  0  0  0  0  0  0  0  0  0
   15.1703   17.2047   18.6676 H   0  0  0  0  0  0  0  0  0  0  0  0
   14.6555   15.5323   18.4006 H   0  0  0  0  0  0  0  0  0  0  0  0
    5.4269   11.4882   24.7212 H   0  0  0  0  0  0  0  0  0  0  0  0
    6.3222   10.8837   23.3022 H   0  0  0  0  0  0  0  0  0  0  0  0
    9.3846   12.8784   24.7980 H   0  0  0  0  0  0  0  0  0  0  0  0
    8.5580   11.1230   22.3768 H   0  0  0  0  0  0  0  0  0  0  0  0
    8.9124   10.8871   26.1729 H   0  0  0  0  0  0  0  0  0  0  0  0
    9.2916    8.0186   24.3117 H   0  0  0  0  0  0  0  0  0  0  0  0
    9.6238    8.5851   22.6636 H   0  0  0  0  0  0  0  0  0  0  0  0
    8.0202    8.8341   23.3809 H   0  0  0  0  0  0  0  0  0  0  0  0
   11.0065    9.1801   25.3944 H   0  0  0  0  0  0  0  0  0  0  0  0
   11.1857   10.9424   25.2967 H   0  0  0  0  0  0  0  0  0  0  0  0
   11.6795    9.9234   23.9308 H   0  0  0  0  0  0  0  0  0  0  0  0
   11.9315   10.4957   22.0811 H   0  0  0  0  0  0  0  0  0  0  0  0
   10.4471   10.4637   21.0702 H   0  0  0  0  0  0  0  0  0  0  0  0
   11.6647   11.7635   20.8370 H   0  0  0  0  0  0  0  0  0  0  0  0
  1  2  1  0  0  0  0
  1  3  2  0  0  0  0
  2  4  2  0  0  0  0
  2  6  1  0  0  0  0
  3  5  1  0  0  0  0
  3 22  1  0  0  0  0
  4  7  1  0  0  0  0
  4 22  1  0  0  0  0
  5 18  1  0  0  0  0
  5 19  2  0  0  0  0
  6 20  1  0  0  0  0
  7  9  1  0  0  0  0
  8 10  1  0  0  0  0
  8 11  1  0  0  0  0
  9 20  1  0  0  0  0
 10 21  1  0  0  0  0
 11 12  1  0  0  0  0
 11 13  1  0  0  0  0
 12 14  1  0  0  0  0
 12 18  1  0  0  0  0
 13 14  1  0  0  0  0
 13 21  1  0  0  0  0
 14 15  1  0  0  0  0
 14 16  1  0  0  0  0
 17 18  1  0  0  0  0
  1 23  1  0  0  0  0
  6 24  1  0  0  0  0
  6 25  1  0  0  0  0
  7 26  1  0  0  0  0
  7 27  1  0  0  0  0
  8 28  1  0  0  0  0
  8 29  1  0  0  0  0
  9 30  1  0  0  0  0
  9 31  1  0  0  0  0
 10 32  1  0  0  0  0
 10 33  1  0  0  0  0
 11 34  1  0  0  0  0
 12 35  1  0  0  0  0
 13 36  1  0  0  0  0
 15 37  1  0  0  0  0
 15 38  1  0  0  0  0
 15 39  1  0  0  0  0
 16 40  1  0  0  0  0
 16 41  1  0  0  0  0
 16 42  1  0  0  0  0
 17 43  1  0  0  0  0
 17 44  1  0  0  0  0
 17 45  1  0  0  0  0
M  END
> <Catalog ID>
Z1251531628

> <PlateID>
1041831-R-31

> <Well>
A11

> <MW (desalted)>
321.434

> <ClogP>
0.967

> <HBD>
0

> <TPSA>
38.770

> <RotBonds>
2

> <ROCS_ShapeQuery>
A71EV2A-x0451_0A_A71EV2A-x0310_0A_A71EV2A-x0416_0A_peptide

> <ROCS_TanimotoCombo>
0.541 

> <ROCS_ShapeTanimoto>
0.335 

> <ROCS_ColorTanimoto>
0.206 

> <ROCS_RefTversky>
0.297 

> <ROCS_RefColorTversky>
0.240 

> <ROCS_RefTverskyCombo>
0.537 

> <ROCS_FitTversky>
1.598 

> <ROCS_FitColorTversky>
0.598 

> <ROCS_FitTverskyCombo>
2.196 

> <ROCS_ColorScore>
-7.351

> <ROCS_Overlap>
2064.809

> <ROCS_Rank>
142                 

$$$$
untitled-dbase-1639_10
  -OEChem-11132311063D

 42 45  0     1  0  0  0  0  0999 V2000
    9.7205   16.3724   19.8239 C   0  0  0  0  0  0  0  0  0  0  0  0
    8.9766   16.2090   20.9924 C   0  0  0  0  0  0  0  0  0  0  0  0
   10.9339   15.7018   19.6701 C   0  0  0  0  0  0  0  0  0  0  0  0
    9.4460   15.3750   22.0072 C   0  0  0  0  0  0  0  0  0  0  0  0
   11.4034   14.8678   20.6848 C   0  0  0  0  0  0  0  0  0  0  0  0
   10.6595   14.7044   21.8534 C   0  0  0  0  0  0  0  0  0  0  0  0
    7.5674    8.5935   21.8569 C   0  0  0  0  0  0  0  0  0  0  0  0
    8.9088    8.0336   22.3359 C   0  0  0  0  0  0  0  0  0  0  0  0
    7.6661   10.1131   21.9712 C   0  0  0  0  0  0  0  0  0  0  0  0
    9.7687    9.2379   22.7159 C   0  0  0  0  0  0  0  0  0  0  0  0
    8.1872   12.4158   25.6014 C   0  0  0  0  0  0  0  0  0  0  0  0
    6.7879   12.0261   25.1358 C   0  0  0  0  0  0  0  0  0  0  0  0
    9.1387   11.5508   24.7847 C   0  0  2  0  0  0  0  0  0  0  0  0
    9.2306   11.7861   23.2533 C   0  0  2  0  0  0  0  0  0  0  0  0
    8.2656   10.3088   24.5236 C   0  0  2  0  0  0  0  0  0  0  0  0
    8.7380   10.3237   23.0364 C   0  0  0  0  0  0  0  0  0  0  0  0
   10.5824   12.1588   22.7201 N   0  0  0  0  0  0  0  0  0  0  0  0
   12.7005   13.5841   23.0320 O   0  0  0  0  0  0  0  0  0  0  0  0
   10.6365   14.0972   24.3741 O   0  0  0  0  0  0  0  0  0  0  0  0
    6.8833   10.6339   24.8137 O   0  0  0  0  0  0  0  0  0  0  0  0
   11.2556   13.6502   23.1410 S   0  0  0  0  0  0  0  0  0  0  0  0
    9.3558   17.0222   19.0337 H   0  0  0  0  0  0  0  0  0  0  0  0
    8.0323   16.7317   21.1131 H   0  0  0  0  0  0  0  0  0  0  0  0
   11.5131   15.8298   18.7605 H   0  0  0  0  0  0  0  0  0  0  0  0
    8.8590   15.2554   22.9139 H   0  0  0  0  0  0  0  0  0  0  0  0
   12.3505   14.3513   20.5549 H   0  0  0  0  0  0  0  0  0  0  0  0
    7.3255    8.2695   20.8288 H   0  0  0  0  0  0  0  0  0  0  0  0
    6.7550    8.2175   22.5075 H   0  0  0  0  0  0  0  0  0  0  0  0
    8.7850    7.3290   23.1829 H   0  0  0  0  0  0  0  0  0  0  0  0
    9.3910    7.4599   21.5166 H   0  0  0  0  0  0  0  0  0  0  0  0
    7.9821   10.5221   21.0083 H   0  0  0  0  0  0  0  0  0  0  0  0
    6.7001   10.5472   22.2286 H   0  0  0  0  0  0  0  0  0  0  0  0
   10.3554    8.9826   23.6065 H   0  0  0  0  0  0  0  0  0  0  0  0
   10.4697    9.5078   21.9222 H   0  0  0  0  0  0  0  0  0  0  0  0
    8.3783   13.4864   25.4853 H   0  0  0  0  0  0  0  0  0  0  0  0
    8.2975   12.1673   26.6638 H   0  0  0  0  0  0  0  0  0  0  0  0
    6.0354   12.1806   25.9129 H   0  0  0  0  0  0  0  0  0  0  0  0
    6.4917   12.5692   24.2335 H   0  0  0  0  0  0  0  0  0  0  0  0
   10.1005   11.3433   25.2722 H   0  0  0  0  0  0  0  0  0  0  0  0
    8.5103   12.5392   22.9035 H   0  0  0  0  0  0  0  0  0  0  0  0
    8.5622    9.4257   25.0964 H   0  0  0  0  0  0  0  0  0  0  0  0
   11.1728   11.3690   22.4821 H   0  0  0  0  0  0  0  0  0  0  0  0
  1  2  2  0  0  0  0
  1  3  1  0  0  0  0
  2  4  1  0  0  0  0
  3  5  2  0  0  0  0
  4  6  2  0  0  0  0
  5  6  1  0  0  0  0
  6 21  1  0  0  0  0
  7  8  1  0  0  0  0
  7  9  1  0  0  0  0
  8 10  1  0  0  0  0
  9 16  1  0  0  0  0
 10 16  1  0  0  0  0
 11 12  1  0  0  0  0
 11 13  1  0  0  0  0
 12 20  1  0  0  0  0
 13 14  1  0  0  0  0
 13 15  1  0  0  0  0
 14 16  1  0  0  0  0
 14 17  1  0  0  0  0
 15 16  1  0  0  0  0
 15 20  1  0  0  0  0
 17 21  1  0  0  0  0
 18 21  2  0  0  0  0
 19 21  2  0  0  0  0
  1 22  1  0  0  0  0
  2 23  1  0  0  0  0
  3 24  1  0  0  0  0
  4 25  1  0  0  0  0
  5 26  1  0  0  0  0
  7 27  1  0  0  0  0
  7 28  1  0  0  0  0
  8 29  1  0  0  0  0
  8 30  1  0  0  0  0
  9 31  1  0  0  0  0
  9 32  1  0  0  0  0
 10 33  1  0  0  0  0
 10 34  1  0  0  0  0
 11 35  1  0  0  0  0
 11 36  1  0  0  0  0
 12 37  1  0  0  0  0
 12 38  1  0  0  0  0
 13 39  1  0  0  0  0
 14 40  1  0  0  0  0
 15 41  1  0  0  0  0
 17 42  1  0  0  0  0
M  END
> <Catalog ID>
Z1514197939

> <PlateID>
1041831-R-21

> <Well>
D10

> <MW (desalted)>
307.408

> <ClogP>
2.790

> <HBD>
1

> <TPSA>
55.400

> <RotBonds>
2

> <ROCS_ShapeQuery>
A71EV2A-x0451_0A_A71EV2A-x0310_0A_A71EV2A-x0416_0A_peptide

> <ROCS_TanimotoCombo>
0.541 

> <ROCS_ShapeTanimoto>
0.314 

> <ROCS_ColorTanimoto>
0.226 

> <ROCS_RefTversky>
0.282 

> <ROCS_RefColorTversky>
0.259 

> <ROCS_RefTverskyCombo>
0.541 

> <ROCS_FitTversky>
1.579 

> <ROCS_FitColorTversky>
0.640 

> <ROCS_FitTverskyCombo>
2.219 

> <ROCS_ColorScore>
-7.965

> <ROCS_Overlap>
1956.640

> <ROCS_Rank>
143                 

$$$$
untitled-dbase-2537_4614
  -OEChem-11132311063D

 49 52  0     0  0  0  0  0  0999 V2000
    9.0157    9.4197   22.5296 C   0  0  0  0  0  0  0  0  0  0  0  0
    5.2487   13.1716   29.0015 C   0  0  0  0  0  0  0  0  0  0  0  0
   10.1312   10.2489   22.4128 C   0  0  0  0  0  0  0  0  0  0  0  0
    6.3384   13.0610   28.1450 C   0  0  0  0  0  0  0  0  0  0  0  0
    8.0158    9.7220   23.4540 C   0  0  0  0  0  0  0  0  0  0  0  0
    9.2472   11.6824   24.1450 C   0  0  0  0  0  0  0  0  0  0  0  0
    4.0326   12.6645   28.5726 C   0  0  0  0  0  0  0  0  0  0  0  0
    4.9233   11.9798   26.5686 C   0  0  0  0  0  0  0  0  0  0  0  0
   10.2470   11.3802   23.2205 C   0  0  0  0  0  0  0  0  0  0  0  0
    6.1810   12.4551   26.9034 C   0  0  0  0  0  0  0  0  0  0  0  0
    8.1316   10.8532   24.2617 C   0  0  0  0  0  0  0  0  0  0  0  0
   11.1266   13.7058   23.4319 C   0  0  0  0  0  0  0  0  0  0  0  0
   13.5766   15.6255   19.0016 C   0  0  0  0  0  0  0  0  0  0  0  0
   13.4879   16.1608   20.4444 C   0  0  0  0  0  0  0  0  0  0  0  0
   12.0477   15.7967   18.9078 C   0  0  0  0  0  0  0  0  0  0  0  0
   11.0329   16.6191   21.1903 C   0  0  0  0  0  0  0  0  0  0  0  0
   11.0373   16.0357   22.5903 C   0  0  0  0  0  0  0  0  0  0  0  0
   11.7692   14.3046   21.0529 C   0  0  0  0  0  0  0  0  0  0  0  0
   11.9978   15.6949   20.4578 C   0  0  0  0  0  0  0  0  0  0  0  0
   11.4468   12.2712   23.0951 C   0  0  0  0  0  0  0  0  0  0  0  0
    7.3376   12.3199   25.9571 C   0  0  0  0  0  0  0  0  0  0  0  0
    3.8412   12.0693   27.3740 N   0  0  0  0  0  0  0  0  0  0  0  0
   11.3044   14.6168   22.4029 N   0  0  0  0  0  0  0  0  0  0  0  0
   10.7384   14.0084   24.5615 O   0  0  0  0  0  0  0  0  0  0  0  0
    7.1555   11.1484   25.1634 O   0  0  0  0  0  0  0  0  0  0  0  0
    8.9254    8.5393   21.9003 H   0  0  0  0  0  0  0  0  0  0  0  0
    5.3480   13.6399   29.9741 H   0  0  0  0  0  0  0  0  0  0  0  0
   10.9054   10.0051   21.6900 H   0  0  0  0  0  0  0  0  0  0  0  0
    7.3054   13.4491   28.4531 H   0  0  0  0  0  0  0  0  0  0  0  0
    7.1494    9.0722   23.5402 H   0  0  0  0  0  0  0  0  0  0  0  0
    9.3349   12.5636   24.7763 H   0  0  0  0  0  0  0  0  0  0  0  0
    3.1522   12.7266   29.2037 H   0  0  0  0  0  0  0  0  0  0  0  0
    4.7399   11.4976   25.6134 H   0  0  0  0  0  0  0  0  0  0  0  0
   14.1657   16.2291   18.3065 H   0  0  0  0  0  0  0  0  0  0  0  0
   13.9101   14.5834   18.9370 H   0  0  0  0  0  0  0  0  0  0  0  0
   14.1500   15.6803   21.1666 H   0  0  0  0  0  0  0  0  0  0  0  0
   13.6133   17.2462   20.5147 H   0  0  0  0  0  0  0  0  0  0  0  0
   11.7498   16.7737   18.5032 H   0  0  0  0  0  0  0  0  0  0  0  0
   11.5215   15.0181   18.3443 H   0  0  0  0  0  0  0  0  0  0  0  0
   10.0313   16.6436   20.7511 H   0  0  0  0  0  0  0  0  0  0  0  0
   11.4276   17.6420   21.2097 H   0  0  0  0  0  0  0  0  0  0  0  0
   11.7813   16.4951   23.2477 H   0  0  0  0  0  0  0  0  0  0  0  0
   10.0519   16.1223   23.0621 H   0  0  0  0  0  0  0  0  0  0  0  0
   11.0312   13.7035   20.5144 H   0  0  0  0  0  0  0  0  0  0  0  0
   12.7045   13.7428   21.1456 H   0  0  0  0  0  0  0  0  0  0  0  0
   12.2421   11.9277   23.7589 H   0  0  0  0  0  0  0  0  0  0  0  0
   11.8504   12.2372   22.0821 H   0  0  0  0  0  0  0  0  0  0  0  0
    7.4077   13.1912   25.2970 H   0  0  0  0  0  0  0  0  0  0  0  0
    8.2812   12.2380   26.5073 H   0  0  0  0  0  0  0  0  0  0  0  0
  1  3  1  0  0  0  0
  1  5  2  0  0  0  0
  2  4  1  0  0  0  0
  2  7  2  0  0  0  0
  3  9  2  0  0  0  0
  4 10  2  0  0  0  0
  5 11  1  0  0  0  0
  6  9  1  0  0  0  0
  6 11  2  0  0  0  0
  7 22  1  0  0  0  0
  8 10  1  0  0  0  0
  8 22  2  0  0  0  0
  9 20  1  0  0  0  0
 10 21  1  0  0  0  0
 11 25  1  0  0  0  0
 12 20  1  0  0  0  0
 12 23  1  0  0  0  0
 12 24  2  0  0  0  0
 13 14  1  0  0  0  0
 13 15  1  0  0  0  0
 14 19  1  0  0  0  0
 15 19  1  0  0  0  0
 16 17  1  0  0  0  0
 16 19  1  0  0  0  0
 17 23  1  0  0  0  0
 18 19  1  0  0  0  0
 18 23  1  0  0  0  0
 21 25  1  0  0  0  0
  1 26  1  0  0  0  0
  2 27  1  0  0  0  0
  3 28  1  0  0  0  0
  4 29  1  0  0  0  0
  5 30  1  0  0  0  0
  6 31  1  0  0  0  0
  7 32  1  0  0  0  0
  8 33  1  0  0  0  0
 13 34  1  0  0  0  0
 13 35  1  0  0  0  0
 14 36  1  0  0  0  0
 14 37  1  0  0  0  0
 15 38  1  0  0  0  0
 15 39  1  0  0  0  0
 16 40  1  0  0  0  0
 16 41  1  0  0  0  0
 17 42  1  0  0  0  0
 17 43  1  0  0  0  0
 18 44  1  0  0  0  0
 18 45  1  0  0  0  0
 20 46  1  0  0  0  0
 20 47  1  0  0  0  0
 21 48  1  0  0  0  0
 21 49  1  0  0  0  0
M  END
> <Catalog ID>
Z1575877009

> <PlateID>
1041831-R-32

> <Well>
F08

> <MW (desalted)>
336.427

> <ClogP>
2.753

> <HBD>
0

> <TPSA>
42.430

> <RotBonds>
5

> <ROCS_ShapeQuery>
A71EV2A-x0451_0A_A71EV2A-x0310_0A_A71EV2A-x0416_0A_peptide

> <ROCS_TanimotoCombo>
0.541 

> <ROCS_ShapeTanimoto>
0.358 

> <ROCS_ColorTanimoto>
0.182 

> <ROCS_RefTversky>
0.318 

> <ROCS_RefColorTversky>
0.196 

> <ROCS_RefTverskyCombo>
0.514 

> <ROCS_FitTversky>
1.540 

> <ROCS_FitColorTversky>
0.725 

> <ROCS_FitTverskyCombo>
2.265 

> <ROCS_ColorScore>
-5.974

> <ROCS_Overlap>
2212.095

> <ROCS_Rank>
144                 

$$$$
untitled-dbase-1496_2403
  -OEChem-11132311063D

 50 53  0     1  0  0  0  0  0999 V2000
   10.1813    7.7414   24.3356 C   0  0  0  0  0  0  0  0  0  0  0  0
    8.2197    7.7062   22.9256 C   0  0  0  0  0  0  0  0  0  0  0  0
   10.2766    6.3532   24.2377 C   0  0  0  0  0  0  0  0  0  0  0  0
    8.3150    6.3180   22.8276 C   0  0  0  0  0  0  0  0  0  0  0  0
    9.1528    8.4179   23.6795 C   0  0  0  0  0  0  0  0  0  0  0  0
    9.3435    5.6416   23.4837 C   0  0  0  0  0  0  0  0  0  0  0  0
    9.5035   11.9345   23.6586 C   0  0  0  0  0  0  0  0  0  0  0  0
    8.2486   11.8684   24.2284 C   0  0  0  0  0  0  0  0  0  0  0  0
    9.0543    9.8581   23.7804 C   0  0  0  0  0  0  0  0  0  0  0  0
   13.5480   15.8917   24.0432 C   0  0  0  0  0  0  0  0  0  0  0  0
   12.3643   14.9468   22.6341 C   0  0  0  0  0  0  0  0  0  0  0  0
   10.2491   13.1226   23.3679 C   0  0  0  0  0  0  0  0  0  0  0  0
    7.3186   12.9271   24.6982 C   0  0  0  0  0  0  0  0  0  0  0  0
    6.9882   12.8010   26.1850 C   0  0  0  0  0  0  0  0  0  0  0  0
    5.9949   11.6823   26.5103 C   0  0  0  0  0  0  0  0  0  0  0  0
    6.5225   10.2630   26.2875 C   0  0  0  0  0  0  0  0  0  0  0  0
    6.7759    9.9207   24.8217 C   0  0  0  0  0  0  0  0  0  0  0  0
   14.0937   16.9390   24.9137 C   0  0  0  0  0  0  0  0  0  0  0  0
   10.4526   15.6286   21.1265 C   0  0  0  0  0  0  0  0  0  0  0  0
   11.3773   14.4998   21.5773 C   0  0  2  0  0  0  0  0  0  0  0  0
    9.9965   10.6844   23.3843 N   0  0  0  0  0  0  0  0  0  0  0  0
   12.5087   16.1232   23.1898 N   0  0  0  0  0  0  0  0  0  0  0  0
   14.0395   14.6491   24.0363 N   0  0  0  0  0  0  0  0  0  0  0  0
    7.9804   10.5267   24.2962 N   0  0  0  0  0  0  0  0  0  0  0  0
   10.6086   13.3610   22.0257 N   0  0  0  0  0  0  0  0  0  0  0  0
   10.5915   13.9177   24.2766 O   0  0  0  0  0  0  0  0  0  0  0  0
   13.2386   14.0083   23.0826 O   0  0  0  0  0  0  0  0  0  0  0  0
    9.4355    4.3086   23.3888 F   0  0  0  0  0  0  0  0  0  0  0  0
   10.9164    8.2815   24.9278 H   0  0  0  0  0  0  0  0  0  0  0  0
    7.4126    8.2191   22.4077 H   0  0  0  0  0  0  0  0  0  0  0  0
   11.0778    5.8267   24.7476 H   0  0  0  0  0  0  0  0  0  0  0  0
    7.5885    5.7638   22.2407 H   0  0  0  0  0  0  0  0  0  0  0  0
    7.7773   13.9093   24.5310 H   0  0  0  0  0  0  0  0  0  0  0  0
    6.4005   12.9103   24.0987 H   0  0  0  0  0  0  0  0  0  0  0  0
    7.9034   12.6688   26.7756 H   0  0  0  0  0  0  0  0  0  0  0  0
    6.5376   13.7464   26.5133 H   0  0  0  0  0  0  0  0  0  0  0  0
    5.7171   11.7764   27.5677 H   0  0  0  0  0  0  0  0  0  0  0  0
    5.0720   11.8283   25.9357 H   0  0  0  0  0  0  0  0  0  0  0  0
    7.4311   10.1056   26.8817 H   0  0  0  0  0  0  0  0  0  0  0  0
    5.7677    9.5663   26.6733 H   0  0  0  0  0  0  0  0  0  0  0  0
    6.8512    8.8337   24.7201 H   0  0  0  0  0  0  0  0  0  0  0  0
    5.9444   10.2456   24.1853 H   0  0  0  0  0  0  0  0  0  0  0  0
   13.5798   16.9624   25.8923 H   0  0  0  0  0  0  0  0  0  0  0  0
   15.1735   16.8020   25.1140 H   0  0  0  0  0  0  0  0  0  0  0  0
   13.9998   17.9488   24.4701 H   0  0  0  0  0  0  0  0  0  0  0  0
    9.8720   16.0228   21.9677 H   0  0  0  0  0  0  0  0  0  0  0  0
   11.0338   16.4536   20.6992 H   0  0  0  0  0  0  0  0  0  0  0  0
    9.7480   15.2981   20.3550 H   0  0  0  0  0  0  0  0  0  0  0  0
   11.9285   14.1487   20.6962 H   0  0  0  0  0  0  0  0  0  0  0  0
   10.3682   12.6633   21.3292 H   0  0  0  0  0  0  0  0  0  0  0  0
  1  3  1  0  0  0  0
  1  5  2  0  0  0  0
  2  4  2  0  0  0  0
  2  5  1  0  0  0  0
  3  6  2  0  0  0  0
  4  6  1  0  0  0  0
  5  9  1  0  0  0  0
  6 28  1  0  0  0  0
  7  8  2  0  0  0  0
  7 12  1  0  0  0  0
  7 21  1  0  0  0  0
  8 13  1  0  0  0  0
  8 24  1  0  0  0  0
  9 21  2  0  0  0  0
  9 24  1  0  0  0  0
 10 18  1  0  0  0  0
 10 22  1  0  0  0  0
 10 23  2  0  0  0  0
 11 20  1  0  0  0  0
 11 22  2  0  0  0  0
 11 27  1  0  0  0  0
 12 25  1  0  0  0  0
 12 26  2  0  0  0  0
 13 14  1  0  0  0  0
 14 15  1  0  0  0  0
 15 16  1  0  0  0  0
 16 17  1  0  0  0  0
 17 24  1  0  0  0  0
 19 20  1  0  0  0  0
 20 25  1  0  0  0  0
 23 27  1  0  0  0  0
  1 29  1  0  0  0  0
  2 30  1  0  0  0  0
  3 31  1  0  0  0  0
  4 32  1  0  0  0  0
 13 33  1  0  0  0  0
 13 34  1  0  0  0  0
 14 35  1  0  0  0  0
 14 36  1  0  0  0  0
 15 37  1  0  0  0  0
 15 38  1  0  0  0  0
 16 39  1  0  0  0  0
 16 40  1  0  0  0  0
 17 41  1  0  0  0  0
 17 42  1  0  0  0  0
 18 43  1  0  0  0  0
 18 44  1  0  0  0  0
 18 45  1  0  0  0  0
 19 46  1  0  0  0  0
 19 47  1  0  0  0  0
 19 48  1  0  0  0  0
 20 49  1  0  0  0  0
 25 50  1  0  0  0  0
M  END
> <Catalog ID>
Z954394372

> <PlateID>
1041831-R-19

> <Well>
F07

> <MW (desalted)>
383.419

> <ClogP>
3.348

> <HBD>
1

> <TPSA>
85.840

> <RotBonds>
4

> <ROCS_ShapeQuery>
A71EV2A-x0451_0A_A71EV2A-x0310_0A_A71EV2A-x0416_0A_peptide

> <ROCS_TanimotoCombo>
0.541 

> <ROCS_ShapeTanimoto>
0.362 

> <ROCS_ColorTanimoto>
0.178 

> <ROCS_RefTversky>
0.327 

> <ROCS_RefColorTversky>
0.206 

> <ROCS_RefTverskyCombo>
0.533 

> <ROCS_FitTversky>
1.432 

> <ROCS_FitColorTversky>
0.568 

> <ROCS_FitTverskyCombo>
2.001 

> <ROCS_ColorScore>
-6.311

> <ROCS_Overlap>
2273.706

> <ROCS_Rank>
145                 

$$$$
untitled-dbase-225_2719
  -OEChem-11132311063D

 47 49  0     1  0  0  0  0  0999 V2000
    6.8385   12.1309   26.0328 C   0  0  0  0  0  0  0  0  0  0  0  0
    6.4509   10.8119   25.8053 C   0  0  0  0  0  0  0  0  0  0  0  0
    7.9125   12.6927   25.3331 C   0  0  0  0  0  0  0  0  0  0  0  0
    7.1217   10.0139   24.8742 C   0  0  0  0  0  0  0  0  0  0  0  0
    9.9423   10.9830   22.8196 C   0  0  0  0  0  0  0  0  0  0  0  0
    8.6041   11.9074   24.3894 C   0  0  0  0  0  0  0  0  0  0  0  0
    9.7081   12.1422   23.5228 C   0  0  0  0  0  0  0  0  0  0  0  0
    8.1936   10.5888   24.1821 C   0  0  0  0  0  0  0  0  0  0  0  0
   10.5007   13.3886   23.3641 C   0  0  0  0  0  0  0  0  0  0  0  0
   13.1307   16.5724   18.9240 C   0  0  0  0  0  0  0  0  0  0  0  0
   13.7298   16.6044   20.3189 C   0  0  0  0  0  0  0  0  0  0  0  0
   12.2711   14.4240   19.3150 C   0  0  0  0  0  0  0  0  0  0  0  0
   12.8761   14.4077   20.7170 C   0  0  2  0  0  0  0  0  0  0  0  0
    9.8520    7.6208   24.8290 C   0  0  0  0  0  0  0  0  0  0  0  0
   11.4028    8.2374   22.9633 C   0  0  0  0  0  0  0  0  0  0  0  0
   11.8604   14.7564   21.8031 C   0  0  0  0  0  0  0  0  0  0  0  0
    8.9497    8.7020   22.7083 C   0  0  0  0  0  0  0  0  0  0  0  0
    9.9957    7.7472   23.3107 C   0  0  0  0  0  0  0  0  0  0  0  0
    9.0236   10.0520   23.2240 N   0  0  0  0  0  0  0  0  0  0  0  0
   11.0555   13.6176   22.1038 N   0  0  0  0  0  0  0  0  0  0  0  0
   10.6468   14.1338   24.3295 O   0  0  0  0  0  0  0  0  0  0  0  0
   11.9550   15.7611   18.9227 O   0  0  0  0  0  0  0  0  0  0  0  0
   14.0126   15.2790   20.7702 O   0  0  0  0  0  0  0  0  0  0  0  0
    6.3014   12.7317   26.7620 H   0  0  0  0  0  0  0  0  0  0  0  0
    5.6138   10.3957   26.3601 H   0  0  0  0  0  0  0  0  0  0  0  0
    8.2024   13.7225   25.5218 H   0  0  0  0  0  0  0  0  0  0  0  0
    6.8156    8.9876   24.7011 H   0  0  0  0  0  0  0  0  0  0  0  0
   10.6827   10.7426   22.0677 H   0  0  0  0  0  0  0  0  0  0  0  0
   12.8644   17.5799   18.5828 H   0  0  0  0  0  0  0  0  0  0  0  0
   13.8420   16.1456   18.2102 H   0  0  0  0  0  0  0  0  0  0  0  0
   14.6607   17.1887   20.3377 H   0  0  0  0  0  0  0  0  0  0  0  0
   13.0294   17.0641   21.0270 H   0  0  0  0  0  0  0  0  0  0  0  0
   12.9791   14.0159   18.5817 H   0  0  0  0  0  0  0  0  0  0  0  0
   11.3531   13.8197   19.2641 H   0  0  0  0  0  0  0  0  0  0  0  0
   13.2598   13.3663   20.9250 H   0  0  0  0  0  0  0  0  0  0  0  0
    9.9695    8.5969   25.3119 H   0  0  0  0  0  0  0  0  0  0  0  0
    8.8686    7.2247   25.1038 H   0  0  0  0  0  0  0  0  0  0  0  0
   10.6160    6.9576   25.2463 H   0  0  0  0  0  0  0  0  0  0  0  0
   11.5806    9.2358   23.3770 H   0  0  0  0  0  0  0  0  0  0  0  0
   12.1619    7.5657   23.3775 H   0  0  0  0  0  0  0  0  0  0  0  0
   11.5499    8.2887   21.8791 H   0  0  0  0  0  0  0  0  0  0  0  0
   12.4173   15.0709   22.6867 H   0  0  0  0  0  0  0  0  0  0  0  0
   11.2399   15.5701   21.4253 H   0  0  0  0  0  0  0  0  0  0  0  0
    9.0432    8.7473   21.6163 H   0  0  0  0  0  0  0  0  0  0  0  0
    7.9340    8.3453   22.9225 H   0  0  0  0  0  0  0  0  0  0  0  0
    9.8707    6.7480   22.8746 H   0  0  0  0  0  0  0  0  0  0  0  0
   10.9335   12.9098   21.3748 H   0  0  0  0  0  0  0  0  0  0  0  0
  1  2  2  0  0  0  0
  1  3  1  0  0  0  0
  2  4  1  0  0  0  0
  3  6  2  0  0  0  0
  4  8  2  0  0  0  0
  5  7  2  0  0  0  0
  5 19  1  0  0  0  0
  6  7  1  0  0  0  0
  6  8  1  0  0  0  0
  7  9  1  0  0  0  0
  8 19  1  0  0  0  0
  9 20  1  0  0  0  0
  9 21  2  0  0  0  0
 10 11  1  0  0  0  0
 10 22  1  0  0  0  0
 11 23  1  0  0  0  0
 12 13  1  0  0  0  0
 12 22  1  0  0  0  0
 13 16  1  0  0  0  0
 13 23  1  0  0  0  0
 14 18  1  0  0  0  0
 15 18  1  0  0  0  0
 16 20  1  0  0  0  0
 17 18  1  0  0  0  0
 17 19  1  0  0  0  0
  1 24  1  0  0  0  0
  2 25  1  0  0  0  0
  3 26  1  0  0  0  0
  4 27  1  0  0  0  0
  5 28  1  0  0  0  0
 10 29  1  0  0  0  0
 10 30  1  0  0  0  0
 11 31  1  0  0  0  0
 11 32  1  0  0  0  0
 12 33  1  0  0  0  0
 12 34  1  0  0  0  0
 13 35  1  0  0  0  0
 14 36  1  0  0  0  0
 14 37  1  0  0  0  0
 14 38  1  0  0  0  0
 15 39  1  0  0  0  0
 15 40  1  0  0  0  0
 15 41  1  0  0  0  0
 16 42  1  0  0  0  0
 16 43  1  0  0  0  0
 17 44  1  0  0  0  0
 17 45  1  0  0  0  0
 18 46  1  0  0  0  0
 20 47  1  0  0  0  0
M  END
> <Catalog ID>
Z774771336

> <PlateID>
1041831-R-03

> <Well>
G06

> <MW (desalted)>
316.395

> <ClogP>
2.775

> <HBD>
1

> <TPSA>
52.490

> <RotBonds>
5

> <ROCS_ShapeQuery>
A71EV2A-x0451_0A_A71EV2A-x0310_0A_A71EV2A-x0416_0A_peptide

> <ROCS_TanimotoCombo>
0.541 

> <ROCS_ShapeTanimoto>
0.360 

> <ROCS_ColorTanimoto>
0.180 

> <ROCS_RefTversky>
0.316 

> <ROCS_RefColorTversky>
0.199 

> <ROCS_RefTverskyCombo>
0.515 

> <ROCS_FitTversky>
1.637 

> <ROCS_FitColorTversky>
0.660 

> <ROCS_FitTverskyCombo>
2.297 

> <ROCS_ColorScore>
-6.072

> <ROCS_Overlap>
2194.567

> <ROCS_Rank>
146                 

$$$$
untitled-dbase-1262_5984
  -OEChem-11132311063D

 44 47  0     0  0  0  0  0  0999 V2000
    6.5810   12.9436   25.7292 C   0  0  0  0  0  0  0  0  0  0  0  0
    6.2610   11.7254   26.3341 C   0  0  0  0  0  0  0  0  0  0  0  0
    7.4821   13.0039   24.6573 C   0  0  0  0  0  0  0  0  0  0  0  0
    6.8271   10.5257   25.8926 C   0  0  0  0  0  0  0  0  0  0  0  0
   11.9769   14.9327   20.8276 C   0  0  0  0  0  0  0  0  0  0  0  0
    8.0632   11.8095   24.1968 C   0  0  0  0  0  0  0  0  0  0  0  0
    8.9856   11.4556   23.1770 C   0  0  0  0  0  0  0  0  0  0  0  0
    7.7189   10.6173   24.8255 C   0  0  0  0  0  0  0  0  0  0  0  0
   12.9295   14.8763   21.8321 C   0  0  0  0  0  0  0  0  0  0  0  0
    9.1400   10.0905   23.2505 C   0  0  0  0  0  0  0  0  0  0  0  0
   13.8581   15.8980   20.2483 C   0  0  0  0  0  0  0  0  0  0  0  0
   12.2947   16.0144   18.5443 C   0  0  0  0  0  0  0  0  0  0  0  0
   13.3306   16.6520   17.9728 C   0  0  0  0  0  0  0  0  0  0  0  0
   11.4305   13.6238   23.4437 C   0  0  0  0  0  0  0  0  0  0  0  0
    9.5357    7.6673   22.7430 C   0  0  0  0  0  0  0  0  0  0  0  0
   12.0049   11.7318   21.8912 C   0  0  0  0  0  0  0  0  0  0  0  0
    9.6485   12.3678   22.2256 C   0  0  0  0  0  0  0  0  0  0  0  0
   12.7952   14.2507   23.1987 C   0  0  0  0  0  0  0  0  0  0  0  0
    9.9427    9.1243   22.4859 C   0  0  0  0  0  0  0  0  0  0  0  0
   14.1127   15.4871   21.4595 N   0  0  0  0  0  0  0  0  0  0  0  0
   12.6021   15.5972   19.8174 N   0  0  0  0  0  0  0  0  0  0  0  0
   11.0369   12.6117   22.5525 N   0  0  0  0  0  0  0  0  0  0  0  0
   10.7238   14.0008   24.3827 O   0  0  0  0  0  0  0  0  0  0  0  0
    8.3760    9.5726   24.2474 O   0  0  0  0  0  0  0  0  0  0  0  0
   14.7512   16.7534   19.0286 S   0  0  0  0  0  0  0  0  0  0  0  0
    6.1251   13.8601   26.0951 H   0  0  0  0  0  0  0  0  0  0  0  0
    5.5582   11.7112   27.1635 H   0  0  0  0  0  0  0  0  0  0  0  0
    7.7201   13.9586   24.1979 H   0  0  0  0  0  0  0  0  0  0  0  0
    6.5836    9.5774   26.3567 H   0  0  0  0  0  0  0  0  0  0  0  0
   10.9601   14.5718   20.7571 H   0  0  0  0  0  0  0  0  0  0  0  0
   11.3252   15.8243   18.1097 H   0  0  0  0  0  0  0  0  0  0  0  0
   13.3329   17.0697   16.9759 H   0  0  0  0  0  0  0  0  0  0  0  0
    9.5891    7.4340   23.8118 H   0  0  0  0  0  0  0  0  0  0  0  0
   10.1892    6.9691   22.2106 H   0  0  0  0  0  0  0  0  0  0  0  0
    8.5071    7.4892   22.4112 H   0  0  0  0  0  0  0  0  0  0  0  0
   12.1789   10.8428   22.5151 H   0  0  0  0  0  0  0  0  0  0  0  0
   11.6093   11.4213   20.9129 H   0  0  0  0  0  0  0  0  0  0  0  0
   12.9530   12.2711   21.7491 H   0  0  0  0  0  0  0  0  0  0  0  0
    9.6294   11.9723   21.1941 H   0  0  0  0  0  0  0  0  0  0  0  0
    9.1567   13.3560   22.1809 H   0  0  0  0  0  0  0  0  0  0  0  0
   12.9757   15.0192   23.9597 H   0  0  0  0  0  0  0  0  0  0  0  0
   13.5682   13.4813   23.3127 H   0  0  0  0  0  0  0  0  0  0  0  0
    9.8737    9.3140   21.3951 H   0  0  0  0  0  0  0  0  0  0  0  0
   11.0236    9.2256   22.7139 H   0  0  0  0  0  0  0  0  0  0  0  0
  1  2  2  0  0  0  0
  1  3  1  0  0  0  0
  2  4  1  0  0  0  0
  3  6  2  0  0  0  0
  4  8  2  0  0  0  0
  5  9  2  0  0  0  0
  5 21  1  0  0  0  0
  6  7  1  0  0  0  0
  6  8  1  0  0  0  0
  7 10  2  0  0  0  0
  7 17  1  0  0  0  0
  8 24  1  0  0  0  0
  9 18  1  0  0  0  0
  9 20  1  0  0  0  0
 10 19  1  0  0  0  0
 10 24  1  0  0  0  0
 11 20  2  0  0  0  0
 11 21  1  0  0  0  0
 11 25  1  0  0  0  0
 12 13  2  0  0  0  0
 12 21  1  0  0  0  0
 13 25  1  0  0  0  0
 14 18  1  0  0  0  0
 14 22  1  0  0  0  0
 14 23  2  0  0  0  0
 15 19  1  0  0  0  0
 16 22  1  0  0  0  0
 17 22  1  0  0  0  0
  1 26  1  0  0  0  0
  2 27  1  0  0  0  0
  3 28  1  0  0  0  0
  4 29  1  0  0  0  0
  5 30  1  0  0  0  0
 12 31  1  0  0  0  0
 13 32  1  0  0  0  0
 15 33  1  0  0  0  0
 15 34  1  0  0  0  0
 15 35  1  0  0  0  0
 16 36  1  0  0  0  0
 16 37  1  0  0  0  0
 16 38  1  0  0  0  0
 17 39  1  0  0  0  0
 17 40  1  0  0  0  0
 18 41  1  0  0  0  0
 18 42  1  0  0  0  0
 19 43  1  0  0  0  0
 19 44  1  0  0  0  0
M  END
> <Catalog ID>
Z115225812

> <PlateID>
1041831-R-16

> <Well>
G03

> <MW (desalted)>
353.438

> <ClogP>
3.217

> <HBD>
0

> <TPSA>
50.750

> <RotBonds>
5

> <ROCS_ShapeQuery>
A71EV2A-x0451_0A_A71EV2A-x0310_0A_A71EV2A-x0416_0A_peptide

> <ROCS_TanimotoCombo>
0.540 

> <ROCS_ShapeTanimoto>
0.375 

> <ROCS_ColorTanimoto>
0.165 

> <ROCS_RefTversky>
0.330 

> <ROCS_RefColorTversky>
0.188 

> <ROCS_RefTverskyCombo>
0.518 

> <ROCS_FitTversky>
1.580 

> <ROCS_FitColorTversky>
0.565 

> <ROCS_FitTverskyCombo>
2.145 

> <ROCS_ColorScore>
-5.761

> <ROCS_Overlap>
2293.400

> <ROCS_Rank>
147                 

$$$$
untitled-dbase-965_4381
  -OEChem-11132311063D

 62 66  0     1  0  0  0  0  0999 V2000
    7.7232   12.4850   25.2025 C   0  0  0  0  0  0  0  0  0  0  0  0
    8.8056   12.8842   24.4185 C   0  0  0  0  0  0  0  0  0  0  0  0
    7.7988   10.2925   24.1905 C   0  0  0  0  0  0  0  0  0  0  0  0
    7.2198   11.1891   25.0886 C   0  0  0  0  0  0  0  0  0  0  0  0
    8.8812   10.6917   23.4065 C   0  0  0  0  0  0  0  0  0  0  0  0
    9.3846   11.9876   23.5205 C   0  0  0  0  0  0  0  0  0  0  0  0
   11.0896   13.6678   22.7382 C   0  0  0  0  0  0  0  0  0  0  0  0
   13.0798   17.0745   19.0889 C   0  0  0  0  0  0  0  0  0  0  0  0
   14.0726   16.7433   20.2134 C   0  0  0  0  0  0  0  0  0  0  0  0
   13.5696   14.7458   19.0362 C   0  0  0  0  0  0  0  0  0  0  0  0
   11.4696   15.3639   19.9681 C   0  0  0  0  0  0  0  0  0  0  0  0
    6.1827   10.7966   27.3339 C   0  0  0  0  0  0  0  0  0  0  0  0
    4.7822   10.7768   25.3213 C   0  0  0  0  0  0  0  0  0  0  0  0
   10.8439    9.3633   22.5976 C   0  0  0  0  0  0  0  0  0  0  0  0
    8.5974    8.8613   21.7526 C   0  0  0  0  0  0  0  0  0  0  0  0
    5.3862   11.9953   27.8379 C   0  0  0  0  0  0  0  0  0  0  0  0
    4.0225   11.9712   25.9001 C   0  0  0  0  0  0  0  0  0  0  0  0
   10.8983    7.9609   23.1942 C   0  0  0  0  0  0  0  0  0  0  0  0
    8.7327    7.4678   22.3682 C   0  0  0  0  0  0  0  0  0  0  0  0
   12.4140   15.7173   18.8046 C   0  0  1  0  0  0  0  0  0  0  0  0
   13.8258   15.2431   20.4605 C   0  0  2  0  0  0  0  0  0  0  0  0
   12.4418   15.0838   21.1344 C   0  0  2  0  0  0  0  0  0  0  0  0
   12.2343   13.7001   21.7403 C   0  0  0  0  0  0  0  0  0  0  0  0
    6.1423   10.7918   25.8700 N   0  0  0  0  0  0  0  0  0  0  0  0
    9.4430    9.7827   22.5190 N   0  0  0  0  0  0  0  0  0  0  0  0
   10.4815   12.4156   22.7355 N   0  0  0  0  0  0  0  0  0  0  0  0
   10.7903   14.6405   23.4229 O   0  0  0  0  0  0  0  0  0  0  0  0
    4.0470   11.9395   27.3316 O   0  0  0  0  0  0  0  0  0  0  0  0
   10.1061    7.0640   22.4064 O   0  0  0  0  0  0  0  0  0  0  0  0
    7.2798   13.1916   25.8994 H   0  0  0  0  0  0  0  0  0  0  0  0
    9.1891   13.8967   24.5167 H   0  0  0  0  0  0  0  0  0  0  0  0
    7.4054    9.2820   24.1026 H   0  0  0  0  0  0  0  0  0  0  0  0
   12.3585   17.8411   19.3891 H   0  0  0  0  0  0  0  0  0  0  0  0
   13.6187   17.4377   18.2067 H   0  0  0  0  0  0  0  0  0  0  0  0
   15.0995   16.9170   19.8722 H   0  0  0  0  0  0  0  0  0  0  0  0
   13.9035   17.3536   21.1060 H   0  0  0  0  0  0  0  0  0  0  0  0
   13.2686   13.6952   18.9835 H   0  0  0  0  0  0  0  0  0  0  0  0
   14.4162   14.9150   18.3621 H   0  0  0  0  0  0  0  0  0  0  0  0
   10.7817   16.1829   20.2025 H   0  0  0  0  0  0  0  0  0  0  0  0
   10.8716   14.4795   19.7195 H   0  0  0  0  0  0  0  0  0  0  0  0
    7.2120   10.8586   27.7017 H   0  0  0  0  0  0  0  0  0  0  0  0
    5.7336    9.8708   27.7113 H   0  0  0  0  0  0  0  0  0  0  0  0
    4.2844    9.8481   25.6133 H   0  0  0  0  0  0  0  0  0  0  0  0
    4.7937   10.8430   24.2315 H   0  0  0  0  0  0  0  0  0  0  0  0
   11.4293   10.0497   23.2183 H   0  0  0  0  0  0  0  0  0  0  0  0
   11.2754    9.3522   21.5899 H   0  0  0  0  0  0  0  0  0  0  0  0
    8.9365    8.8386   20.7131 H   0  0  0  0  0  0  0  0  0  0  0  0
    7.5507    9.1719   21.7746 H   0  0  0  0  0  0  0  0  0  0  0  0
    5.3288   11.9709   28.9281 H   0  0  0  0  0  0  0  0  0  0  0  0
    5.8523   12.9411   27.5476 H   0  0  0  0  0  0  0  0  0  0  0  0
    4.4365   12.9216   25.5433 H   0  0  0  0  0  0  0  0  0  0  0  0
    2.9753   11.9292   25.5856 H   0  0  0  0  0  0  0  0  0  0  0  0
   11.9261    7.5921   23.1821 H   0  0  0  0  0  0  0  0  0  0  0  0
   10.5499    7.9490   24.2308 H   0  0  0  0  0  0  0  0  0  0  0  0
    8.3077    7.4320   23.3781 H   0  0  0  0  0  0  0  0  0  0  0  0
    8.1903    6.7406   21.7564 H   0  0  0  0  0  0  0  0  0  0  0  0
   11.9384   15.6600   17.8236 H   0  0  0  0  0  0  0  0  0  0  0  0
   14.6448   14.7517   20.9902 H   0  0  0  0  0  0  0  0  0  0  0  0
   12.3080   15.8275   21.9294 H   0  0  0  0  0  0  0  0  0  0  0  0
   13.1523   13.3891   22.2474 H   0  0  0  0  0  0  0  0  0  0  0  0
   12.0238   12.9853   20.9395 H   0  0  0  0  0  0  0  0  0  0  0  0
   10.8603   11.7168   22.0996 H   0  0  0  0  0  0  0  0  0  0  0  0
  1  2  1  0  0  0  0
  1  4  2  0  0  0  0
  2  6  2  0  0  0  0
  3  4  1  0  0  0  0
  3  5  2  0  0  0  0
  4 24  1  0  0  0  0
  5  6  1  0  0  0  0
  5 25  1  0  0  0  0
  6 26  1  0  0  0  0
  7 23  1  0  0  0  0
  7 26  1  0  0  0  0
  7 27  2  0  0  0  0
  8  9  1  0  0  0  0
  8 20  1  0  0  0  0
  9 21  1  0  0  0  0
 10 20  1  0  0  0  0
 10 21  1  0  0  0  0
 11 20  1  0  0  0  0
 11 22  1  0  0  0  0
 12 16  1  0  0  0  0
 12 24  1  0  0  0  0
 13 17  1  0  0  0  0
 13 24  1  0  0  0  0
 14 18  1  0  0  0  0
 14 25  1  0  0  0  0
 15 19  1  0  0  0  0
 15 25  1  0  0  0  0
 16 28  1  0  0  0  0
 17 28  1  0  0  0  0
 18 29  1  0  0  0  0
 19 29  1  0  0  0  0
 21 22  1  0  0  0  0
 22 23  1  0  0  0  0
  1 30  1  0  0  0  0
  2 31  1  0  0  0  0
  3 32  1  0  0  0  0
  8 33  1  0  0  0  0
  8 34  1  0  0  0  0
  9 35  1  0  0  0  0
  9 36  1  0  0  0  0
 10 37  1  0  0  0  0
 10 38  1  0  0  0  0
 11 39  1  0  0  0  0
 11 40  1  0  0  0  0
 12 41  1  0  0  0  0
 12 42  1  0  0  0  0
 13 43  1  0  0  0  0
 13 44  1  0  0  0  0
 14 45  1  0  0  0  0
 14 46  1  0  0  0  0
 15 47  1  0  0  0  0
 15 48  1  0  0  0  0
 16 49  1  0  0  0  0
 16 50  1  0  0  0  0
 17 51  1  0  0  0  0
 17 52  1  0  0  0  0
 18 53  1  0  0  0  0
 18 54  1  0  0  0  0
 19 55  1  0  0  0  0
 19 56  1  0  0  0  0
 20 57  1  0  0  0  0
 21 58  1  0  0  0  0
 22 59  1  0  0  0  0
 23 60  1  0  0  0  0
 23 61  1  0  0  0  0
 26 62  1  0  0  0  0
M  END
> <Catalog ID>
Z28028959

> <PlateID>
1041831-R-13

> <Well>
A06

> <MW (desalted)>
399.526

> <ClogP>
2.998

> <HBD>
1

> <TPSA>
54.040

> <RotBonds>
5

> <ROCS_ShapeQuery>
A71EV2A-x0451_0A_A71EV2A-x0310_0A_A71EV2A-x0416_0A_peptide

> <ROCS_TanimotoCombo>
0.540 

> <ROCS_ShapeTanimoto>
0.369 

> <ROCS_ColorTanimoto>
0.170 

> <ROCS_RefTversky>
0.332 

> <ROCS_RefColorTversky>
0.213 

> <ROCS_RefTverskyCombo>
0.545 

> <ROCS_FitTversky>
1.434 

> <ROCS_FitColorTversky>
0.460 

> <ROCS_FitTverskyCombo>
1.894 

> <ROCS_ColorScore>
-6.550

> <ROCS_Overlap>
2312.544

> <ROCS_Rank>
148                 

$$$$
untitled-dbase-2890_1609
  -OEChem-11132311063D

 50 53  0     1  0  0  0  0  0999 V2000
    6.0507    7.1183   24.4066 C   0  0  0  0  0  0  0  0  0  0  0  0
   10.1795   17.5913   22.8660 C   0  0  0  0  0  0  0  0  0  0  0  0
    6.4603    8.4402   24.5813 C   0  0  0  0  0  0  0  0  0  0  0  0
    6.8187    6.2464   23.6346 C   0  0  0  0  0  0  0  0  0  0  0  0
   10.1020   16.7691   21.7166 C   0  0  0  0  0  0  0  0  0  0  0  0
    8.4056    8.0184   23.2119 C   0  0  0  0  0  0  0  0  0  0  0  0
   11.1607   17.0456   23.6606 C   0  0  0  0  0  0  0  0  0  0  0  0
    7.6377    8.8903   23.9839 C   0  0  0  0  0  0  0  0  0  0  0  0
    7.9961    6.6965   23.0373 C   0  0  0  0  0  0  0  0  0  0  0  0
    9.1809   11.9297   24.0064 C   0  0  0  0  0  0  0  0  0  0  0  0
    8.0525   12.1733   24.8018 C   0  0  0  0  0  0  0  0  0  0  0  0
   11.0416   15.7797   21.8907 C   0  0  0  0  0  0  0  0  0  0  0  0
   10.2745   12.8558   23.6146 C   0  0  0  0  0  0  0  0  0  0  0  0
   13.2726   16.6182   18.5952 C   0  0  0  0  0  0  0  0  0  0  0  0
   14.3561   16.3295   19.6298 C   0  0  0  0  0  0  0  0  0  0  0  0
   11.9971   16.0289   19.1795 C   0  0  0  0  0  0  0  0  0  0  0  0
   13.6448   15.5943   20.7561 C   0  0  0  0  0  0  0  0  0  0  0  0
    7.6327   13.4107   25.4746 C   0  0  0  0  0  0  0  0  0  0  0  0
   11.9625   13.4007   21.8798 C   0  0  0  0  0  0  0  0  0  0  0  0
   11.4689   14.5927   21.0449 C   0  0  2  0  0  0  0  0  0  0  0  0
    9.1772   10.6598   23.5915 N   0  0  0  0  0  0  0  0  0  0  0  0
    7.3189   11.0612   24.8999 N   0  0  0  0  0  0  0  0  0  0  0  0
    8.0466   10.2099   24.1593 N   0  0  0  0  0  0  0  0  0  0  0  0
   12.4990   14.9873   20.0771 N   0  0  0  0  0  0  0  0  0  0  0  0
   10.8738   12.6068   22.3868 N   0  0  0  0  0  0  0  0  0  0  0  0
   10.6004   13.7579   24.3818 O   0  0  0  0  0  0  0  0  0  0  0  0
   11.6913   15.9411   23.0732 O   0  0  0  0  0  0  0  0  0  0  0  0
    8.9429    5.6201   22.0851 Cl  0  0  0  0  0  0  0  0  0  0  0  0
    5.1338    6.7685   24.8718 H   0  0  0  0  0  0  0  0  0  0  0  0
    9.5933   18.4713   23.0879 H   0  0  0  0  0  0  0  0  0  0  0  0
    5.8525    9.1091   25.1857 H   0  0  0  0  0  0  0  0  0  0  0  0
    6.4873    5.2193   23.5074 H   0  0  0  0  0  0  0  0  0  0  0  0
    9.4420   16.8857   20.8688 H   0  0  0  0  0  0  0  0  0  0  0  0
    9.3239    8.3709   22.7461 H   0  0  0  0  0  0  0  0  0  0  0  0
   11.5774   17.3101   24.6214 H   0  0  0  0  0  0  0  0  0  0  0  0
   13.1683   17.6914   18.4057 H   0  0  0  0  0  0  0  0  0  0  0  0
   13.5273   16.1325   17.6458 H   0  0  0  0  0  0  0  0  0  0  0  0
   15.1354   15.6999   19.1847 H   0  0  0  0  0  0  0  0  0  0  0  0
   14.8305   17.2490   19.9878 H   0  0  0  0  0  0  0  0  0  0  0  0
   11.4468   16.8057   19.7260 H   0  0  0  0  0  0  0  0  0  0  0  0
   11.3458   15.6227   18.3992 H   0  0  0  0  0  0  0  0  0  0  0  0
   14.2930   14.8453   21.2219 H   0  0  0  0  0  0  0  0  0  0  0  0
   13.3289   16.3108   21.5254 H   0  0  0  0  0  0  0  0  0  0  0  0
    6.9870   14.0256   24.8226 H   0  0  0  0  0  0  0  0  0  0  0  0
    7.0688   13.2126   26.4049 H   0  0  0  0  0  0  0  0  0  0  0  0
    8.4925   14.0386   25.7740 H   0  0  0  0  0  0  0  0  0  0  0  0
   12.5756   12.7295   21.2677 H   0  0  0  0  0  0  0  0  0  0  0  0
   12.5677   13.7119   22.7380 H   0  0  0  0  0  0  0  0  0  0  0  0
   10.6017   14.2552   20.4622 H   0  0  0  0  0  0  0  0  0  0  0  0
   10.5882   11.8001   21.8367 H   0  0  0  0  0  0  0  0  0  0  0  0
  1  3  1  0  0  0  0
  1  4  2  0  0  0  0
  2  5  1  0  0  0  0
  2  7  2  0  0  0  0
  3  8  2  0  0  0  0
  4  9  1  0  0  0  0
  5 12  2  0  0  0  0
  6  8  1  0  0  0  0
  6  9  2  0  0  0  0
  7 27  1  0  0  0  0
  8 23  1  0  0  0  0
  9 28  1  0  0  0  0
 10 11  1  0  0  0  0
 10 13  1  0  0  0  0
 10 21  2  0  0  0  0
 11 18  1  0  0  0  0
 11 22  2  0  0  0  0
 12 20  1  0  0  0  0
 12 27  1  0  0  0  0
 13 25  1  0  0  0  0
 13 26  2  0  0  0  0
 14 15  1  0  0  0  0
 14 16  1  0  0  0  0
 15 17  1  0  0  0  0
 16 24  1  0  0  0  0
 17 24  1  0  0  0  0
 19 20  1  0  0  0  0
 19 25  1  0  0  0  0
 20 24  1  0  0  0  0
 21 23  1  0  0  0  0
 22 23  1  0  0  0  0
  1 29  1  0  0  0  0
  2 30  1  0  0  0  0
  3 31  1  0  0  0  0
  4 32  1  0  0  0  0
  5 33  1  0  0  0  0
  6 34  1  0  0  0  0
  7 35  1  0  0  0  0
 14 36  1  0  0  0  0
 14 37  1  0  0  0  0
 15 38  1  0  0  0  0
 15 39  1  0  0  0  0
 16 40  1  0  0  0  0
 16 41  1  0  0  0  0
 17 42  1  0  0  0  0
 17 43  1  0  0  0  0
 18 44  1  0  0  0  0
 18 45  1  0  0  0  0
 18 46  1  0  0  0  0
 19 47  1  0  0  0  0
 19 48  1  0  0  0  0
 20 49  1  0  0  0  0
 25 50  1  0  0  0  0
M  END
> <Catalog ID>
Z51809270

> <PlateID>
1041831-R-37

> <Well>
A11

> <MW (desalted)>
399.874

> <ClogP>
3.896

> <HBD>
1

> <TPSA>
76.190

> <RotBonds>
6

> <ROCS_ShapeQuery>
A71EV2A-x0451_0A_A71EV2A-x0310_0A_A71EV2A-x0416_0A_peptide

> <ROCS_TanimotoCombo>
0.539 

> <ROCS_ShapeTanimoto>
0.340 

> <ROCS_ColorTanimoto>
0.200 

> <ROCS_RefTversky>
0.311 

> <ROCS_RefColorTversky>
0.227 

> <ROCS_RefTverskyCombo>
0.538 

> <ROCS_FitTversky>
1.369 

> <ROCS_FitColorTversky>
0.626 

> <ROCS_FitTverskyCombo>
1.995 

> <ROCS_ColorScore>
-6.945

> <ROCS_Overlap>
2165.780

> <ROCS_Rank>
149                 

$$$$
untitled-dbase-2473_737
  -OEChem-11132311063D

 48 52  0     1  0  0  0  0  0999 V2000
   10.9090   15.5437   22.4753 C   0  0  0  0  0  0  0  0  0  0  0  0
   11.2002   13.4853   23.1402 C   0  0  0  0  0  0  0  0  0  0  0  0
   10.9508   16.7273   21.5789 C   0  0  0  0  0  0  0  0  0  0  0  0
   11.1020   16.3172   20.1100 C   0  0  0  0  0  0  0  0  0  0  0  0
    7.7326    9.5538   20.7983 C   0  0  0  0  0  0  0  0  0  0  0  0
    8.7419    8.4876   21.2225 C   0  0  0  0  0  0  0  0  0  0  0  0
   12.1796   15.2406   19.9457 C   0  0  0  0  0  0  0  0  0  0  0  0
    7.1470   10.0938   22.0962 C   0  0  0  0  0  0  0  0  0  0  0  0
    9.0138    8.7047   22.7145 C   0  0  0  0  0  0  0  0  0  0  0  0
    8.5458   12.5407   25.2378 C   0  0  0  0  0  0  0  0  0  0  0  0
   11.8293   13.9885   20.7523 C   0  0  0  0  0  0  0  0  0  0  0  0
    7.2158   12.0350   25.7917 C   0  0  0  0  0  0  0  0  0  0  0  0
    9.2149   11.3328   24.5792 C   0  0  2  0  0  0  0  0  0  0  0  0
    9.2454   11.3212   23.0275 C   0  0  2  0  0  0  0  0  0  0  0  0
    8.0831   10.2895   24.5452 C   0  0  2  0  0  0  0  0  0  0  0  0
    8.3440   10.0439   23.0421 C   0  0  0  0  0  0  0  0  0  0  0  0
   11.5755   12.0316   23.1262 C   0  0  0  0  0  0  0  0  0  0  0  0
   10.5098   15.4677   23.7277 N   0  0  0  0  0  0  0  0  0  0  0  0
   10.6937   14.1622   24.1477 N   0  0  0  0  0  0  0  0  0  0  0  0
   11.3538   14.3136   22.0781 N   0  0  0  0  0  0  0  0  0  0  0  0
   10.6051   11.2250   22.3981 N   0  0  0  0  0  0  0  0  0  0  0  0
    6.8580   10.9417   24.9436 O   0  0  0  0  0  0  0  0  0  0  0  0
   10.0205   17.2940   21.7057 H   0  0  0  0  0  0  0  0  0  0  0  0
   11.7759   17.3881   21.8651 H   0  0  0  0  0  0  0  0  0  0  0  0
   10.1421   15.9504   19.7293 H   0  0  0  0  0  0  0  0  0  0  0  0
   11.3730   17.1938   19.5078 H   0  0  0  0  0  0  0  0  0  0  0  0
    8.1950   10.3446   20.1886 H   0  0  0  0  0  0  0  0  0  0  0  0
    6.9394    9.0922   20.1868 H   0  0  0  0  0  0  0  0  0  0  0  0
    8.3728    7.4612   21.0166 H   0  0  0  0  0  0  0  0  0  0  0  0
    9.6821    8.6033   20.6414 H   0  0  0  0  0  0  0  0  0  0  0  0
   12.2688   14.9812   18.8830 H   0  0  0  0  0  0  0  0  0  0  0  0
   13.1535   15.6263   20.2658 H   0  0  0  0  0  0  0  0  0  0  0  0
    6.8141   11.1185   21.9396 H   0  0  0  0  0  0  0  0  0  0  0  0
    6.3040    9.4944   22.4248 H   0  0  0  0  0  0  0  0  0  0  0  0
    8.5269    7.8883   23.2711 H   0  0  0  0  0  0  0  0  0  0  0  0
   10.0833    8.6412   22.9509 H   0  0  0  0  0  0  0  0  0  0  0  0
    8.4138   13.3803   24.5464 H   0  0  0  0  0  0  0  0  0  0  0  0
    9.1754   12.8891   26.0677 H   0  0  0  0  0  0  0  0  0  0  0  0
   11.0556   13.4096   20.2377 H   0  0  0  0  0  0  0  0  0  0  0  0
   12.7159   13.3575   20.8828 H   0  0  0  0  0  0  0  0  0  0  0  0
    7.3013   11.6970   26.8274 H   0  0  0  0  0  0  0  0  0  0  0  0
    6.4327   12.7962   25.7231 H   0  0  0  0  0  0  0  0  0  0  0  0
   10.1314   11.0046   25.0761 H   0  0  0  0  0  0  0  0  0  0  0  0
    8.6827   12.2400   22.5862 H   0  0  0  0  0  0  0  0  0  0  0  0
    8.2579    9.4250   25.2032 H   0  0  0  0  0  0  0  0  0  0  0  0
   12.5538   11.8900   22.6541 H   0  0  0  0  0  0  0  0  0  0  0  0
   11.6449   11.6339   24.1441 H   0  0  0  0  0  0  0  0  0  0  0  0
   10.5532   11.5527   21.4336 H   0  0  0  0  0  0  0  0  0  0  0  0
  1  3  1  0  0  0  0
  1 18  2  0  0  0  0
  1 20  1  0  0  0  0
  2 17  1  0  0  0  0
  2 19  2  0  0  0  0
  2 20  1  0  0  0  0
  3  4  1  0  0  0  0
  4  7  1  0  0  0  0
  5  6  1  0  0  0  0
  5  8  1  0  0  0  0
  6  9  1  0  0  0  0
  7 11  1  0  0  0  0
  8 16  1  0  0  0  0
  9 16  1  0  0  0  0
 10 12  1  0  0  0  0
 10 13  1  0  0  0  0
 11 20  1  0  0  0  0
 12 22  1  0  0  0  0
 13 14  1  0  0  0  0
 13 15  1  0  0  0  0
 14 16  1  0  0  0  0
 14 21  1  0  0  0  0
 15 16  1  0  0  0  0
 15 22  1  0  0  0  0
 17 21  1  0  0  0  0
 18 19  1  0  0  0  0
  3 23  1  0  0  0  0
  3 24  1  0  0  0  0
  4 25  1  0  0  0  0
  4 26  1  0  0  0  0
  5 27  1  0  0  0  0
  5 28  1  0  0  0  0
  6 29  1  0  0  0  0
  6 30  1  0  0  0  0
  7 31  1  0  0  0  0
  7 32  1  0  0  0  0
  8 33  1  0  0  0  0
  8 34  1  0  0  0  0
  9 35  1  0  0  0  0
  9 36  1  0  0  0  0
 10 37  1  0  0  0  0
 10 38  1  0  0  0  0
 11 39  1  0  0  0  0
 11 40  1  0  0  0  0
 12 41  1  0  0  0  0
 12 42  1  0  0  0  0
 13 43  1  0  0  0  0
 14 44  1  0  0  0  0
 15 45  1  0  0  0  0
 17 46  1  0  0  0  0
 17 47  1  0  0  0  0
 21 48  1  0  0  0  0
M  END
> <Catalog ID>
Z1680692102

> <PlateID>
1041831-R-31

> <Well>
H04

> <MW (desalted)>
302.415

> <ClogP>
0.981

> <HBD>
1

> <TPSA>
51.970

> <RotBonds>
3

> <ROCS_ShapeQuery>
A71EV2A-x0451_0A_A71EV2A-x0310_0A_A71EV2A-x0416_0A_peptide

> <ROCS_TanimotoCombo>
0.539 

> <ROCS_ShapeTanimoto>
0.322 

> <ROCS_ColorTanimoto>
0.217 

> <ROCS_RefTversky>
0.290 

> <ROCS_RefColorTversky>
0.263 

> <ROCS_RefTverskyCombo>
0.553 

> <ROCS_FitTversky>
1.530 

> <ROCS_FitColorTversky>
0.554 

> <ROCS_FitTverskyCombo>
2.084 

> <ROCS_ColorScore>
-8.111

> <ROCS_Overlap>
2013.534

> <ROCS_Rank>
150                 

$$$$
untitled-dbase-395_4470
  -OEChem-11132311063D

 44 47  0     1  0  0  0  0  0999 V2000
    6.3553   12.3913   25.6693 C   0  0  0  0  0  0  0  0  0  0  0  0
   14.9540   16.1916   17.2675 C   0  0  0  0  0  0  0  0  0  0  0  0
    6.1879   11.1218   26.2189 C   0  0  0  0  0  0  0  0  0  0  0  0
   15.7899   16.5036   18.3526 C   0  0  0  0  0  0  0  0  0  0  0  0
    7.3155   12.6214   24.6773 C   0  0  0  0  0  0  0  0  0  0  0  0
   13.6173   15.8413   17.4758 C   0  0  0  0  0  0  0  0  0  0  0  0
    6.9718   10.0443   25.7965 C   0  0  0  0  0  0  0  0  0  0  0  0
   15.2991   16.4720   19.6592 C   0  0  0  0  0  0  0  0  0  0  0  0
    9.5744   10.1110   23.2789 C   0  0  0  0  0  0  0  0  0  0  0  0
    8.1176   11.5505   24.2355 C   0  0  0  0  0  0  0  0  0  0  0  0
   13.1419   15.8233   18.7741 C   0  0  0  0  0  0  0  0  0  0  0  0
    9.1595   11.4228   23.2748 C   0  0  0  0  0  0  0  0  0  0  0  0
    7.9277   10.2892   24.8042 C   0  0  0  0  0  0  0  0  0  0  0  0
   13.9717   16.1353   19.8397 C   0  0  0  0  0  0  0  0  0  0  0  0
   11.2721   15.0519   21.7223 C   0  0  0  0  0  0  0  0  0  0  0  0
   11.5371   13.0460   24.0411 C   0  0  0  0  0  0  0  0  0  0  0  0
   11.8062   15.4393   19.2841 C   0  0  0  0  0  0  0  0  0  0  0  0
   11.9384   15.9453   20.7300 C   0  0  2  0  0  0  0  0  0  0  0  0
    9.7187   12.5215   22.4033 C   0  0  0  0  0  0  0  0  0  0  0  0
   11.2288   12.7210   22.5868 C   0  0  1  0  0  0  0  0  0  0  0  0
    8.8254    9.4351   24.2044 N   0  0  0  0  0  0  0  0  0  0  0  0
   11.7351   13.7501   21.7073 N   0  0  0  0  0  0  0  0  0  0  0  0
   10.4000   15.5058   22.4539 O   0  0  0  0  0  0  0  0  0  0  0  0
   12.2816   12.3611   24.7347 O   0  0  0  0  0  0  0  0  0  0  0  0
   13.3493   16.0515   21.0589 O   0  0  0  0  0  0  0  0  0  0  0  0
   10.9300   14.1599   24.5160 O   0  0  0  0  0  0  0  0  0  0  0  0
    5.7334   13.2132   26.0137 H   0  0  0  0  0  0  0  0  0  0  0  0
   15.3541   16.2161   16.2574 H   0  0  0  0  0  0  0  0  0  0  0  0
    5.4361   10.9655   26.9883 H   0  0  0  0  0  0  0  0  0  0  0  0
   16.8281   16.7686   18.1718 H   0  0  0  0  0  0  0  0  0  0  0  0
    7.4332   13.6167   24.2582 H   0  0  0  0  0  0  0  0  0  0  0  0
   12.9771   15.5853   16.6386 H   0  0  0  0  0  0  0  0  0  0  0  0
    6.8415    9.0567   26.2257 H   0  0  0  0  0  0  0  0  0  0  0  0
   15.9423   16.7080   20.4994 H   0  0  0  0  0  0  0  0  0  0  0  0
   10.3338    9.5969   22.7060 H   0  0  0  0  0  0  0  0  0  0  0  0
   10.9896   15.9455   18.7613 H   0  0  0  0  0  0  0  0  0  0  0  0
   11.6642   14.3553   19.2240 H   0  0  0  0  0  0  0  0  0  0  0  0
   11.4962   16.9717   20.8226 H   0  0  0  0  0  0  0  0  0  0  0  0
    9.1787   13.4490   22.6366 H   0  0  0  0  0  0  0  0  0  0  0  0
    9.4904   12.3115   21.3495 H   0  0  0  0  0  0  0  0  0  0  0  0
   11.7852   11.8097   22.3389 H   0  0  0  0  0  0  0  0  0  0  0  0
    8.9176    8.4514   24.4172 H   0  0  0  0  0  0  0  0  0  0  0  0
   12.4662   13.5046   21.0465 H   0  0  0  0  0  0  0  0  0  0  0  0
   10.3584   14.6250   23.8695 H   0  0  0  0  0  0  0  0  0  0  0  0
  1  3  2  0  0  0  0
  1  5  1  0  0  0  0
  2  4  2  0  0  0  0
  2  6  1  0  0  0  0
  3  7  1  0  0  0  0
  4  8  1  0  0  0  0
  5 10  2  0  0  0  0
  6 11  2  0  0  0  0
  7 13  2  0  0  0  0
  8 14  2  0  0  0  0
  9 12  2  0  0  0  0
  9 21  1  0  0  0  0
 10 12  1  0  0  0  0
 10 13  1  0  0  0  0
 11 14  1  0  0  0  0
 11 17  1  0  0  0  0
 12 19  1  0  0  0  0
 13 21  1  0  0  0  0
 14 25  1  0  0  0  0
 15 18  1  0  0  0  0
 15 22  1  0  0  0  0
 15 23  2  0  0  0  0
 16 20  1  0  0  0  0
 16 24  2  0  0  0  0
 16 26  1  0  0  0  0
 17 18  1  0  0  0  0
 18 25  1  0  0  0  0
 19 20  1  0  0  0  0
 20 22  1  0  0  0  0
  1 27  1  0  0  0  0
  2 28  1  0  0  0  0
  3 29  1  0  0  0  0
  4 30  1  0  0  0  0
  5 31  1  0  0  0  0
  6 32  1  0  0  0  0
  7 33  1  0  0  0  0
  8 34  1  0  0  0  0
  9 35  1  0  0  0  0
 17 36  1  0  0  0  0
 17 37  1  0  0  0  0
 18 38  1  0  0  0  0
 19 39  1  0  0  0  0
 19 40  1  0  0  0  0
 20 41  1  0  0  0  0
 21 42  1  0  0  0  0
 22 43  1  0  0  0  0
 26 44  1  0  0  0  0
M  END
> <Catalog ID>
Z285192422

> <PlateID>
1041831-R-05

> <Well>
H06

> <MW (desalted)>
350.368

> <ClogP>
2.595

> <HBD>
3

> <TPSA>
91.420

> <RotBonds>
5

> <ROCS_ShapeQuery>
A71EV2A-x0451_0A_A71EV2A-x0310_0A_A71EV2A-x0416_0A_peptide

> <ROCS_TanimotoCombo>
0.539 

> <ROCS_ShapeTanimoto>
0.366 

> <ROCS_ColorTanimoto>
0.173 

> <ROCS_RefTversky>
0.326 

> <ROCS_RefColorTversky>
0.205 

> <ROCS_RefTverskyCombo>
0.532 

> <ROCS_FitTversky>
1.505 

> <ROCS_FitColorTversky>
0.522 

> <ROCS_FitTverskyCombo>
2.026 

> <ROCS_ColorScore>
-6.302

> <ROCS_Overlap>
2269.385

> <ROCS_Rank>
151                 

$$$$
untitled-dbase-2027_1516
  -OEChem-11132311063D

 39 41  0     1  0  0  0  0  0999 V2000
    6.8146   11.7185   26.6165 C   0  0  0  0  0  0  0  0  0  0  0  0
    7.3576   12.8819   26.0772 C   0  0  0  0  0  0  0  0  0  0  0  0
   14.7702   15.7219   19.7954 C   0  0  0  0  0  0  0  0  0  0  0  0
    7.0196   10.4943   25.9816 C   0  0  0  0  0  0  0  0  0  0  0  0
    8.1067   12.8234   24.9019 C   0  0  0  0  0  0  0  0  0  0  0  0
   13.8609   15.7058   20.8471 C   0  0  0  0  0  0  0  0  0  0  0  0
   14.2683   15.7643   18.5046 C   0  0  0  0  0  0  0  0  0  0  0  0
   12.0965   15.7742   19.2539 C   0  0  0  0  0  0  0  0  0  0  0  0
    7.7807   10.4247   24.8075 C   0  0  0  0  0  0  0  0  0  0  0  0
    8.3255   11.5976   24.2562 C   0  0  0  0  0  0  0  0  0  0  0  0
   12.4967   15.7321   20.5797 C   0  0  0  0  0  0  0  0  0  0  0  0
   10.7811   13.3815   23.3291 C   0  0  0  0  0  0  0  0  0  0  0  0
    7.9572    9.1092   24.0995 C   0  0  0  0  0  0  0  0  0  0  0  0
    9.1615    9.1515   23.1713 C   0  0  0  0  0  0  0  0  0  0  0  0
    9.1437   11.5392   22.9820 C   0  0  1  0  0  0  0  0  0  0  0  0
   10.6146   11.8894   23.2134 C   0  0  0  0  0  0  0  0  0  0  0  0
   12.9501   15.7909   18.2057 N   0  0  0  0  0  0  0  0  0  0  0  0
   11.0690   14.0310   22.0858 N   0  0  0  0  0  0  0  0  0  0  0  0
   10.6624   13.9723   24.3974 O   0  0  0  0  0  0  0  0  0  0  0  0
   10.0873   16.3187   21.4020 O   0  0  0  0  0  0  0  0  0  0  0  0
   11.9777   16.2406   23.0647 O   0  0  0  0  0  0  0  0  0  0  0  0
    9.0494   10.2766   22.3021 O   0  0  0  0  0  0  0  0  0  0  0  0
   11.3109   15.7128   21.8902 S   0  0  0  0  0  0  0  0  0  0  0  0
    6.2262   11.7652   27.5285 H   0  0  0  0  0  0  0  0  0  0  0  0
    7.1957   13.8353   26.5706 H   0  0  0  0  0  0  0  0  0  0  0  0
   15.8381   15.7020   19.9801 H   0  0  0  0  0  0  0  0  0  0  0  0
    6.5778    9.5957   26.4044 H   0  0  0  0  0  0  0  0  0  0  0  0
    8.5100   13.7459   24.4965 H   0  0  0  0  0  0  0  0  0  0  0  0
   14.2251   15.6727   21.8701 H   0  0  0  0  0  0  0  0  0  0  0  0
   14.9359   15.7783   17.6494 H   0  0  0  0  0  0  0  0  0  0  0  0
   11.0455   15.7964   18.9827 H   0  0  0  0  0  0  0  0  0  0  0  0
    8.1063    8.3351   24.8636 H   0  0  0  0  0  0  0  0  0  0  0  0
    7.0606    8.8557   23.5211 H   0  0  0  0  0  0  0  0  0  0  0  0
   10.0822    9.2657   23.7574 H   0  0  0  0  0  0  0  0  0  0  0  0
    9.2616    8.2302   22.5787 H   0  0  0  0  0  0  0  0  0  0  0  0
    8.7120   12.3105   22.2920 H   0  0  0  0  0  0  0  0  0  0  0  0
   11.2268   11.5066   22.3949 H   0  0  0  0  0  0  0  0  0  0  0  0
   10.9608   11.4229   24.1377 H   0  0  0  0  0  0  0  0  0  0  0  0
   11.1353   13.4410   21.2461 H   0  0  0  0  0  0  0  0  0  0  0  0
  1  2  2  0  0  0  0
  1  4  1  0  0  0  0
  2  5  1  0  0  0  0
  3  6  1  0  0  0  0
  3  7  2  0  0  0  0
  4  9  2  0  0  0  0
  5 10  2  0  0  0  0
  6 11  2  0  0  0  0
  7 17  1  0  0  0  0
  8 11  1  0  0  0  0
  8 17  2  0  0  0  0
  9 10  1  0  0  0  0
  9 13  1  0  0  0  0
 10 15  1  0  0  0  0
 11 23  1  0  0  0  0
 12 16  1  0  0  0  0
 12 18  1  0  0  0  0
 12 19  2  0  0  0  0
 13 14  1  0  0  0  0
 14 22  1  0  0  0  0
 15 16  1  0  0  0  0
 15 22  1  0  0  0  0
 18 23  1  0  0  0  0
 20 23  2  0  0  0  0
 21 23  2  0  0  0  0
  1 24  1  0  0  0  0
  2 25  1  0  0  0  0
  3 26  1  0  0  0  0
  4 27  1  0  0  0  0
  5 28  1  0  0  0  0
  6 29  1  0  0  0  0
  7 30  1  0  0  0  0
  8 31  1  0  0  0  0
 13 32  1  0  0  0  0
 13 33  1  0  0  0  0
 14 34  1  0  0  0  0
 14 35  1  0  0  0  0
 15 36  1  0  0  0  0
 16 37  1  0  0  0  0
 16 38  1  0  0  0  0
 18 39  1  0  0  0  0
M  END
> <Catalog ID>
Z1215993880

> <PlateID>
1041831-R-26

> <Well>
C08

> <MW (desalted)>
332.374

> <ClogP>
1.299

> <HBD>
1

> <TPSA>
85.360

> <RotBonds>
3

> <ROCS_ShapeQuery>
A71EV2A-x0451_0A_A71EV2A-x0310_0A_A71EV2A-x0416_0A_peptide

> <ROCS_TanimotoCombo>
0.539 

> <ROCS_ShapeTanimoto>
0.357 

> <ROCS_ColorTanimoto>
0.182 

> <ROCS_RefTversky>
0.314 

> <ROCS_RefColorTversky>
0.205 

> <ROCS_RefTverskyCombo>
0.519 

> <ROCS_FitTversky>
1.633 

> <ROCS_FitColorTversky>
0.617 

> <ROCS_FitTverskyCombo>
2.250 

> <ROCS_ColorScore>
-6.257

> <ROCS_Overlap>
2180.722

> <ROCS_Rank>
152                 

$$$$
untitled-dbase-289_681
  -OEChem-11132311063D

 54 57  0     0  0  0  0  0  0999 V2000
    8.8551    9.4466   23.5408 C   0  0  0  0  0  0  0  0  0  0  0  0
    7.9286    9.8986   24.4804 C   0  0  0  0  0  0  0  0  0  0  0  0
    9.7035   10.3537   22.9057 C   0  0  0  0  0  0  0  0  0  0  0  0
    8.6986   12.1646   24.1498 C   0  0  0  0  0  0  0  0  0  0  0  0
   11.5007   15.0883   20.8885 C   0  0  0  0  0  0  0  0  0  0  0  0
    7.8503   11.2576   24.7849 C   0  0  0  0  0  0  0  0  0  0  0  0
    9.6252   11.7126   23.2102 C   0  0  0  0  0  0  0  0  0  0  0  0
   11.8284   14.5901   22.1258 C   0  0  0  0  0  0  0  0  0  0  0  0
   12.6795   15.7109   20.4363 C   0  0  0  0  0  0  0  0  0  0  0  0
    5.0387   12.7045   27.5770 C   0  0  0  0  0  0  0  0  0  0  0  0
    6.8631   11.7374   25.7857 C   0  0  0  0  0  0  0  0  0  0  0  0
    5.5795   11.4783   27.6587 C   0  0  0  0  0  0  0  0  0  0  0  0
    5.4365   13.5853   26.4578 C   0  0  0  0  0  0  0  0  0  0  0  0
   10.9831   13.8379   23.0688 C   0  0  0  0  0  0  0  0  0  0  0  0
   13.1636   15.5996   17.8624 C   0  0  0  0  0  0  0  0  0  0  0  0
   14.1810   16.5280   18.4484 C   0  0  0  0  0  0  0  0  0  0  0  0
   12.8113   16.4182   19.0887 C   0  0  0  0  0  0  0  0  0  0  0  0
    5.2032   10.5469   28.7744 C   0  0  0  0  0  0  0  0  0  0  0  0
   14.0234   13.1013   23.6864 C   0  0  0  0  0  0  0  0  0  0  0  0
   13.2973   15.2754   24.7475 C   0  0  0  0  0  0  0  0  0  0  0  0
   15.3877   15.1593   23.4109 C   0  0  0  0  0  0  0  0  0  0  0  0
   13.9339   14.6317   23.4955 C   0  0  0  0  0  0  0  0  0  0  0  0
   13.6812   15.6183   21.3149 N   0  0  0  0  0  0  0  0  0  0  0  0
    6.4971   10.9693   26.7673 N   0  0  0  0  0  0  0  0  0  0  0  0
   13.1327   14.9317   22.3317 N   0  0  0  0  0  0  0  0  0  0  0  0
    6.3606   13.0186   25.6029 N   0  0  0  0  0  0  0  0  0  0  0  0
   10.4741   12.6197   22.5751 N   0  0  0  0  0  0  0  0  0  0  0  0
    4.9621   14.7095   26.3341 O   0  0  0  0  0  0  0  0  0  0  0  0
   10.7304   14.2837   24.1861 O   0  0  0  0  0  0  0  0  0  0  0  0
    8.9164    8.3885   23.3038 H   0  0  0  0  0  0  0  0  0  0  0  0
    7.2720    9.1827   24.9679 H   0  0  0  0  0  0  0  0  0  0  0  0
   10.4215    9.9904   22.1745 H   0  0  0  0  0  0  0  0  0  0  0  0
    8.6369   13.2249   24.3865 H   0  0  0  0  0  0  0  0  0  0  0  0
   10.5472   15.0103   20.3851 H   0  0  0  0  0  0  0  0  0  0  0  0
    4.3183   13.0806   28.2935 H   0  0  0  0  0  0  0  0  0  0  0  0
   12.7085   15.8783   16.9197 H   0  0  0  0  0  0  0  0  0  0  0  0
   13.3261   14.5352   17.9812 H   0  0  0  0  0  0  0  0  0  0  0  0
   15.0273   16.0888   18.9628 H   0  0  0  0  0  0  0  0  0  0  0  0
   14.4131   17.4340   17.9018 H   0  0  0  0  0  0  0  0  0  0  0  0
   12.1346   17.2563   18.9349 H   0  0  0  0  0  0  0  0  0  0  0  0
    4.3482    9.9475   28.4720 H   0  0  0  0  0  0  0  0  0  0  0  0
    4.9495   11.1259   29.6593 H   0  0  0  0  0  0  0  0  0  0  0  0
    6.0444    9.8962   29.0014 H   0  0  0  0  0  0  0  0  0  0  0  0
   14.4724   12.6192   22.8104 H   0  0  0  0  0  0  0  0  0  0  0  0
   14.6362   12.8260   24.5514 H   0  0  0  0  0  0  0  0  0  0  0  0
   13.0286   12.6656   23.8359 H   0  0  0  0  0  0  0  0  0  0  0  0
   13.2131   16.3636   24.6575 H   0  0  0  0  0  0  0  0  0  0  0  0
   12.2855   14.8902   24.9190 H   0  0  0  0  0  0  0  0  0  0  0  0
   13.8929   15.0643   25.6433 H   0  0  0  0  0  0  0  0  0  0  0  0
   15.4044   16.2474   23.2742 H   0  0  0  0  0  0  0  0  0  0  0  0
   15.9497   14.9438   24.3271 H   0  0  0  0  0  0  0  0  0  0  0  0
   15.9274   14.7217   22.5632 H   0  0  0  0  0  0  0  0  0  0  0  0
    6.6797   13.5724   24.8126 H   0  0  0  0  0  0  0  0  0  0  0  0
   10.7661   12.3668   21.6240 H   0  0  0  0  0  0  0  0  0  0  0  0
  1  2  1  0  0  0  0
  1  3  2  0  0  0  0
  2  6  2  0  0  0  0
  3  7  1  0  0  0  0
  4  6  1  0  0  0  0
  4  7  2  0  0  0  0
  5  8  2  0  0  0  0
  5  9  1  0  0  0  0
  6 11  1  0  0  0  0
  7 27  1  0  0  0  0
  8 14  1  0  0  0  0
  8 25  1  0  0  0  0
  9 17  1  0  0  0  0
  9 23  2  0  0  0  0
 10 12  2  0  0  0  0
 10 13  1  0  0  0  0
 11 24  2  0  0  0  0
 11 26  1  0  0  0  0
 12 18  1  0  0  0  0
 12 24  1  0  0  0  0
 13 26  1  0  0  0  0
 13 28  2  0  0  0  0
 14 27  1  0  0  0  0
 14 29  2  0  0  0  0
 15 16  1  0  0  0  0
 15 17  1  0  0  0  0
 16 17  1  0  0  0  0
 19 22  1  0  0  0  0
 20 22  1  0  0  0  0
 21 22  1  0  0  0  0
 22 25  1  0  0  0  0
 23 25  1  0  0  0  0
  1 30  1  0  0  0  0
  2 31  1  0  0  0  0
  3 32  1  0  0  0  0
  4 33  1  0  0  0  0
  5 34  1  0  0  0  0
 10 35  1  0  0  0  0
 15 36  1  0  0  0  0
 15 37  1  0  0  0  0
 16 38  1  0  0  0  0
 16 39  1  0  0  0  0
 17 40  1  0  0  0  0
 18 41  1  0  0  0  0
 18 42  1  0  0  0  0
 18 43  1  0  0  0  0
 19 44  1  0  0  0  0
 19 45  1  0  0  0  0
 19 46  1  0  0  0  0
 20 47  1  0  0  0  0
 20 48  1  0  0  0  0
 20 49  1  0  0  0  0
 21 50  1  0  0  0  0
 21 51  1  0  0  0  0
 21 52  1  0  0  0  0
 26 53  1  0  0  0  0
 27 54  1  0  0  0  0
M  END
> <Catalog ID>
Z767976050

> <PlateID>
1041831-R-04

> <Well>
E10

> <MW (desalted)>
391.466

> <ClogP>
2.330

> <HBD>
2

> <TPSA>
88.380

> <RotBonds>
5

> <ROCS_ShapeQuery>
A71EV2A-x0451_0A_A71EV2A-x0310_0A_A71EV2A-x0416_0A_peptide

> <ROCS_TanimotoCombo>
0.539 

> <ROCS_ShapeTanimoto>
0.378 

> <ROCS_ColorTanimoto>
0.161 

> <ROCS_RefTversky>
0.338 

> <ROCS_RefColorTversky>
0.189 

> <ROCS_RefTverskyCombo>
0.527 

> <ROCS_FitTversky>
1.451 

> <ROCS_FitColorTversky>
0.521 

> <ROCS_FitTverskyCombo>
1.972 

> <ROCS_ColorScore>
-5.780

> <ROCS_Overlap>
2355.695

> <ROCS_Rank>
153                 

$$$$
untitled-dbase-376_7879
  -OEChem-11132311063D

 44 47  0     1  0  0  0  0  0999 V2000
    6.5604   12.6604   25.4576 C   0  0  0  0  0  0  0  0  0  0  0  0
   15.7796   16.5273   21.4225 C   0  0  0  0  0  0  0  0  0  0  0  0
    6.4164   11.4139   26.0638 C   0  0  0  0  0  0  0  0  0  0  0  0
   16.3361   16.3396   20.1473 C   0  0  0  0  0  0  0  0  0  0  0  0
    7.5257   12.8671   24.4654 C   0  0  0  0  0  0  0  0  0  0  0  0
   14.3968   16.4574   21.6129 C   0  0  0  0  0  0  0  0  0  0  0  0
    7.2295   10.3370   25.6995 C   0  0  0  0  0  0  0  0  0  0  0  0
   15.5171   16.0796   19.0477 C   0  0  0  0  0  0  0  0  0  0  0  0
    9.8571   10.3489   23.2070 C   0  0  0  0  0  0  0  0  0  0  0  0
    8.3571   11.7962   24.0816 C   0  0  0  0  0  0  0  0  0  0  0  0
   13.5934   16.1839   20.5176 C   0  0  0  0  0  0  0  0  0  0  0  0
    9.4120   11.6489   23.1381 C   0  0  0  0  0  0  0  0  0  0  0  0
    8.1902   10.5583   24.7062 C   0  0  0  0  0  0  0  0  0  0  0  0
   14.1536   16.0036   19.2615 C   0  0  0  0  0  0  0  0  0  0  0  0
   11.4569   15.2515   21.4398 C   0  0  0  0  0  0  0  0  0  0  0  0
   11.7430   13.3613   23.8515 C   0  0  0  0  0  0  0  0  0  0  0  0
   11.9931   15.5467   18.9894 C   0  0  0  0  0  0  0  0  0  0  0  0
   12.1119   16.1119   20.4157 C   0  0  2  0  0  0  0  0  0  0  0  0
    9.9551   12.7192   22.2221 C   0  0  0  0  0  0  0  0  0  0  0  0
   11.4582   12.9625   22.4109 C   0  0  1  0  0  0  0  0  0  0  0  0
    9.1138    9.6988   24.1555 N   0  0  0  0  0  0  0  0  0  0  0  0
   11.9501   13.9616   21.4896 N   0  0  0  0  0  0  0  0  0  0  0  0
   10.5667   15.7179   22.1410 O   0  0  0  0  0  0  0  0  0  0  0  0
   10.8678   13.4426   24.7071 O   0  0  0  0  0  0  0  0  0  0  0  0
   13.2320   15.7714   18.2747 O   0  0  0  0  0  0  0  0  0  0  0  0
   13.0452   13.6155   24.1245 O   0  0  0  0  0  0  0  0  0  0  0  0
    5.9160   13.4824   25.7575 H   0  0  0  0  0  0  0  0  0  0  0  0
   16.4313   16.7236   22.2694 H   0  0  0  0  0  0  0  0  0  0  0  0
    5.6601   11.2757   26.8323 H   0  0  0  0  0  0  0  0  0  0  0  0
   17.4133   16.3965   20.0174 H   0  0  0  0  0  0  0  0  0  0  0  0
    7.6249   13.8445   24.0018 H   0  0  0  0  0  0  0  0  0  0  0  0
   13.9685   16.6070   22.5987 H   0  0  0  0  0  0  0  0  0  0  0  0
    7.1174    9.3674   26.1726 H   0  0  0  0  0  0  0  0  0  0  0  0
   15.9421   15.9472   18.0586 H   0  0  0  0  0  0  0  0  0  0  0  0
   10.6343    9.8269   22.6660 H   0  0  0  0  0  0  0  0  0  0  0  0
   11.7707   14.4728   18.9774 H   0  0  0  0  0  0  0  0  0  0  0  0
   11.1972   16.0606   18.4324 H   0  0  0  0  0  0  0  0  0  0  0  0
   11.6422   17.1305   20.4594 H   0  0  0  0  0  0  0  0  0  0  0  0
    9.3914   13.6434   22.4069 H   0  0  0  0  0  0  0  0  0  0  0  0
    9.7431   12.4555   21.1770 H   0  0  0  0  0  0  0  0  0  0  0  0
   12.0381   12.0541   22.2110 H   0  0  0  0  0  0  0  0  0  0  0  0
    9.2265    8.7284   24.4145 H   0  0  0  0  0  0  0  0  0  0  0  0
   12.6937   13.7032   20.8481 H   0  0  0  0  0  0  0  0  0  0  0  0
   13.6528   13.5179   23.3613 H   0  0  0  0  0  0  0  0  0  0  0  0
  1  3  2  0  0  0  0
  1  5  1  0  0  0  0
  2  4  2  0  0  0  0
  2  6  1  0  0  0  0
  3  7  1  0  0  0  0
  4  8  1  0  0  0  0
  5 10  2  0  0  0  0
  6 11  2  0  0  0  0
  7 13  2  0  0  0  0
  8 14  2  0  0  0  0
  9 12  2  0  0  0  0
  9 21  1  0  0  0  0
 10 12  1  0  0  0  0
 10 13  1  0  0  0  0
 11 14  1  0  0  0  0
 11 18  1  0  0  0  0
 12 19  1  0  0  0  0
 13 21  1  0  0  0  0
 14 25  1  0  0  0  0
 15 18  1  0  0  0  0
 15 22  1  0  0  0  0
 15 23  2  0  0  0  0
 16 20  1  0  0  0  0
 16 24  2  0  0  0  0
 16 26  1  0  0  0  0
 17 18  1  0  0  0  0
 17 25  1  0  0  0  0
 19 20  1  0  0  0  0
 20 22  1  0  0  0  0
  1 27  1  0  0  0  0
  2 28  1  0  0  0  0
  3 29  1  0  0  0  0
  4 30  1  0  0  0  0
  5 31  1  0  0  0  0
  6 32  1  0  0  0  0
  7 33  1  0  0  0  0
  8 34  1  0  0  0  0
  9 35  1  0  0  0  0
 17 36  1  0  0  0  0
 17 37  1  0  0  0  0
 18 38  1  0  0  0  0
 19 39  1  0  0  0  0
 19 40  1  0  0  0  0
 20 41  1  0  0  0  0
 21 42  1  0  0  0  0
 22 43  1  0  0  0  0
 26 44  1  0  0  0  0
M  END
> <Catalog ID>
Z1197876034

> <PlateID>
1041831-R-05

> <Well>
F07

> <MW (desalted)>
350.368

> <ClogP>
2.516

> <HBD>
3

> <TPSA>
91.420

> <RotBonds>
5

> <ROCS_ShapeQuery>
A71EV2A-x0451_0A_A71EV2A-x0310_0A_A71EV2A-x0416_0A_peptide

> <ROCS_TanimotoCombo>
0.539 

> <ROCS_ShapeTanimoto>
0.356 

> <ROCS_ColorTanimoto>
0.183 

> <ROCS_RefTversky>
0.319 

> <ROCS_RefColorTversky>
0.216 

> <ROCS_RefTverskyCombo>
0.535 

> <ROCS_FitTversky>
1.474 

> <ROCS_FitColorTversky>
0.547 

> <ROCS_FitTverskyCombo>
2.021 

> <ROCS_ColorScore>
-6.611

> <ROCS_Overlap>
2222.227

> <ROCS_Rank>
154                 

$$$$
untitled-dbase-2830_461
  -OEChem-11132311063D

 48 50  0     1  0  0  0  0  0999 V2000
    6.7378   12.9052   25.8306 C   0  0  0  0  0  0  0  0  0  0  0  0
    6.0145   11.7181   25.9052 C   0  0  0  0  0  0  0  0  0  0  0  0
    7.9626   12.9340   25.1632 C   0  0  0  0  0  0  0  0  0  0  0  0
    6.5141   10.5616   25.3094 C   0  0  0  0  0  0  0  0  0  0  0  0
    8.4772   11.7763   24.5579 C   0  0  0  0  0  0  0  0  0  0  0  0
    7.7359   10.5908   24.6297 C   0  0  0  0  0  0  0  0  0  0  0  0
    7.9878    8.4010   21.3179 C   0  0  0  0  0  0  0  0  0  0  0  0
    8.6960    7.3135   22.1218 C   0  0  0  0  0  0  0  0  0  0  0  0
    8.6354    9.7236   21.7279 C   0  0  0  0  0  0  0  0  0  0  0  0
    9.7479    8.0318   22.9639 C   0  0  0  0  0  0  0  0  0  0  0  0
   10.3213   10.4114   23.5756 C   0  0  0  0  0  0  0  0  0  0  0  0
    9.8102   11.8237   23.8617 C   0  0  1  0  0  0  0  0  0  0  0  0
    9.2078    9.4610   23.1269 C   0  0  0  0  0  0  0  0  0  0  0  0
   14.1081   11.8571   22.8303 C   0  0  0  0  0  0  0  0  0  0  0  0
   13.9019   13.4696   25.3648 C   0  0  0  0  0  0  0  0  0  0  0  0
   12.2610   13.3969   22.1096 C   0  0  0  0  0  0  0  0  0  0  0  0
   13.0103   12.8041   23.2948 C   0  0  2  0  0  0  0  0  0  0  0  0
    9.7544   12.6313   22.6667 N   0  0  0  0  0  0  0  0  0  0  0  0
   10.8247   14.6232   23.9216 O   0  0  0  0  0  0  0  0  0  0  0  0
   10.1904   14.8590   21.4929 O   0  0  0  0  0  0  0  0  0  0  0  0
    8.1417    9.3999   24.0894 O   0  0  0  0  0  0  0  0  0  0  0  0
   13.6085   13.8666   24.0339 O   0  0  0  0  0  0  0  0  0  0  0  0
   10.6822   14.0551   22.5954 S   0  0  0  0  0  0  0  0  0  0  0  0
    6.3495   13.8082   26.2915 H   0  0  0  0  0  0  0  0  0  0  0  0
    5.0662   11.6909   26.4339 H   0  0  0  0  0  0  0  0  0  0  0  0
    8.5117   13.8708   25.1166 H   0  0  0  0  0  0  0  0  0  0  0  0
    5.9510    9.6348   25.3882 H   0  0  0  0  0  0  0  0  0  0  0  0
    8.0768    8.2347   20.2391 H   0  0  0  0  0  0  0  0  0  0  0  0
    6.9184    8.4067   21.5602 H   0  0  0  0  0  0  0  0  0  0  0  0
    7.9750    6.7993   22.7670 H   0  0  0  0  0  0  0  0  0  0  0  0
    9.1529    6.5596   21.4736 H   0  0  0  0  0  0  0  0  0  0  0  0
    9.4339    9.9714   21.0171 H   0  0  0  0  0  0  0  0  0  0  0  0
    7.8996   10.5353   21.7165 H   0  0  0  0  0  0  0  0  0  0  0  0
    9.8958    7.5094   23.9152 H   0  0  0  0  0  0  0  0  0  0  0  0
   10.7042    8.0396   22.4254 H   0  0  0  0  0  0  0  0  0  0  0  0
   11.0904   10.4556   22.7787 H   0  0  0  0  0  0  0  0  0  0  0  0
   10.8447   10.0163   24.4670 H   0  0  0  0  0  0  0  0  0  0  0  0
   10.5099   12.3264   24.5745 H   0  0  0  0  0  0  0  0  0  0  0  0
   14.8047   12.3754   22.1625 H   0  0  0  0  0  0  0  0  0  0  0  0
   13.6892   11.0208   22.2595 H   0  0  0  0  0  0  0  0  0  0  0  0
   14.6729   11.4568   23.6776 H   0  0  0  0  0  0  0  0  0  0  0  0
   14.3581   14.3043   25.9027 H   0  0  0  0  0  0  0  0  0  0  0  0
   14.5841   12.6158   25.3493 H   0  0  0  0  0  0  0  0  0  0  0  0
   12.9730   13.1822   25.8630 H   0  0  0  0  0  0  0  0  0  0  0  0
   12.8118   14.2271   21.6561 H   0  0  0  0  0  0  0  0  0  0  0  0
   12.0529   12.6400   21.3473 H   0  0  0  0  0  0  0  0  0  0  0  0
   12.3208   12.2742   23.9614 H   0  0  0  0  0  0  0  0  0  0  0  0
    9.6622   12.0797   21.8100 H   0  0  0  0  0  0  0  0  0  0  0  0
  1  2  2  0  0  0  0
  1  3  1  0  0  0  0
  2  4  1  0  0  0  0
  3  5  2  0  0  0  0
  4  6  2  0  0  0  0
  5  6  1  0  0  0  0
  5 12  1  0  0  0  0
  6 21  1  0  0  0  0
  7  8  1  0  0  0  0
  7  9  1  0  0  0  0
  8 10  1  0  0  0  0
  9 13  1  0  0  0  0
 10 13  1  0  0  0  0
 11 12  1  0  0  0  0
 11 13  1  0  0  0  0
 12 18  1  0  0  0  0
 13 21  1  0  0  0  0
 14 17  1  0  0  0  0
 15 22  1  0  0  0  0
 16 17  1  0  0  0  0
 16 23  1  0  0  0  0
 17 22  1  0  0  0  0
 18 23  1  0  0  0  0
 19 23  2  0  0  0  0
 20 23  2  0  0  0  0
  1 24  1  0  0  0  0
  2 25  1  0  0  0  0
  3 26  1  0  0  0  0
  4 27  1  0  0  0  0
  7 28  1  0  0  0  0
  7 29  1  0  0  0  0
  8 30  1  0  0  0  0
  8 31  1  0  0  0  0
  9 32  1  0  0  0  0
  9 33  1  0  0  0  0
 10 34  1  0  0  0  0
 10 35  1  0  0  0  0
 11 36  1  0  0  0  0
 11 37  1  0  0  0  0
 12 38  1  0  0  0  0
 14 39  1  0  0  0  0
 14 40  1  0  0  0  0
 14 41  1  0  0  0  0
 15 42  1  0  0  0  0
 15 43  1  0  0  0  0
 15 44  1  0  0  0  0
 16 45  1  0  0  0  0
 16 46  1  0  0  0  0
 17 47  1  0  0  0  0
 18 48  1  0  0  0  0
M  END
> <Catalog ID>
Z1998322554

> <PlateID>
1041831-R-36

> <Well>
C11

> <MW (desalted)>
339.450

> <ClogP>
2.768

> <HBD>
1

> <TPSA>
64.630

> <RotBonds>
4

> <ROCS_ShapeQuery>
A71EV2A-x0451_0A_A71EV2A-x0310_0A_A71EV2A-x0416_0A_peptide

> <ROCS_TanimotoCombo>
0.539 

> <ROCS_ShapeTanimoto>
0.355 

> <ROCS_ColorTanimoto>
0.184 

> <ROCS_RefTversky>
0.312 

> <ROCS_RefColorTversky>
0.202 

> <ROCS_RefTverskyCombo>
0.514 

> <ROCS_FitTversky>
1.650 

> <ROCS_FitColorTversky>
0.670 

> <ROCS_FitTverskyCombo>
2.320 

> <ROCS_ColorScore>
-6.163

> <ROCS_Overlap>
2164.498

> <ROCS_Rank>
155                 

$$$$
untitled-dbase-2611_7317
  -OEChem-11132311063D

 49 51  0     0  0  0  0  0  0999 V2000
   13.9634   15.3504   23.7244 C   0  0  0  0  0  0  0  0  0  0  0  0
   13.2643   14.5425   22.7961 C   0  0  0  0  0  0  0  0  0  0  0  0
    9.9146   10.7799   23.0285 C   0  0  0  0  0  0  0  0  0  0  0  0
    7.6416   12.8577   25.2204 C   0  0  0  0  0  0  0  0  0  0  0  0
   13.1810   16.4633   23.9274 C   0  0  0  0  0  0  0  0  0  0  0  0
    8.3970   11.9527   24.4485 C   0  0  0  0  0  0  0  0  0  0  0  0
    9.5046   11.9882   23.5923 C   0  0  0  0  0  0  0  0  0  0  0  0
    9.2135    9.6198   23.3404 C   0  0  0  0  0  0  0  0  0  0  0  0
   12.1044   15.2193   22.4982 C   0  0  0  0  0  0  0  0  0  0  0  0
    7.7896   10.7274   24.6744 C   0  0  0  0  0  0  0  0  0  0  0  0
   10.2013   13.2267   23.2995 C   0  0  0  0  0  0  0  0  0  0  0  0
    8.5905    7.7073   21.8213 C   0  0  0  0  0  0  0  0  0  0  0  0
   10.1212    7.3104   23.7845 C   0  0  0  0  0  0  0  0  0  0  0  0
    6.5206    8.9574   26.9307 C   0  0  0  0  0  0  0  0  0  0  0  0
    4.9839    9.3560   24.9594 C   0  0  0  0  0  0  0  0  0  0  0  0
    9.6822   12.9241   20.8648 C   0  0  0  0  0  0  0  0  0  0  0  0
   10.9427   14.9179   21.5962 C   0  0  0  0  0  0  0  0  0  0  0  0
    9.6652    8.3324   22.7281 C   0  0  0  0  0  0  0  0  0  0  0  0
    5.8242   10.0055   26.0605 C   0  0  0  0  0  0  0  0  0  0  0  0
    6.6409   12.2659   25.8809 N   0  0  0  0  0  0  0  0  0  0  0  0
    8.1387    9.5348   24.1612 N   0  0  0  0  0  0  0  0  0  0  0  0
    6.7561   10.9723   25.5296 N   0  0  0  0  0  0  0  0  0  0  0  0
   10.2722   13.6731   21.9654 N   0  0  0  0  0  0  0  0  0  0  0  0
   10.6922   13.8393   24.2590 O   0  0  0  0  0  0  0  0  0  0  0  0
   12.0460   16.3911   23.1837 O   0  0  0  0  0  0  0  0  0  0  0  0
   14.9182   15.1472   24.1873 H   0  0  0  0  0  0  0  0  0  0  0  0
   13.5708   13.5867   22.3956 H   0  0  0  0  0  0  0  0  0  0  0  0
   10.7679   10.7472   22.3567 H   0  0  0  0  0  0  0  0  0  0  0  0
    7.7759   13.9245   25.3315 H   0  0  0  0  0  0  0  0  0  0  0  0
   13.2851   17.3490   24.5368 H   0  0  0  0  0  0  0  0  0  0  0  0
    7.6723    7.4858   22.3761 H   0  0  0  0  0  0  0  0  0  0  0  0
    8.9422    6.7713   21.3739 H   0  0  0  0  0  0  0  0  0  0  0  0
    8.3309    8.3918   21.0060 H   0  0  0  0  0  0  0  0  0  0  0  0
    9.2994    7.0741   24.4697 H   0  0  0  0  0  0  0  0  0  0  0  0
   10.9537    7.6992   24.3812 H   0  0  0  0  0  0  0  0  0  0  0  0
   10.4521    6.3732   23.3239 H   0  0  0  0  0  0  0  0  0  0  0  0
    7.2319    8.3555   26.3551 H   0  0  0  0  0  0  0  0  0  0  0  0
    5.7866    8.2743   27.3713 H   0  0  0  0  0  0  0  0  0  0  0  0
    7.0720    9.4334   27.7492 H   0  0  0  0  0  0  0  0  0  0  0  0
    5.6164    8.7836   24.2720 H   0  0  0  0  0  0  0  0  0  0  0  0
    4.4575   10.1194   24.3766 H   0  0  0  0  0  0  0  0  0  0  0  0
    4.2323    8.6724   25.3684 H   0  0  0  0  0  0  0  0  0  0  0  0
    8.6433   13.2519   20.7129 H   0  0  0  0  0  0  0  0  0  0  0  0
   10.2613   13.1040   19.9470 H   0  0  0  0  0  0  0  0  0  0  0  0
    9.6966   11.8503   21.1029 H   0  0  0  0  0  0  0  0  0  0  0  0
   10.2026   15.7246   21.6372 H   0  0  0  0  0  0  0  0  0  0  0  0
   11.2673   14.8270   20.5543 H   0  0  0  0  0  0  0  0  0  0  0  0
   10.5426    8.5166   22.0815 H   0  0  0  0  0  0  0  0  0  0  0  0
    5.1346   10.5598   26.7102 H   0  0  0  0  0  0  0  0  0  0  0  0
  1  2  1  0  0  0  0
  1  5  2  0  0  0  0
  2  9  2  0  0  0  0
  3  7  1  0  0  0  0
  3  8  2  0  0  0  0
  4  6  1  0  0  0  0
  4 20  2  0  0  0  0
  5 25  1  0  0  0  0
  6  7  2  0  0  0  0
  6 10  1  0  0  0  0
  7 11  1  0  0  0  0
  8 18  1  0  0  0  0
  8 21  1  0  0  0  0
  9 17  1  0  0  0  0
  9 25  1  0  0  0  0
 10 21  2  0  0  0  0
 10 22  1  0  0  0  0
 11 23  1  0  0  0  0
 11 24  2  0  0  0  0
 12 18  1  0  0  0  0
 13 18  1  0  0  0  0
 14 19  1  0  0  0  0
 15 19  1  0  0  0  0
 16 23  1  0  0  0  0
 17 23  1  0  0  0  0
 19 22  1  0  0  0  0
 20 22  1  0  0  0  0
  1 26  1  0  0  0  0
  2 27  1  0  0  0  0
  3 28  1  0  0  0  0
  4 29  1  0  0  0  0
  5 30  1  0  0  0  0
 12 31  1  0  0  0  0
 12 32  1  0  0  0  0
 12 33  1  0  0  0  0
 13 34  1  0  0  0  0
 13 35  1  0  0  0  0
 13 36  1  0  0  0  0
 14 37  1  0  0  0  0
 14 38  1  0  0  0  0
 14 39  1  0  0  0  0
 15 40  1  0  0  0  0
 15 41  1  0  0  0  0
 15 42  1  0  0  0  0
 16 43  1  0  0  0  0
 16 44  1  0  0  0  0
 16 45  1  0  0  0  0
 17 46  1  0  0  0  0
 17 47  1  0  0  0  0
 18 48  1  0  0  0  0
 19 49  1  0  0  0  0
M  END
> <Catalog ID>
Z82253218

> <PlateID>
1041831-R-33

> <Well>
F02

> <MW (desalted)>
340.419

> <ClogP>
2.950

> <HBD>
0

> <TPSA>
64.160

> <RotBonds>
5

> <ROCS_ShapeQuery>
A71EV2A-x0451_0A_A71EV2A-x0310_0A_A71EV2A-x0416_0A_peptide

> <ROCS_TanimotoCombo>
0.539 

> <ROCS_ShapeTanimoto>
0.358 

> <ROCS_ColorTanimoto>
0.181 

> <ROCS_RefTversky>
0.318 

> <ROCS_RefColorTversky>
0.204 

> <ROCS_RefTverskyCombo>
0.523 

> <ROCS_FitTversky>
1.529 

> <ROCS_FitColorTversky>
0.615 

> <ROCS_FitTverskyCombo>
2.145 

> <ROCS_ColorScore>
-6.249

> <ROCS_Overlap>
2212.754

> <ROCS_Rank>
156                 

$$$$
untitled-dbase-656_5602
  -OEChem-11132311063D

 42 44  0     1  0  0  0  0  0999 V2000
   13.7501   16.9288   19.9238 C   0  0  0  0  0  0  0  0  0  0  0  0
    7.7883   13.2370   25.5897 C   0  0  0  0  0  0  0  0  0  0  0  0
    6.5705   13.1624   26.2597 C   0  0  0  0  0  0  0  0  0  0  0  0
   12.7231   16.3334   20.6945 C   0  0  0  0  0  0  0  0  0  0  0  0
    9.9813   11.0475   23.5458 C   0  0  0  0  0  0  0  0  0  0  0  0
    6.3498   10.8639   25.5580 C   0  0  0  0  0  0  0  0  0  0  0  0
    9.2014    9.9094   23.5820 C   0  0  0  0  0  0  0  0  0  0  0  0
   14.0331   16.0401   18.9129 C   0  0  0  0  0  0  0  0  0  0  0  0
    8.2901   12.1202   24.9002 C   0  0  0  0  0  0  0  0  0  0  0  0
    7.5645   10.9106   24.8795 C   0  0  0  0  0  0  0  0  0  0  0  0
    5.8507   11.9742   26.2436 C   0  0  0  0  0  0  0  0  0  0  0  0
    9.5131   12.1676   24.2175 C   0  0  0  0  0  0  0  0  0  0  0  0
   12.4516   15.1234   20.0994 C   0  0  0  0  0  0  0  0  0  0  0  0
   12.1165   13.0948   22.6404 C   0  0  0  0  0  0  0  0  0  0  0  0
   10.1333   14.1919   19.7118 C   0  0  0  0  0  0  0  0  0  0  0  0
    4.2068   13.0613   27.5747 C   0  0  0  0  0  0  0  0  0  0  0  0
   11.6847   13.1288   24.0909 C   0  0  0  0  0  0  0  0  0  0  0  0
   11.4764   14.0100   20.4158 C   0  0  2  0  0  0  0  0  0  0  0  0
    8.0164    9.8220   24.2286 N   0  0  0  0  0  0  0  0  0  0  0  0
   11.2881   13.8672   21.8413 N   0  0  0  0  0  0  0  0  0  0  0  0
   13.0878   12.4518   22.2517 O   0  0  0  0  0  0  0  0  0  0  0  0
   13.2458   14.9370   19.0127 O   0  0  0  0  0  0  0  0  0  0  0  0
    4.6585   11.8909   26.8952 O   0  0  0  0  0  0  0  0  0  0  0  0
   10.2735   13.3004   24.1921 O   0  0  0  0  0  0  0  0  0  0  0  0
   14.2249   17.8857   20.0852 H   0  0  0  0  0  0  0  0  0  0  0  0
    8.3357   14.1764   25.6147 H   0  0  0  0  0  0  0  0  0  0  0  0
    6.1909   14.0313   26.7897 H   0  0  0  0  0  0  0  0  0  0  0  0
   12.2430   16.7384   21.5740 H   0  0  0  0  0  0  0  0  0  0  0  0
   10.9239   11.0596   23.0103 H   0  0  0  0  0  0  0  0  0  0  0  0
    5.7710    9.9414   25.5565 H   0  0  0  0  0  0  0  0  0  0  0  0
    9.5159    9.0033   23.0747 H   0  0  0  0  0  0  0  0  0  0  0  0
   14.7296   16.0443   18.0874 H   0  0  0  0  0  0  0  0  0  0  0  0
    9.6580   15.1340   20.0062 H   0  0  0  0  0  0  0  0  0  0  0  0
   10.2685   14.2053   18.6244 H   0  0  0  0  0  0  0  0  0  0  0  0
    9.4374   13.3767   19.9394 H   0  0  0  0  0  0  0  0  0  0  0  0
    3.2448   12.8583   28.0516 H   0  0  0  0  0  0  0  0  0  0  0  0
    4.1054   13.8822   26.8602 H   0  0  0  0  0  0  0  0  0  0  0  0
    4.9392   13.3340   28.3383 H   0  0  0  0  0  0  0  0  0  0  0  0
   11.9545   12.1828   24.5701 H   0  0  0  0  0  0  0  0  0  0  0  0
   12.1858   13.9499   24.6129 H   0  0  0  0  0  0  0  0  0  0  0  0
   11.9007   13.0549   20.0823 H   0  0  0  0  0  0  0  0  0  0  0  0
   10.5122   14.3558   22.2784 H   0  0  0  0  0  0  0  0  0  0  0  0
  1  4  1  0  0  0  0
  1  8  2  0  0  0  0
  2  3  2  0  0  0  0
  2  9  1  0  0  0  0
  3 11  1  0  0  0  0
  4 13  2  0  0  0  0
  5  7  2  0  0  0  0
  5 12  1  0  0  0  0
  6 10  1  0  0  0  0
  6 11  2  0  0  0  0
  7 19  1  0  0  0  0
  8 22  1  0  0  0  0
  9 10  1  0  0  0  0
  9 12  2  0  0  0  0
 10 19  2  0  0  0  0
 11 23  1  0  0  0  0
 12 24  1  0  0  0  0
 13 18  1  0  0  0  0
 13 22  1  0  0  0  0
 14 17  1  0  0  0  0
 14 20  1  0  0  0  0
 14 21  2  0  0  0  0
 15 18  1  0  0  0  0
 16 23  1  0  0  0  0
 17 24  1  0  0  0  0
 18 20  1  0  0  0  0
  1 25  1  0  0  0  0
  2 26  1  0  0  0  0
  3 27  1  0  0  0  0
  4 28  1  0  0  0  0
  5 29  1  0  0  0  0
  6 30  1  0  0  0  0
  7 31  1  0  0  0  0
  8 32  1  0  0  0  0
 15 33  1  0  0  0  0
 15 34  1  0  0  0  0
 15 35  1  0  0  0  0
 16 36  1  0  0  0  0
 16 37  1  0  0  0  0
 16 38  1  0  0  0  0
 17 39  1  0  0  0  0
 17 40  1  0  0  0  0
 18 41  1  0  0  0  0
 20 42  1  0  0  0  0
M  END
> <Catalog ID>
Z1262421876

> <PlateID>
1041831-R-09

> <Well>
B07

> <MW (desalted)>
326.347

> <ClogP>
2.846

> <HBD>
1

> <TPSA>
73.590

> <RotBonds>
6

> <ROCS_ShapeQuery>
A71EV2A-x0451_0A_A71EV2A-x0310_0A_A71EV2A-x0416_0A_peptide

> <ROCS_TanimotoCombo>
0.539 

> <ROCS_ShapeTanimoto>
0.353 

> <ROCS_ColorTanimoto>
0.186 

> <ROCS_RefTversky>
0.314 

> <ROCS_RefColorTversky>
0.208 

> <ROCS_RefTverskyCombo>
0.522 

> <ROCS_FitTversky>
1.552 

> <ROCS_FitColorTversky>
0.628 

> <ROCS_FitTverskyCombo>
2.180 

> <ROCS_ColorScore>
-6.371

> <ROCS_Overlap>
2181.039

> <ROCS_Rank>
157                 

$$$$
untitled-dbase-1151_171
  -OEChem-11132311063D

 48 52  0     0  0  0  0  0  0999 V2000
   13.4945   15.5165   18.4005 C   0  0  0  0  0  0  0  0  0  0  0  0
   13.4828   16.5895   19.2881 C   0  0  0  0  0  0  0  0  0  0  0  0
   11.3080    6.9915   21.5602 C   0  0  0  0  0  0  0  0  0  0  0  0
   12.7610   14.3659   18.6876 C   0  0  0  0  0  0  0  0  0  0  0  0
   12.7424   16.5112   20.4673 C   0  0  0  0  0  0  0  0  0  0  0  0
   11.3276    8.3743   21.8611 C   0  0  0  0  0  0  0  0  0  0  0  0
   10.2720   11.0278   23.0826 C   0  0  0  0  0  0  0  0  0  0  0  0
   10.1573    6.4937   22.1260 C   0  0  0  0  0  0  0  0  0  0  0  0
    8.4829   11.9725   24.3482 C   0  0  0  0  0  0  0  0  0  0  0  0
    9.6973   12.1527   23.6744 C   0  0  0  0  0  0  0  0  0  0  0  0
   12.0026   14.2827   19.8633 C   0  0  0  0  0  0  0  0  0  0  0  0
   12.0047   15.3576   20.7704 C   0  0  0  0  0  0  0  0  0  0  0  0
    9.6201    9.8039   23.1901 C   0  0  0  0  0  0  0  0  0  0  0  0
   10.1873    8.6230   22.5891 C   0  0  0  0  0  0  0  0  0  0  0  0
    7.5594   12.7561   25.0683 C   0  0  0  0  0  0  0  0  0  0  0  0
    7.9406   10.6972   24.3797 C   0  0  0  0  0  0  0  0  0  0  0  0
   10.3509   13.4677   23.5852 C   0  0  0  0  0  0  0  0  0  0  0  0
   11.2356   13.0237   20.1737 C   0  0  0  0  0  0  0  0  0  0  0  0
   11.2159   15.3080   22.0574 C   0  0  0  0  0  0  0  0  0  0  0  0
   10.0858   13.2994   21.1348 C   0  0  0  0  0  0  0  0  0  0  0  0
    7.6239   14.2002   25.3550 C   0  0  0  0  0  0  0  0  0  0  0  0
    5.8527    9.7350   25.3896 C   0  0  0  0  0  0  0  0  0  0  0  0
    8.4468    9.5796   23.8299 N   0  0  0  0  0  0  0  0  0  0  0  0
    6.5196   12.0471   25.5202 N   0  0  0  0  0  0  0  0  0  0  0  0
    6.7790   10.8003   25.0864 N   0  0  0  0  0  0  0  0  0  0  0  0
   10.5711   14.0112   22.3151 N   0  0  0  0  0  0  0  0  0  0  0  0
   10.6635   13.9950   24.6518 O   0  0  0  0  0  0  0  0  0  0  0  0
    9.4684    7.4818   22.7549 O   0  0  0  0  0  0  0  0  0  0  0  0
   14.0759   15.5753   17.4851 H   0  0  0  0  0  0  0  0  0  0  0  0
   14.0532   17.4861   19.0641 H   0  0  0  0  0  0  0  0  0  0  0  0
   12.0411    6.4283   21.0010 H   0  0  0  0  0  0  0  0  0  0  0  0
   12.7822   13.5338   17.9883 H   0  0  0  0  0  0  0  0  0  0  0  0
   12.7453   17.3548   21.1533 H   0  0  0  0  0  0  0  0  0  0  0  0
   12.0818    9.0957   21.5796 H   0  0  0  0  0  0  0  0  0  0  0  0
   11.2140   11.1133   22.5466 H   0  0  0  0  0  0  0  0  0  0  0  0
    9.7092    5.5117   22.1683 H   0  0  0  0  0  0  0  0  0  0  0  0
   10.8275   12.5969   19.2499 H   0  0  0  0  0  0  0  0  0  0  0  0
   11.9239   12.2887   20.6082 H   0  0  0  0  0  0  0  0  0  0  0  0
   11.8791   15.5615   22.8906 H   0  0  0  0  0  0  0  0  0  0  0  0
   10.4127   16.0534   22.0160 H   0  0  0  0  0  0  0  0  0  0  0  0
    9.3220   13.9313   20.6645 H   0  0  0  0  0  0  0  0  0  0  0  0
    9.6031   12.3584   21.4181 H   0  0  0  0  0  0  0  0  0  0  0  0
    7.1290   14.7873   24.5629 H   0  0  0  0  0  0  0  0  0  0  0  0
    7.1376   14.4565   26.3127 H   0  0  0  0  0  0  0  0  0  0  0  0
    8.6640   14.5620   25.4374 H   0  0  0  0  0  0  0  0  0  0  0  0
    6.1537    9.2866   26.3400 H   0  0  0  0  0  0  0  0  0  0  0  0
    4.8405   10.1425   25.4627 H   0  0  0  0  0  0  0  0  0  0  0  0
    5.8823    8.9914   24.5883 H   0  0  0  0  0  0  0  0  0  0  0  0
  1  2  2  0  0  0  0
  1  4  1  0  0  0  0
  2  5  1  0  0  0  0
  3  6  1  0  0  0  0
  3  8  2  0  0  0  0
  4 11  2  0  0  0  0
  5 12  2  0  0  0  0
  6 14  2  0  0  0  0
  7 10  1  0  0  0  0
  7 13  2  0  0  0  0
  8 28  1  0  0  0  0
  9 10  2  0  0  0  0
  9 15  1  0  0  0  0
  9 16  1  0  0  0  0
 10 17  1  0  0  0  0
 11 12  1  0  0  0  0
 11 18  1  0  0  0  0
 12 19  1  0  0  0  0
 13 14  1  0  0  0  0
 13 23  1  0  0  0  0
 14 28  1  0  0  0  0
 15 21  1  0  0  0  0
 15 24  2  0  0  0  0
 16 23  2  0  0  0  0
 16 25  1  0  0  0  0
 17 26  1  0  0  0  0
 17 27  2  0  0  0  0
 18 20  1  0  0  0  0
 19 26  1  0  0  0  0
 20 26  1  0  0  0  0
 22 25  1  0  0  0  0
 24 25  1  0  0  0  0
  1 29  1  0  0  0  0
  2 30  1  0  0  0  0
  3 31  1  0  0  0  0
  4 32  1  0  0  0  0
  5 33  1  0  0  0  0
  6 34  1  0  0  0  0
  7 35  1  0  0  0  0
  8 36  1  0  0  0  0
 18 37  1  0  0  0  0
 18 38  1  0  0  0  0
 19 39  1  0  0  0  0
 19 40  1  0  0  0  0
 20 41  1  0  0  0  0
 20 42  1  0  0  0  0
 21 43  1  0  0  0  0
 21 44  1  0  0  0  0
 21 45  1  0  0  0  0
 22 46  1  0  0  0  0
 22 47  1  0  0  0  0
 22 48  1  0  0  0  0
M  END
> <Catalog ID>
Z241850654

> <PlateID>
1041831-R-15

> <Well>
D02

> <MW (desalted)>
372.420

> <ClogP>
3.547

> <HBD>
0

> <TPSA>
64.160

> <RotBonds>
2

> <ROCS_ShapeQuery>
A71EV2A-x0451_0A_A71EV2A-x0310_0A_A71EV2A-x0416_0A_peptide

> <ROCS_TanimotoCombo>
0.539 

> <ROCS_ShapeTanimoto>
0.378 

> <ROCS_ColorTanimoto>
0.161 

> <ROCS_RefTversky>
0.338 

> <ROCS_RefColorTversky>
0.185 

> <ROCS_RefTverskyCombo>
0.523 

> <ROCS_FitTversky>
1.448 

> <ROCS_FitColorTversky>
0.556 

> <ROCS_FitTverskyCombo>
2.004 

> <ROCS_ColorScore>
-5.646

> <ROCS_Overlap>
2353.842

> <ROCS_Rank>
158                 

$$$$
untitled-dbase-263_1320
  -OEChem-11132311063D

 47 49  0     1  0  0  0  0  0999 V2000
    6.7455   11.3338   26.2801 C   0  0  0  0  0  0  0  0  0  0  0  0
    7.0994   12.6236   25.9355 C   0  0  0  0  0  0  0  0  0  0  0  0
    7.3433   10.2648   25.6185 C   0  0  0  0  0  0  0  0  0  0  0  0
    8.0517   12.8305   24.9380 C   0  0  0  0  0  0  0  0  0  0  0  0
    8.3142   10.4491   24.6043 C   0  0  0  0  0  0  0  0  0  0  0  0
    8.6897   11.7616   24.2597 C   0  0  0  0  0  0  0  0  0  0  0  0
    9.7305    8.9079   23.1363 C   0  0  0  0  0  0  0  0  0  0  0  0
   12.4196   15.7291   21.9925 C   0  0  0  0  0  0  0  0  0  0  0  0
   10.5004   13.2075   23.4289 C   0  0  0  0  0  0  0  0  0  0  0  0
   10.5152    9.9706   22.4293 C   0  0  0  0  0  0  0  0  0  0  0  0
   14.1083   16.1321   19.4303 C   0  0  0  0  0  0  0  0  0  0  0  0
   12.6710   16.6727   19.5403 C   0  0  0  0  0  0  0  0  0  0  0  0
   13.5522   14.7503   19.8197 C   0  0  0  0  0  0  0  0  0  0  0  0
   12.3533   15.4800   20.4788 C   0  0  0  0  0  0  0  0  0  0  0  0
    9.7447   11.2228   22.0595 C   0  0  1  0  0  0  0  0  0  0  0  0
    8.4246   10.9902   21.3158 C   0  0  0  0  0  0  0  0  0  0  0  0
   12.9785   14.5012   24.1204 C   0  0  0  0  0  0  0  0  0  0  0  0
   11.5817   13.4253   22.3969 C   0  0  0  0  0  0  0  0  0  0  0  0
    8.8035    9.2281   24.0845 N   0  0  0  0  0  0  0  0  0  0  0  0
    9.6327   12.1088   23.2292 N   0  0  0  0  0  0  0  0  0  0  0  0
   12.3229   14.5784   22.8065 N   0  0  0  0  0  0  0  0  0  0  0  0
    9.9733    7.7213   22.8820 O   0  0  0  0  0  0  0  0  0  0  0  0
   12.5498   16.8839   22.4073 O   0  0  0  0  0  0  0  0  0  0  0  0
   10.4520   13.9820   24.3901 O   0  0  0  0  0  0  0  0  0  0  0  0
    6.0041   11.1543   27.0522 H   0  0  0  0  0  0  0  0  0  0  0  0
    6.6315   13.4715   26.4261 H   0  0  0  0  0  0  0  0  0  0  0  0
    7.0392    9.2601   25.9116 H   0  0  0  0  0  0  0  0  0  0  0  0
    8.2533   13.8649   24.6655 H   0  0  0  0  0  0  0  0  0  0  0  0
   11.3940   10.2120   23.0399 H   0  0  0  0  0  0  0  0  0  0  0  0
   10.8998    9.5196   21.5044 H   0  0  0  0  0  0  0  0  0  0  0  0
   14.5182   16.1722   18.4133 H   0  0  0  0  0  0  0  0  0  0  0  0
   14.8353   16.5662   20.1232 H   0  0  0  0  0  0  0  0  0  0  0  0
   12.6054   17.6528   20.0285 H   0  0  0  0  0  0  0  0  0  0  0  0
   12.1117   16.7079   18.6009 H   0  0  0  0  0  0  0  0  0  0  0  0
   13.3117   14.0900   18.9813 H   0  0  0  0  0  0  0  0  0  0  0  0
   14.1860   14.2047   20.5297 H   0  0  0  0  0  0  0  0  0  0  0  0
   11.3970   15.0026   20.2116 H   0  0  0  0  0  0  0  0  0  0  0  0
   10.3742   11.7190   21.3171 H   0  0  0  0  0  0  0  0  0  0  0  0
    7.7181   10.4940   21.9760 H   0  0  0  0  0  0  0  0  0  0  0  0
    8.6038   10.3662   20.4441 H   0  0  0  0  0  0  0  0  0  0  0  0
    8.0133   11.9448   20.9983 H   0  0  0  0  0  0  0  0  0  0  0  0
   12.2912   14.8700   24.8960 H   0  0  0  0  0  0  0  0  0  0  0  0
   13.2469   13.4563   24.3353 H   0  0  0  0  0  0  0  0  0  0  0  0
   13.8883   15.1194   24.1129 H   0  0  0  0  0  0  0  0  0  0  0  0
   11.1025   13.5837   21.4363 H   0  0  0  0  0  0  0  0  0  0  0  0
   12.2083   12.5396   22.3743 H   0  0  0  0  0  0  0  0  0  0  0  0
    8.3698    8.4111   24.5102 H   0  0  0  0  0  0  0  0  0  0  0  0
  1  2  2  0  0  0  0
  1  3  1  0  0  0  0
  2  4  1  0  0  0  0
  3  5  2  0  0  0  0
  4  6  2  0  0  0  0
  5  6  1  0  0  0  0
  5 19  1  0  0  0  0
  6 20  1  0  0  0  0
  7 10  1  0  0  0  0
  7 19  1  0  0  0  0
  7 22  2  0  0  0  0
  8 14  1  0  0  0  0
  8 21  1  0  0  0  0
  8 23  2  0  0  0  0
  9 18  1  0  0  0  0
  9 20  1  0  0  0  0
  9 24  2  0  0  0  0
 10 15  1  0  0  0  0
 11 12  1  0  0  0  0
 11 13  1  0  0  0  0
 12 14  1  0  0  0  0
 13 14  1  0  0  0  0
 15 16  1  0  0  0  0
 15 20  1  0  0  0  0
 17 21  1  0  0  0  0
 18 21  1  0  0  0  0
  1 25  1  0  0  0  0
  2 26  1  0  0  0  0
  3 27  1  0  0  0  0
  4 28  1  0  0  0  0
 10 29  1  0  0  0  0
 10 30  1  0  0  0  0
 11 31  1  0  0  0  0
 11 32  1  0  0  0  0
 12 33  1  0  0  0  0
 12 34  1  0  0  0  0
 13 35  1  0  0  0  0
 13 36  1  0  0  0  0
 14 37  1  0  0  0  0
 15 38  1  0  0  0  0
 16 39  1  0  0  0  0
 16 40  1  0  0  0  0
 16 41  1  0  0  0  0
 17 42  1  0  0  0  0
 17 43  1  0  0  0  0
 17 44  1  0  0  0  0
 18 45  1  0  0  0  0
 18 46  1  0  0  0  0
 19 47  1  0  0  0  0
M  END
> <Catalog ID>
Z203181988

> <PlateID>
1041831-R-04

> <Well>
C04

> <MW (desalted)>
329.394

> <ClogP>
1.507

> <HBD>
1

> <TPSA>
69.720

> <RotBonds>
3

> <ROCS_ShapeQuery>
A71EV2A-x0451_0A_A71EV2A-x0310_0A_A71EV2A-x0416_0A_peptide

> <ROCS_TanimotoCombo>
0.538 

> <ROCS_ShapeTanimoto>
0.365 

> <ROCS_ColorTanimoto>
0.173 

> <ROCS_RefTversky>
0.321 

> <ROCS_RefColorTversky>
0.187 

> <ROCS_RefTverskyCombo>
0.508 

> <ROCS_FitTversky>
1.612 

> <ROCS_FitColorTversky>
0.694 

> <ROCS_FitTverskyCombo>
2.306 

> <ROCS_ColorScore>
-5.713

> <ROCS_Overlap>
2228.888

> <ROCS_Rank>
159                 

$$$$
untitled-dbase-1693_12102
  -OEChem-11132311063D

 51 53  0     0  0  0  0  0  0999 V2000
    9.9032   10.7969   23.0119 C   0  0  0  0  0  0  0  0  0  0  0  0
   13.2068   14.4776   22.6836 C   0  0  0  0  0  0  0  0  0  0  0  0
    7.6390   12.8478   25.2379 C   0  0  0  0  0  0  0  0  0  0  0  0
    8.3926   11.9519   24.4537 C   0  0  0  0  0  0  0  0  0  0  0  0
    9.4905   11.9995   23.5856 C   0  0  0  0  0  0  0  0  0  0  0  0
    9.2144    9.6301   23.3262 C   0  0  0  0  0  0  0  0  0  0  0  0
   12.0540   15.2549   22.4779 C   0  0  0  0  0  0  0  0  0  0  0  0
   13.9395   15.2119   23.5780 C   0  0  0  0  0  0  0  0  0  0  0  0
    7.7969   10.7211   24.6806 C   0  0  0  0  0  0  0  0  0  0  0  0
   10.1746   13.2445   23.2909 C   0  0  0  0  0  0  0  0  0  0  0  0
   15.2396   15.0153   24.2308 C   0  0  0  0  0  0  0  0  0  0  0  0
    8.5890    7.7199   21.8052 C   0  0  0  0  0  0  0  0  0  0  0  0
   10.1441    7.3257   23.7498 C   0  0  0  0  0  0  0  0  0  0  0  0
    6.5659    8.9315   26.9426 C   0  0  0  0  0  0  0  0  0  0  0  0
    5.0048    9.3273   24.9900 C   0  0  0  0  0  0  0  0  0  0  0  0
    9.6312   12.9490   20.8607 C   0  0  0  0  0  0  0  0  0  0  0  0
   10.8847   14.9489   21.5873 C   0  0  0  0  0  0  0  0  0  0  0  0
    9.6689    8.3489   22.7031 C   0  0  0  0  0  0  0  0  0  0  0  0
    5.8523    9.9783   26.0848 C   0  0  0  0  0  0  0  0  0  0  0  0
    6.6500   12.2455   25.9066 N   0  0  0  0  0  0  0  0  0  0  0  0
    8.1492    9.5334   24.1583 N   0  0  0  0  0  0  0  0  0  0  0  0
   12.0704   16.3850   23.1903 N   0  0  0  0  0  0  0  0  0  0  0  0
    6.7710   10.9544   25.5482 N   0  0  0  0  0  0  0  0  0  0  0  0
   10.2276   13.6975   21.9581 N   0  0  0  0  0  0  0  0  0  0  0  0
   10.6715   13.8566   24.2478 O   0  0  0  0  0  0  0  0  0  0  0  0
   13.2718   16.3526   23.8881 O   0  0  0  0  0  0  0  0  0  0  0  0
   10.7494   10.7736   22.3307 H   0  0  0  0  0  0  0  0  0  0  0  0
   13.4677   13.5248   22.2466 H   0  0  0  0  0  0  0  0  0  0  0  0
    7.7665   13.9150   25.3524 H   0  0  0  0  0  0  0  0  0  0  0  0
   16.0629   15.4461   23.6324 H   0  0  0  0  0  0  0  0  0  0  0  0
   15.2832   15.4819   25.2331 H   0  0  0  0  0  0  0  0  0  0  0  0
   15.4742   13.9457   24.3900 H   0  0  0  0  0  0  0  0  0  0  0  0
    7.6786    7.4890   22.3690 H   0  0  0  0  0  0  0  0  0  0  0  0
    8.9428    6.7885   21.3497 H   0  0  0  0  0  0  0  0  0  0  0  0
    8.3154    8.4060   20.9959 H   0  0  0  0  0  0  0  0  0  0  0  0
    9.3316    7.0801   24.4428 H   0  0  0  0  0  0  0  0  0  0  0  0
   10.9801    7.7180   24.3391 H   0  0  0  0  0  0  0  0  0  0  0  0
   10.4769    6.3931   23.2814 H   0  0  0  0  0  0  0  0  0  0  0  0
    7.2753    8.3376   26.3565 H   0  0  0  0  0  0  0  0  0  0  0  0
    5.8419    8.2409   27.3880 H   0  0  0  0  0  0  0  0  0  0  0  0
    7.1226    9.4080   27.7571 H   0  0  0  0  0  0  0  0  0  0  0  0
    5.6340    8.7628   24.2931 H   0  0  0  0  0  0  0  0  0  0  0  0
    4.4664   10.0894   24.4165 H   0  0  0  0  0  0  0  0  0  0  0  0
    4.2628    8.6363   25.4041 H   0  0  0  0  0  0  0  0  0  0  0  0
    8.5882   13.2697   20.7216 H   0  0  0  0  0  0  0  0  0  0  0  0
   10.1988   13.1373   19.9374 H   0  0  0  0  0  0  0  0  0  0  0  0
    9.6563   11.8742   21.0937 H   0  0  0  0  0  0  0  0  0  0  0  0
   10.1391   15.7498   21.6400 H   0  0  0  0  0  0  0  0  0  0  0  0
   11.1985   14.8651   20.5415 H   0  0  0  0  0  0  0  0  0  0  0  0
   10.5377    8.5426   22.0478 H   0  0  0  0  0  0  0  0  0  0  0  0
    5.1657   10.5244   26.7445 H   0  0  0  0  0  0  0  0  0  0  0  0
  1  5  1  0  0  0  0
  1  6  2  0  0  0  0
  2  7  1  0  0  0  0
  2  8  2  0  0  0  0
  3  4  1  0  0  0  0
  3 20  2  0  0  0  0
  4  5  2  0  0  0  0
  4  9  1  0  0  0  0
  5 10  1  0  0  0  0
  6 18  1  0  0  0  0
  6 21  1  0  0  0  0
  7 17  1  0  0  0  0
  7 22  2  0  0  0  0
  8 11  1  0  0  0  0
  8 26  1  0  0  0  0
  9 21  2  0  0  0  0
  9 23  1  0  0  0  0
 10 24  1  0  0  0  0
 10 25  2  0  0  0  0
 12 18  1  0  0  0  0
 13 18  1  0  0  0  0
 14 19  1  0  0  0  0
 15 19  1  0  0  0  0
 16 24  1  0  0  0  0
 17 24  1  0  0  0  0
 19 23  1  0  0  0  0
 20 23  1  0  0  0  0
 22 26  1  0  0  0  0
  1 27  1  0  0  0  0
  2 28  1  0  0  0  0
  3 29  1  0  0  0  0
 11 30  1  0  0  0  0
 11 31  1  0  0  0  0
 11 32  1  0  0  0  0
 12 33  1  0  0  0  0
 12 34  1  0  0  0  0
 12 35  1  0  0  0  0
 13 36  1  0  0  0  0
 13 37  1  0  0  0  0
 13 38  1  0  0  0  0
 14 39  1  0  0  0  0
 14 40  1  0  0  0  0
 14 41  1  0  0  0  0
 15 42  1  0  0  0  0
 15 43  1  0  0  0  0
 15 44  1  0  0  0  0
 16 45  1  0  0  0  0
 16 46  1  0  0  0  0
 16 47  1  0  0  0  0
 17 48  1  0  0  0  0
 17 49  1  0  0  0  0
 18 50  1  0  0  0  0
 19 51  1  0  0  0  0
M  END
> <Catalog ID>
Z361966260

> <PlateID>
1041831-R-22

> <Well>
B04

> <MW (desalted)>
355.434

> <ClogP>
2.022

> <HBD>
0

> <TPSA>
77.050

> <RotBonds>
5

> <ROCS_ShapeQuery>
A71EV2A-x0451_0A_A71EV2A-x0310_0A_A71EV2A-x0416_0A_peptide

> <ROCS_TanimotoCombo>
0.538 

> <ROCS_ShapeTanimoto>
0.356 

> <ROCS_ColorTanimoto>
0.182 

> <ROCS_RefTversky>
0.319 

> <ROCS_RefColorTversky>
0.205 

> <ROCS_RefTverskyCombo>
0.524 

> <ROCS_FitTversky>
1.491 

> <ROCS_FitColorTversky>
0.617 

> <ROCS_FitTverskyCombo>
2.108 

> <ROCS_ColorScore>
-6.270

> <ROCS_Overlap>
2217.400

> <ROCS_Rank>
160                 

$$$$
untitled-dbase-710_4577
  -OEChem-11132311063D

 44 47  0     1  0  0  0  0  0999 V2000
    6.3541   12.3899   25.6687 C   0  0  0  0  0  0  0  0  0  0  0  0
    6.1875   11.1205   26.2187 C   0  0  0  0  0  0  0  0  0  0  0  0
   14.9517   16.1937   17.2672 C   0  0  0  0  0  0  0  0  0  0  0  0
    7.3142   12.6204   24.6768 C   0  0  0  0  0  0  0  0  0  0  0  0
   13.6152   15.8424   17.4753 C   0  0  0  0  0  0  0  0  0  0  0  0
    6.9722   10.0435   25.7968 C   0  0  0  0  0  0  0  0  0  0  0  0
   15.7870   16.5069   18.3525 C   0  0  0  0  0  0  0  0  0  0  0  0
    9.5751   10.1112   23.2795 C   0  0  0  0  0  0  0  0  0  0  0  0
    8.1172   11.5499   24.2355 C   0  0  0  0  0  0  0  0  0  0  0  0
   13.1395   15.8246   18.7736 C   0  0  0  0  0  0  0  0  0  0  0  0
    9.1593   11.4227   23.2749 C   0  0  0  0  0  0  0  0  0  0  0  0
    7.9281   10.2887   24.8045 C   0  0  0  0  0  0  0  0  0  0  0  0
   13.9688   16.1376   19.8392 C   0  0  0  0  0  0  0  0  0  0  0  0
   15.2959   16.4754   19.6589 C   0  0  0  0  0  0  0  0  0  0  0  0
   11.2696   15.0528   21.7216 C   0  0  0  0  0  0  0  0  0  0  0  0
   11.5356   13.0478   24.0410 C   0  0  0  0  0  0  0  0  0  0  0  0
   11.8040   15.4396   19.2833 C   0  0  0  0  0  0  0  0  0  0  0  0
   11.9354   15.9463   20.7290 C   0  0  2  0  0  0  0  0  0  0  0  0
    9.7179   12.5215   22.4032 C   0  0  0  0  0  0  0  0  0  0  0  0
   11.2278   12.7221   22.5868 C   0  0  1  0  0  0  0  0  0  0  0  0
    8.8265    9.4350   24.2051 N   0  0  0  0  0  0  0  0  0  0  0  0
   11.7335   13.7513   21.7070 N   0  0  0  0  0  0  0  0  0  0  0  0
   10.3971   15.5063   22.4529 O   0  0  0  0  0  0  0  0  0  0  0  0
   12.2806   12.3636   24.7350 O   0  0  0  0  0  0  0  0  0  0  0  0
   13.3461   16.0538   21.0583 O   0  0  0  0  0  0  0  0  0  0  0  0
   10.9277   14.1614   24.5155 O   0  0  0  0  0  0  0  0  0  0  0  0
   16.0875   16.7673   20.6973 F   0  0  0  0  0  0  0  0  0  0  0  0
    5.7316   13.2115   26.0127 H   0  0  0  0  0  0  0  0  0  0  0  0
    5.4358   10.9640   26.9881 H   0  0  0  0  0  0  0  0  0  0  0  0
   15.3520   16.2183   16.2573 H   0  0  0  0  0  0  0  0  0  0  0  0
    7.4313   13.6156   24.2573 H   0  0  0  0  0  0  0  0  0  0  0  0
   12.9754   15.5854   16.6381 H   0  0  0  0  0  0  0  0  0  0  0  0
    6.8425    9.0559   26.2262 H   0  0  0  0  0  0  0  0  0  0  0  0
   16.8250   16.7726   18.1723 H   0  0  0  0  0  0  0  0  0  0  0  0
   10.3350    9.5974   22.7068 H   0  0  0  0  0  0  0  0  0  0  0  0
   10.9869   15.9449   18.7603 H   0  0  0  0  0  0  0  0  0  0  0  0
   11.6629   14.3555   19.2234 H   0  0  0  0  0  0  0  0  0  0  0  0
   11.4924   16.9722   20.8214 H   0  0  0  0  0  0  0  0  0  0  0  0
    9.1772   13.4486   22.6360 H   0  0  0  0  0  0  0  0  0  0  0  0
    9.4898   12.3110   21.3493 H   0  0  0  0  0  0  0  0  0  0  0  0
   11.7848   11.8111   22.3393 H   0  0  0  0  0  0  0  0  0  0  0  0
    8.9194    8.4514   24.4182 H   0  0  0  0  0  0  0  0  0  0  0  0
   12.4649   13.5061   21.0464 H   0  0  0  0  0  0  0  0  0  0  0  0
   10.3558   14.6259   23.8688 H   0  0  0  0  0  0  0  0  0  0  0  0
  1  2  2  0  0  0  0
  1  4  1  0  0  0  0
  2  6  1  0  0  0  0
  3  5  1  0  0  0  0
  3  7  2  0  0  0  0
  4  9  2  0  0  0  0
  5 10  2  0  0  0  0
  6 12  2  0  0  0  0
  7 14  1  0  0  0  0
  8 11  2  0  0  0  0
  8 21  1  0  0  0  0
  9 11  1  0  0  0  0
  9 12  1  0  0  0  0
 10 13  1  0  0  0  0
 10 17  1  0  0  0  0
 11 19  1  0  0  0  0
 12 21  1  0  0  0  0
 13 14  2  0  0  0  0
 13 25  1  0  0  0  0
 14 27  1  0  0  0  0
 15 18  1  0  0  0  0
 15 22  1  0  0  0  0
 15 23  2  0  0  0  0
 16 20  1  0  0  0  0
 16 24  2  0  0  0  0
 16 26  1  0  0  0  0
 17 18  1  0  0  0  0
 18 25  1  0  0  0  0
 19 20  1  0  0  0  0
 20 22  1  0  0  0  0
  1 28  1  0  0  0  0
  2 29  1  0  0  0  0
  3 30  1  0  0  0  0
  4 31  1  0  0  0  0
  5 32  1  0  0  0  0
  6 33  1  0  0  0  0
  7 34  1  0  0  0  0
  8 35  1  0  0  0  0
 17 36  1  0  0  0  0
 17 37  1  0  0  0  0
 18 38  1  0  0  0  0
 19 39  1  0  0  0  0
 19 40  1  0  0  0  0
 20 41  1  0  0  0  0
 21 42  1  0  0  0  0
 22 43  1  0  0  0  0
 26 44  1  0  0  0  0
M  END
> <Catalog ID>
Z1444487748

> <PlateID>
1041831-R-09

> <Well>
G11

> <MW (desalted)>
368.358

> <ClogP>
2.878

> <HBD>
3

> <TPSA>
91.420

> <RotBonds>
5

> <ROCS_ShapeQuery>
A71EV2A-x0451_0A_A71EV2A-x0310_0A_A71EV2A-x0416_0A_peptide

> <ROCS_TanimotoCombo>
0.538 

> <ROCS_ShapeTanimoto>
0.365 

> <ROCS_ColorTanimoto>
0.173 

> <ROCS_RefTversky>
0.327 

> <ROCS_RefColorTversky>
0.205 

> <ROCS_RefTverskyCombo>
0.532 

> <ROCS_FitTversky>
1.464 

> <ROCS_FitColorTversky>
0.522 

> <ROCS_FitTverskyCombo>
1.986 

> <ROCS_ColorScore>
-6.302

> <ROCS_Overlap>
2275.467

> <ROCS_Rank>
161                 

$$$$
untitled-dbase-3031_3475
  -OEChem-11132311063D

 46 49  0     1  0  0  0  0  0999 V2000
    7.5392    7.6669   24.4183 C   0  0  0  0  0  0  0  0  0  0  0  0
    8.8081    7.6481   23.8232 C   0  0  0  0  0  0  0  0  0  0  0  0
    6.9544    8.8744   24.7984 C   0  0  0  0  0  0  0  0  0  0  0  0
    9.5097    8.8369   23.6008 C   0  0  0  0  0  0  0  0  0  0  0  0
    7.6555   10.0469   24.5623 C   0  0  0  0  0  0  0  0  0  0  0  0
    8.9272   10.0400   23.9718 C   0  0  0  0  0  0  0  0  0  0  0  0
   11.7854   15.3015   22.8577 C   0  0  0  0  0  0  0  0  0  0  0  0
   10.9265   13.1217   23.1361 C   0  0  0  0  0  0  0  0  0  0  0  0
    4.9928   13.2873   27.1442 C   0  0  0  0  0  0  0  0  0  0  0  0
    5.1229   13.3966   28.6454 C   0  0  0  0  0  0  0  0  0  0  0  0
    5.6838   12.0386   29.0498 C   0  0  0  0  0  0  0  0  0  0  0  0
    5.1364   11.0916   28.0008 C   0  0  0  0  0  0  0  0  0  0  0  0
    8.3460   12.2525   24.1112 C   0  0  0  0  0  0  0  0  0  0  0  0
    7.2754   11.4602   24.9035 C   0  0  1  0  0  0  0  0  0  0  0  0
   12.4792   16.5249   22.4068 C   0  0  0  0  0  0  0  0  0  0  0  0
   10.5694   11.6678   23.0228 C   0  0  0  0  0  0  0  0  0  0  0  0
    5.8585   11.8488   24.5108 C   0  0  0  0  0  0  0  0  0  0  0  0
    4.8153   11.3691   25.5137 C   0  0  0  0  0  0  0  0  0  0  0  0
   11.0012   15.2171   23.9112 N   0  0  0  0  0  0  0  0  0  0  0  0
   10.4982   13.9383   24.0750 N   0  0  0  0  0  0  0  0  0  0  0  0
    9.4432   11.3228   23.8530 N   0  0  2  0  0  0  0  0  0  0  0  0
    5.0194   11.9302   26.8315 N   0  0  0  0  0  0  0  0  0  0  0  0
    4.8460   14.2357   26.3879 O   0  0  0  0  0  0  0  0  0  0  0  0
   11.9727   13.8388   21.9818 S   0  0  0  0  0  0  0  0  0  0  0  0
    7.0114    6.7328   24.5895 H   0  0  0  0  0  0  0  0  0  0  0  0
    9.2526    6.6989   23.5363 H   0  0  0  0  0  0  0  0  0  0  0  0
    5.9782    8.8860   25.2708 H   0  0  0  0  0  0  0  0  0  0  0  0
   10.4936    8.8008   23.1442 H   0  0  0  0  0  0  0  0  0  0  0  0
    5.7940   14.2129   28.9231 H   0  0  0  0  0  0  0  0  0  0  0  0
    4.1294   13.5635   29.0732 H   0  0  0  0  0  0  0  0  0  0  0  0
    6.7794   12.0598   29.0014 H   0  0  0  0  0  0  0  0  0  0  0  0
    5.3937   11.7559   30.0658 H   0  0  0  0  0  0  0  0  0  0  0  0
    5.8114   10.2537   27.8091 H   0  0  0  0  0  0  0  0  0  0  0  0
    4.1409   10.7215   28.2636 H   0  0  0  0  0  0  0  0  0  0  0  0
    7.9429   12.6131   23.1556 H   0  0  0  0  0  0  0  0  0  0  0  0
    8.6893   13.1240   24.6797 H   0  0  0  0  0  0  0  0  0  0  0  0
    7.4260   11.6124   25.9796 H   0  0  0  0  0  0  0  0  0  0  0  0
   13.4759   16.6087   22.8694 H   0  0  0  0  0  0  0  0  0  0  0  0
   12.6144   16.5432   21.3122 H   0  0  0  0  0  0  0  0  0  0  0  0
   11.9135   17.4375   22.6599 H   0  0  0  0  0  0  0  0  0  0  0  0
   10.3166   11.4118   21.9880 H   0  0  0  0  0  0  0  0  0  0  0  0
   11.4107   11.0323   23.3187 H   0  0  0  0  0  0  0  0  0  0  0  0
    5.6329   11.4120   23.5306 H   0  0  0  0  0  0  0  0  0  0  0  0
    5.7999   12.9386   24.4005 H   0  0  0  0  0  0  0  0  0  0  0  0
    3.8150   11.6719   25.1885 H   0  0  0  0  0  0  0  0  0  0  0  0
    4.8274   10.2787   25.6080 H   0  0  0  0  0  0  0  0  0  0  0  0
  1  2  2  0  0  0  0
  1  3  1  0  0  0  0
  2  4  1  0  0  0  0
  3  5  2  0  0  0  0
  4  6  2  0  0  0  0
  5  6  1  0  0  0  0
  5 14  1  0  0  0  0
  6 21  1  0  0  0  0
  7 15  1  0  0  0  0
  7 19  2  0  0  0  0
  7 24  1  0  0  0  0
  8 16  1  0  0  0  0
  8 20  2  0  0  0  0
  8 24  1  0  0  0  0
  9 10  1  0  0  0  0
  9 22  1  0  0  0  0
  9 23  2  0  0  0  0
 10 11  1  0  0  0  0
 11 12  1  0  0  0  0
 12 22  1  0  0  0  0
 13 14  1  0  0  0  0
 13 21  1  0  0  0  0
 14 17  1  0  0  0  0
 16 21  1  0  0  0  0
 17 18  1  0  0  0  0
 18 22  1  0  0  0  0
 19 20  1  0  0  0  0
  1 25  1  0  0  0  0
  2 26  1  0  0  0  0
  3 27  1  0  0  0  0
  4 28  1  0  0  0  0
 10 29  1  0  0  0  0
 10 30  1  0  0  0  0
 11 31  1  0  0  0  0
 11 32  1  0  0  0  0
 12 33  1  0  0  0  0
 12 34  1  0  0  0  0
 13 35  1  0  0  0  0
 13 36  1  0  0  0  0
 14 37  1  0  0  0  0
 15 38  1  0  0  0  0
 15 39  1  0  0  0  0
 15 40  1  0  0  0  0
 16 41  1  0  0  0  0
 16 42  1  0  0  0  0
 17 43  1  0  0  0  0
 17 44  1  0  0  0  0
 18 45  1  0  0  0  0
 18 46  1  0  0  0  0
M  END
> <Catalog ID>
Z1584001063

> <PlateID>
1041831-R-38

> <Well>
H02

> <MW (desalted)>
342.458

> <ClogP>
1.511

> <HBD>
0

> <TPSA>
49.330

> <RotBonds>
5

> <ROCS_ShapeQuery>
A71EV2A-x0451_0A_A71EV2A-x0310_0A_A71EV2A-x0416_0A_peptide

> <ROCS_TanimotoCombo>
0.538 

> <ROCS_ShapeTanimoto>
0.354 

> <ROCS_ColorTanimoto>
0.184 

> <ROCS_RefTversky>
0.314 

> <ROCS_RefColorTversky>
0.199 

> <ROCS_RefTverskyCombo>
0.512 

> <ROCS_FitTversky>
1.575 

> <ROCS_FitColorTversky>
0.709 

> <ROCS_FitTverskyCombo>
2.285 

> <ROCS_ColorScore>
-6.053

> <ROCS_Overlap>
2178.947

> <ROCS_Rank>
162                 

$$$$
untitled-dbase-1909_3555
  -OEChem-11132311063D

 44 47  0     0  0  0  0  0  0999 V2000
   12.3988   15.7292   27.2275 C   0  0  0  0  0  0  0  0  0  0  0  0
   13.7125   16.7554   19.4887 C   0  0  0  0  0  0  0  0  0  0  0  0
   12.7105   16.2758   25.9826 C   0  0  0  0  0  0  0  0  0  0  0  0
   13.5331   16.9039   20.8594 C   0  0  0  0  0  0  0  0  0  0  0  0
   12.8160   14.4368   27.5460 C   0  0  0  0  0  0  0  0  0  0  0  0
   13.8563   14.2375   25.3746 C   0  0  0  0  0  0  0  0  0  0  0  0
   13.1216   15.6646   18.8717 C   0  0  0  0  0  0  0  0  0  0  0  0
   13.4392   15.5300   25.0562 C   0  0  0  0  0  0  0  0  0  0  0  0
   12.7789   15.9702   21.5614 C   0  0  0  0  0  0  0  0  0  0  0  0
   13.5447   13.6910   26.6195 C   0  0  0  0  0  0  0  0  0  0  0  0
   12.2296   14.9147   20.8516 C   0  0  0  0  0  0  0  0  0  0  0  0
    8.7606   10.5954   24.0202 C   0  0  0  0  0  0  0  0  0  0  0  0
    7.1170   11.6694   24.9807 C   0  0  0  0  0  0  0  0  0  0  0  0
    9.9743   10.4981   23.2844 C   0  0  0  0  0  0  0  0  0  0  0  0
   10.5880   11.6234   22.8667 C   0  0  0  0  0  0  0  0  0  0  0  0
    8.8855   13.0372   23.8485 C   0  0  0  0  0  0  0  0  0  0  0  0
   10.0324   12.9389   23.1536 C   0  0  0  0  0  0  0  0  0  0  0  0
   10.6933   14.1627   22.7027 C   0  0  0  0  0  0  0  0  0  0  0  0
    6.2576   12.7678   25.4622 C   0  0  0  0  0  0  0  0  0  0  0  0
   13.7731   16.1182   23.7168 C   0  0  0  0  0  0  0  0  0  0  0  0
   12.3822   14.7371   19.5201 N   0  0  0  0  0  0  0  0  0  0  0  0
    7.9507    9.7030   24.5492 N   0  0  0  0  0  0  0  0  0  0  0  0
    6.9130   10.3827   25.1556 N   0  0  0  0  0  0  0  0  0  0  0  0
    8.2671   11.8662   24.2715 N   0  0  0  0  0  0  0  0  0  0  0  0
   11.4592   13.9607   21.5602 N   0  0  0  0  0  0  0  0  0  0  0  0
   10.5333   15.2144   23.3256 O   0  0  0  0  0  0  0  0  0  0  0  0
   12.6013   16.1137   22.9006 O   0  0  0  0  0  0  0  0  0  0  0  0
   14.0581   12.0961   27.0126 Cl  0  0  0  0  0  0  0  0  0  0  0  0
   11.8312   16.3103   27.9486 H   0  0  0  0  0  0  0  0  0  0  0  0
   14.2977   17.4700   18.9213 H   0  0  0  0  0  0  0  0  0  0  0  0
   12.3813   17.2835   25.7430 H   0  0  0  0  0  0  0  0  0  0  0  0
   13.9835   17.7478   21.3744 H   0  0  0  0  0  0  0  0  0  0  0  0
   12.5656   14.0235   28.5199 H   0  0  0  0  0  0  0  0  0  0  0  0
   14.4247   13.6603   24.6490 H   0  0  0  0  0  0  0  0  0  0  0  0
   13.2331   15.5024   17.8046 H   0  0  0  0  0  0  0  0  0  0  0  0
   10.3926    9.5215   23.0687 H   0  0  0  0  0  0  0  0  0  0  0  0
   11.5136   11.5635   22.3035 H   0  0  0  0  0  0  0  0  0  0  0  0
    8.4127   13.9793   24.1001 H   0  0  0  0  0  0  0  0  0  0  0  0
    6.5612   13.0984   26.4692 H   0  0  0  0  0  0  0  0  0  0  0  0
    6.2959   13.6467   24.7958 H   0  0  0  0  0  0  0  0  0  0  0  0
    5.1957   12.4711   25.5133 H   0  0  0  0  0  0  0  0  0  0  0  0
   14.1327   17.1476   23.8196 H   0  0  0  0  0  0  0  0  0  0  0  0
   14.5577   15.5355   23.2221 H   0  0  0  0  0  0  0  0  0  0  0  0
   11.4792   13.0191   21.1735 H   0  0  0  0  0  0  0  0  0  0  0  0
  1  3  1  0  0  0  0
  1  5  2  0  0  0  0
  2  4  1  0  0  0  0
  2  7  2  0  0  0  0
  3  8  2  0  0  0  0
  4  9  2  0  0  0  0
  5 10  1  0  0  0  0
  6  8  1  0  0  0  0
  6 10  2  0  0  0  0
  7 21  1  0  0  0  0
  8 20  1  0  0  0  0
  9 11  1  0  0  0  0
  9 27  1  0  0  0  0
 10 28  1  0  0  0  0
 11 21  2  0  0  0  0
 11 25  1  0  0  0  0
 12 14  1  0  0  0  0
 12 22  2  0  0  0  0
 12 24  1  0  0  0  0
 13 19  1  0  0  0  0
 13 23  2  0  0  0  0
 13 24  1  0  0  0  0
 14 15  2  0  0  0  0
 15 17  1  0  0  0  0
 16 17  2  0  0  0  0
 16 24  1  0  0  0  0
 17 18  1  0  0  0  0
 18 25  1  0  0  0  0
 18 26  2  0  0  0  0
 20 27  1  0  0  0  0
 22 23  1  0  0  0  0
  1 29  1  0  0  0  0
  2 30  1  0  0  0  0
  3 31  1  0  0  0  0
  4 32  1  0  0  0  0
  5 33  1  0  0  0  0
  6 34  1  0  0  0  0
  7 35  1  0  0  0  0
 14 36  1  0  0  0  0
 15 37  1  0  0  0  0
 16 38  1  0  0  0  0
 19 39  1  0  0  0  0
 19 40  1  0  0  0  0
 19 41  1  0  0  0  0
 20 42  1  0  0  0  0
 20 43  1  0  0  0  0
 25 44  1  0  0  0  0
M  END
> <Catalog ID>
Z1318946822

> <PlateID>
1041831-R-24

> <Well>
G10

> <MW (desalted)>
393.826

> <ClogP>
2.829

> <HBD>
1

> <TPSA>
81.410

> <RotBonds>
5

> <ROCS_ShapeQuery>
A71EV2A-x0451_0A_A71EV2A-x0310_0A_A71EV2A-x0416_0A_peptide

> <ROCS_TanimotoCombo>
0.538 

> <ROCS_ShapeTanimoto>
0.350 

> <ROCS_ColorTanimoto>
0.188 

> <ROCS_RefTversky>
0.319 

> <ROCS_RefColorTversky>
0.217 

> <ROCS_RefTverskyCombo>
0.535 

> <ROCS_FitTversky>
1.389 

> <ROCS_FitColorTversky>
0.583 

> <ROCS_FitTverskyCombo>
1.972 

> <ROCS_ColorScore>
-6.638

> <ROCS_Overlap>
2218.635

> <ROCS_Rank>
163                 

$$$$
untitled-dbase-692_178
  -OEChem-11132311063D

 40 43  0     0  0  0  0  0  0999 V2000
   13.8962   14.4809   21.7134 C   0  0  0  0  0  0  0  0  0  0  0  0
   12.8883   13.7541   22.3536 C   0  0  0  0  0  0  0  0  0  0  0  0
    8.0876   12.4889   25.0673 C   0  0  0  0  0  0  0  0  0  0  0  0
   11.3273   14.2780   20.5738 C   0  0  0  0  0  0  0  0  0  0  0  0
    7.2282   10.2794   24.8775 C   0  0  0  0  0  0  0  0  0  0  0  0
    4.8008   11.3703   26.5329 C   0  0  0  0  0  0  0  0  0  0  0  0
    9.0736   10.8624   23.6395 C   0  0  0  0  0  0  0  0  0  0  0  0
    6.2510   12.7764   27.4017 C   0  0  0  0  0  0  0  0  0  0  0  0
    7.1430   11.5409   25.4443 C   0  0  0  0  0  0  0  0  0  0  0  0
    6.1132   11.8588   26.3890 C   0  0  0  0  0  0  0  0  0  0  0  0
    9.0748   12.1513   24.1481 C   0  0  0  0  0  0  0  0  0  0  0  0
   13.6260   15.1200   20.4839 C   0  0  0  0  0  0  0  0  0  0  0  0
   11.6212   13.6553   21.7895 C   0  0  0  0  0  0  0  0  0  0  0  0
   12.3446   15.0063   19.9361 C   0  0  0  0  0  0  0  0  0  0  0  0
   13.9293   16.3133   18.6534 C   0  0  0  0  0  0  0  0  0  0  0  0
   10.0899   13.1329   23.7292 C   0  0  0  0  0  0  0  0  0  0  0  0
   14.5850   17.1506   17.6254 C   0  0  0  0  0  0  0  0  0  0  0  0
    4.7204   13.5898   29.2117 C   0  0  0  0  0  0  0  0  0  0  0  0
    8.1725    9.9144   23.9817 N   0  0  0  0  0  0  0  0  0  0  0  0
    4.1513   11.9309   27.5565 N   0  0  0  0  0  0  0  0  0  0  0  0
   14.5222   15.8712   19.7377 N   0  0  0  0  0  0  0  0  0  0  0  0
    5.0593   12.7812   28.0650 N   0  0  0  0  0  0  0  0  0  0  0  0
   10.6283   12.9240   22.4439 N   0  0  0  0  0  0  0  0  0  0  0  0
   10.4447   14.0368   24.4828 O   0  0  0  0  0  0  0  0  0  0  0  0
   12.2893   15.8733   18.4468 S   0  0  0  0  0  0  0  0  0  0  0  0
   14.8824   14.5533   22.1632 H   0  0  0  0  0  0  0  0  0  0  0  0
   13.1112   13.2662   23.2997 H   0  0  0  0  0  0  0  0  0  0  0  0
    8.0588   13.4926   25.4872 H   0  0  0  0  0  0  0  0  0  0  0  0
   10.3383   14.2019   20.1303 H   0  0  0  0  0  0  0  0  0  0  0  0
    6.5211    9.4943   25.1296 H   0  0  0  0  0  0  0  0  0  0  0  0
    4.2874   10.6289   25.9367 H   0  0  0  0  0  0  0  0  0  0  0  0
    9.8193   10.5397   22.9190 H   0  0  0  0  0  0  0  0  0  0  0  0
    7.0732   13.4121   27.7028 H   0  0  0  0  0  0  0  0  0  0  0  0
   15.0507   16.5265   16.8468 H   0  0  0  0  0  0  0  0  0  0  0  0
   13.8706   17.8294   17.1316 H   0  0  0  0  0  0  0  0  0  0  0  0
   15.3698   17.7926   18.0580 H   0  0  0  0  0  0  0  0  0  0  0  0
    4.2928   14.5280   28.8483 H   0  0  0  0  0  0  0  0  0  0  0  0
    3.9966   13.0551   29.8331 H   0  0  0  0  0  0  0  0  0  0  0  0
    5.6233   13.7817   29.7981 H   0  0  0  0  0  0  0  0  0  0  0  0
   10.2401   12.1312   21.9209 H   0  0  0  0  0  0  0  0  0  0  0  0
  1  2  1  0  0  0  0
  1 12  2  0  0  0  0
  2 13  2  0  0  0  0
  3  9  2  0  0  0  0
  3 11  1  0  0  0  0
  4 13  1  0  0  0  0
  4 14  2  0  0  0  0
  5  9  1  0  0  0  0
  5 19  2  0  0  0  0
  6 10  1  0  0  0  0
  6 20  2  0  0  0  0
  7 11  2  0  0  0  0
  7 19  1  0  0  0  0
  8 10  2  0  0  0  0
  8 22  1  0  0  0  0
  9 10  1  0  0  0  0
 11 16  1  0  0  0  0
 12 14  1  0  0  0  0
 12 21  1  0  0  0  0
 13 23  1  0  0  0  0
 14 25  1  0  0  0  0
 15 17  1  0  0  0  0
 15 21  2  0  0  0  0
 15 25  1  0  0  0  0
 16 23  1  0  0  0  0
 16 24  2  0  0  0  0
 18 22  1  0  0  0  0
 20 22  1  0  0  0  0
  1 26  1  0  0  0  0
  2 27  1  0  0  0  0
  3 28  1  0  0  0  0
  4 29  1  0  0  0  0
  5 30  1  0  0  0  0
  6 31  1  0  0  0  0
  7 32  1  0  0  0  0
  8 33  1  0  0  0  0
 17 34  1  0  0  0  0
 17 35  1  0  0  0  0
 17 36  1  0  0  0  0
 18 37  1  0  0  0  0
 18 38  1  0  0  0  0
 18 39  1  0  0  0  0
 23 40  1  0  0  0  0
M  END
> <Catalog ID>
Z1157889214

> <PlateID>
1041831-R-09

> <Well>
F03

> <MW (desalted)>
349.410

> <ClogP>
2.648

> <HBD>
1

> <TPSA>
72.700

> <RotBonds>
3

> <ROCS_ShapeQuery>
A71EV2A-x0451_0A_A71EV2A-x0310_0A_A71EV2A-x0416_0A_peptide

> <ROCS_TanimotoCombo>
0.537 

> <ROCS_ShapeTanimoto>
0.328 

> <ROCS_ColorTanimoto>
0.210 

> <ROCS_RefTversky>
0.299 

> <ROCS_RefColorTversky>
0.231 

> <ROCS_RefTverskyCombo>
0.529 

> <ROCS_FitTversky>
1.421 

> <ROCS_FitColorTversky>
0.695 

> <ROCS_FitTverskyCombo>
2.116 

> <ROCS_ColorScore>
-7.058

> <ROCS_Overlap>
2076.748

> <ROCS_Rank>
164                 

$$$$
untitled-dbase-178_188
  -OEChem-11132311063D

 40 43  0     1  0  0  0  0  0999 V2000
    6.9919   12.9269   25.9172 C   0  0  0  0  0  0  0  0  0  0  0  0
    6.0599   11.9017   25.7728 C   0  0  0  0  0  0  0  0  0  0  0  0
    8.2698   12.7920   25.3718 C   0  0  0  0  0  0  0  0  0  0  0  0
    6.4037   10.7416   25.0820 C   0  0  0  0  0  0  0  0  0  0  0  0
   12.5814   15.9524   20.7562 C   0  0  0  0  0  0  0  0  0  0  0  0
   13.3519   16.9440   21.3032 C   0  0  0  0  0  0  0  0  0  0  0  0
    8.6303   11.6299   24.6724 C   0  0  0  0  0  0  0  0  0  0  0  0
    7.6798   10.6124   24.5291 C   0  0  0  0  0  0  0  0  0  0  0  0
   11.7699   15.5321   21.8241 C   0  0  0  0  0  0  0  0  0  0  0  0
   10.5777   13.7387   23.1431 C   0  0  0  0  0  0  0  0  0  0  0  0
    8.5556    8.2992   21.2472 C   0  0  0  0  0  0  0  0  0  0  0  0
    9.4305    7.9685   22.4690 C   0  0  0  0  0  0  0  0  0  0  0  0
    8.8382    9.7863   21.5244 C   0  0  0  0  0  0  0  0  0  0  0  0
   10.3162   10.0410   23.6988 C   0  0  0  0  0  0  0  0  0  0  0  0
   10.0162   11.4947   24.0909 C   0  0  1  0  0  0  0  0  0  0  0  0
    9.1116    9.3979   23.0122 C   0  0  0  0  0  0  0  0  0  0  0  0
   10.7164   14.4563   21.8143 C   0  0  0  0  0  0  0  0  0  0  0  0
   12.0181   16.2110   22.9476 N   0  0  0  0  0  0  0  0  0  0  0  0
   10.2127   12.4135   22.9663 N   0  0  0  0  0  0  0  0  0  0  0  0
   10.7724   14.2789   24.2290 O   0  0  0  0  0  0  0  0  0  0  0  0
   13.0250   17.1077   22.6107 O   0  0  0  0  0  0  0  0  0  0  0  0
    7.9507    9.4298   23.8844 O   0  0  0  0  0  0  0  0  0  0  0  0
    6.7252   13.8302   26.4570 H   0  0  0  0  0  0  0  0  0  0  0  0
    5.0690   12.0025   26.2064 H   0  0  0  0  0  0  0  0  0  0  0  0
    8.9781   13.6038   25.5053 H   0  0  0  0  0  0  0  0  0  0  0  0
    5.6776    9.9384   24.9876 H   0  0  0  0  0  0  0  0  0  0  0  0
   12.6062   15.5914   19.7388 H   0  0  0  0  0  0  0  0  0  0  0  0
   14.1292   17.5916   20.9263 H   0  0  0  0  0  0  0  0  0  0  0  0
    8.9698    7.9407   20.3001 H   0  0  0  0  0  0  0  0  0  0  0  0
    7.5101    7.9950   21.3170 H   0  0  0  0  0  0  0  0  0  0  0  0
    9.0288    7.1617   23.0899 H   0  0  0  0  0  0  0  0  0  0  0  0
   10.4740    7.7489   22.2398 H   0  0  0  0  0  0  0  0  0  0  0  0
    9.6770   10.2095   20.9701 H   0  0  0  0  0  0  0  0  0  0  0  0
    7.9646   10.4307   21.3905 H   0  0  0  0  0  0  0  0  0  0  0  0
   11.1803   10.0017   23.0102 H   0  0  0  0  0  0  0  0  0  0  0  0
   10.6176    9.4726   24.5961 H   0  0  0  0  0  0  0  0  0  0  0  0
   10.7235   11.8238   24.8703 H   0  0  0  0  0  0  0  0  0  0  0  0
    9.7464   14.8941   21.5459 H   0  0  0  0  0  0  0  0  0  0  0  0
   10.9500   13.7158   21.0388 H   0  0  0  0  0  0  0  0  0  0  0  0
   10.0766   12.0665   22.0230 H   0  0  0  0  0  0  0  0  0  0  0  0
  1  2  2  0  0  0  0
  1  3  1  0  0  0  0
  2  4  1  0  0  0  0
  3  7  2  0  0  0  0
  4  8  2  0  0  0  0
  5  6  2  0  0  0  0
  5  9  1  0  0  0  0
  6 21  1  0  0  0  0
  7  8  1  0  0  0  0
  7 15  1  0  0  0  0
  8 22  1  0  0  0  0
  9 17  1  0  0  0  0
  9 18  2  0  0  0  0
 10 17  1  0  0  0  0
 10 19  1  0  0  0  0
 10 20  2  0  0  0  0
 11 12  1  0  0  0  0
 11 13  1  0  0  0  0
 12 16  1  0  0  0  0
 13 16  1  0  0  0  0
 14 15  1  0  0  0  0
 14 16  1  0  0  0  0
 15 19  1  0  0  0  0
 16 22  1  0  0  0  0
 18 21  1  0  0  0  0
  1 23  1  0  0  0  0
  2 24  1  0  0  0  0
  3 25  1  0  0  0  0
  4 26  1  0  0  0  0
  5 27  1  0  0  0  0
  6 28  1  0  0  0  0
 11 29  1  0  0  0  0
 11 30  1  0  0  0  0
 12 31  1  0  0  0  0
 12 32  1  0  0  0  0
 13 33  1  0  0  0  0
 13 34  1  0  0  0  0
 14 35  1  0  0  0  0
 14 36  1  0  0  0  0
 15 37  1  0  0  0  0
 17 38  1  0  0  0  0
 17 39  1  0  0  0  0
 19 40  1  0  0  0  0
M  END
> <Catalog ID>
Z1408722346

> <PlateID>
1041831-R-03

> <Well>
B09

> <MW (desalted)>
298.336

> <ClogP>
1.434

> <HBD>
1

> <TPSA>
64.360

> <RotBonds>
3

> <ROCS_ShapeQuery>
A71EV2A-x0451_0A_A71EV2A-x0310_0A_A71EV2A-x0416_0A_peptide

> <ROCS_TanimotoCombo>
0.537 

> <ROCS_ShapeTanimoto>
0.345 

> <ROCS_ColorTanimoto>
0.192 

> <ROCS_RefTversky>
0.305 

> <ROCS_RefColorTversky>
0.210 

> <ROCS_RefTverskyCombo>
0.515 

> <ROCS_FitTversky>
1.607 

> <ROCS_FitColorTversky>
0.697 

> <ROCS_FitTverskyCombo>
2.303 

> <ROCS_ColorScore>
-6.406

> <ROCS_Overlap>
2119.052

> <ROCS_Rank>
165                 

$$$$
untitled-dbase-229_72
  -OEChem-11132311063D

 48 52  0     0  0  0  0  0  0999 V2000
   13.0877   17.2830   20.1234 C   0  0  0  0  0  0  0  0  0  0  0  0
   13.5263   17.0802   18.7960 C   0  0  0  0  0  0  0  0  0  0  0  0
   13.0939   16.0248   20.6762 C   0  0  0  0  0  0  0  0  0  0  0  0
   13.6472   13.8369   19.8782 C   0  0  0  0  0  0  0  0  0  0  0  0
   12.7684   15.4997   21.9713 C   0  0  0  0  0  0  0  0  0  0  0  0
   11.1514   13.2685   23.5023 C   0  0  0  0  0  0  0  0  0  0  0  0
    7.2778   10.1333   25.5862 C   0  0  0  0  0  0  0  0  0  0  0  0
    7.3360   10.1088   23.0798 C   0  0  0  0  0  0  0  0  0  0  0  0
    7.0180   12.2766   24.3116 C   0  0  0  0  0  0  0  0  0  0  0  0
    9.4305    9.6774   24.3848 C   0  0  0  0  0  0  0  0  0  0  0  0
    9.1131   11.8409   25.6140 C   0  0  0  0  0  0  0  0  0  0  0  0
    6.6952   10.7711   24.3134 C   0  0  0  0  0  0  0  0  0  0  0  0
    8.8025   10.3347   25.6254 C   0  0  0  0  0  0  0  0  0  0  0  0
    8.8632   10.3147   23.1006 C   0  0  0  0  0  0  0  0  0  0  0  0
    8.5439   12.4919   24.3377 C   0  0  0  0  0  0  0  0  0  0  0  0
    9.1530   11.8320   23.0806 C   0  0  0  0  0  0  0  0  0  0  0  0
   11.3597   11.0818   22.2794 C   0  0  0  0  0  0  0  0  0  0  0  0
   12.6519   13.3922   23.3041 C   0  0  0  0  0  0  0  0  0  0  0  0
   13.7895   15.7956   18.5272 N   0  0  0  0  0  0  0  0  0  0  0  0
   13.3682   13.3006   21.0250 N   0  0  0  0  0  0  0  0  0  0  0  0
   13.5148   15.1915   19.6915 N   0  0  0  0  0  0  0  0  0  0  0  0
   12.9294   14.0960   22.0848 N   0  0  0  0  0  0  0  0  0  0  0  0
   10.5688   12.1005   22.9731 N   0  0  0  0  0  0  0  0  0  0  0  0
   12.3844   16.2126   22.8961 O   0  0  0  0  0  0  0  0  0  0  0  0
   10.5179   14.1478   24.0923 O   0  0  0  0  0  0  0  0  0  0  0  0
   12.8096   18.2101   20.6029 H   0  0  0  0  0  0  0  0  0  0  0  0
   13.6642   17.8151   18.0160 H   0  0  0  0  0  0  0  0  0  0  0  0
   13.9940   13.2144   19.0381 H   0  0  0  0  0  0  0  0  0  0  0  0
    6.8172   10.5825   26.4748 H   0  0  0  0  0  0  0  0  0  0  0  0
    7.0402    9.0627   25.6116 H   0  0  0  0  0  0  0  0  0  0  0  0
    7.1025    9.0369   23.0668 H   0  0  0  0  0  0  0  0  0  0  0  0
    6.9127   10.5375   22.1630 H   0  0  0  0  0  0  0  0  0  0  0  0
    6.5879   12.7501   23.4205 H   0  0  0  0  0  0  0  0  0  0  0  0
    6.5566   12.7596   25.1819 H   0  0  0  0  0  0  0  0  0  0  0  0
   10.5213    9.7841   24.4151 H   0  0  0  0  0  0  0  0  0  0  0  0
    9.2211    8.6004   24.3880 H   0  0  0  0  0  0  0  0  0  0  0  0
    8.6762   12.3176   26.5003 H   0  0  0  0  0  0  0  0  0  0  0  0
   10.1962   12.0013   25.6754 H   0  0  0  0  0  0  0  0  0  0  0  0
    5.6096   10.6253   24.2895 H   0  0  0  0  0  0  0  0  0  0  0  0
    9.2118    9.8785   26.5336 H   0  0  0  0  0  0  0  0  0  0  0  0
    9.3029    9.8319   22.2199 H   0  0  0  0  0  0  0  0  0  0  0  0
    8.7551   13.5677   24.3427 H   0  0  0  0  0  0  0  0  0  0  0  0
    8.7057   12.2766   22.1830 H   0  0  0  0  0  0  0  0  0  0  0  0
   11.7190   10.3381   23.0060 H   0  0  0  0  0  0  0  0  0  0  0  0
   10.7343   10.5837   21.5239 H   0  0  0  0  0  0  0  0  0  0  0  0
   12.2201   11.5583   21.7868 H   0  0  0  0  0  0  0  0  0  0  0  0
   13.0975   13.9621   24.1235 H   0  0  0  0  0  0  0  0  0  0  0  0
   13.1086   12.4023   23.2243 H   0  0  0  0  0  0  0  0  0  0  0  0
  1  2  1  0  0  0  0
  1  3  2  0  0  0  0
  2 19  2  0  0  0  0
  3  5  1  0  0  0  0
  3 21  1  0  0  0  0
  4 20  2  0  0  0  0
  4 21  1  0  0  0  0
  5 22  1  0  0  0  0
  5 24  2  0  0  0  0
  6 18  1  0  0  0  0
  6 23  1  0  0  0  0
  6 25  2  0  0  0  0
  7 12  1  0  0  0  0
  7 13  1  0  0  0  0
  8 12  1  0  0  0  0
  8 14  1  0  0  0  0
  9 12  1  0  0  0  0
  9 15  1  0  0  0  0
 10 13  1  0  0  0  0
 10 14  1  0  0  0  0
 11 13  1  0  0  0  0
 11 15  1  0  0  0  0
 14 16  1  0  0  0  0
 15 16  1  0  0  0  0
 16 23  1  0  0  0  0
 17 23  1  0  0  0  0
 18 22  1  0  0  0  0
 19 21  1  0  0  0  0
 20 22  1  0  0  0  0
  1 26  1  0  0  0  0
  2 27  1  0  0  0  0
  4 28  1  0  0  0  0
  7 29  1  0  0  0  0
  7 30  1  0  0  0  0
  8 31  1  0  0  0  0
  8 32  1  0  0  0  0
  9 33  1  0  0  0  0
  9 34  1  0  0  0  0
 10 35  1  0  0  0  0
 10 36  1  0  0  0  0
 11 37  1  0  0  0  0
 11 38  1  0  0  0  0
 12 39  1  0  0  0  0
 13 40  1  0  0  0  0
 14 41  1  0  0  0  0
 15 42  1  0  0  0  0
 16 43  1  0  0  0  0
 17 44  1  0  0  0  0
 17 45  1  0  0  0  0
 17 46  1  0  0  0  0
 18 47  1  0  0  0  0
 18 48  1  0  0  0  0
M  END
> <Catalog ID>
Z1184999045

> <PlateID>
1041831-R-03

> <Well>
G10

> <MW (desalted)>
341.408

> <ClogP>
0.535

> <HBD>
0

> <TPSA>
70.800

> <RotBonds>
3

> <ROCS_ShapeQuery>
A71EV2A-x0451_0A_A71EV2A-x0310_0A_A71EV2A-x0416_0A_peptide

> <ROCS_TanimotoCombo>
0.537 

> <ROCS_ShapeTanimoto>
0.327 

> <ROCS_ColorTanimoto>
0.210 

> <ROCS_RefTversky>
0.299 

> <ROCS_RefColorTversky>
0.250 

> <ROCS_RefTverskyCombo>
0.549 

> <ROCS_FitTversky>
1.399 

> <ROCS_FitColorTversky>
0.571 

> <ROCS_FitTverskyCombo>
1.970 

> <ROCS_ColorScore>
-7.685

> <ROCS_Overlap>
2077.592

> <ROCS_Rank>
166                 

$$$$
untitled-dbase-848_942
  -OEChem-11132311063D

 47 50  0     0  0  0  0  0  0999 V2000
    6.1394   12.3356   26.0435 C   0  0  0  0  0  0  0  0  0  0  0  0
    6.6194   13.3940   25.2687 C   0  0  0  0  0  0  0  0  0  0  0  0
    6.6409   11.0379   25.8820 C   0  0  0  0  0  0  0  0  0  0  0  0
    7.6155   13.1960   24.3068 C   0  0  0  0  0  0  0  0  0  0  0  0
    9.7327    7.7348   22.7745 C   0  0  0  0  0  0  0  0  0  0  0  0
   11.8651    8.4358   21.9003 C   0  0  0  0  0  0  0  0  0  0  0  0
    7.6418   10.8208   24.9200 C   0  0  0  0  0  0  0  0  0  0  0  0
    8.1000   11.8955   24.1633 C   0  0  0  0  0  0  0  0  0  0  0  0
   10.0429    9.0678   22.9445 C   0  0  0  0  0  0  0  0  0  0  0  0
    9.1311   10.0153   23.6191 C   0  0  0  0  0  0  0  0  0  0  0  0
   14.4919   15.8544   19.2640 C   0  0  0  0  0  0  0  0  0  0  0  0
   14.0652   15.2961   20.5379 C   0  0  0  0  0  0  0  0  0  0  0  0
   12.8040   15.4895   20.9807 C   0  0  0  0  0  0  0  0  0  0  0  0
   13.6472   16.5620   18.5015 C   0  0  0  0  0  0  0  0  0  0  0  0
   11.8488   16.2806   20.1189 C   0  0  0  0  0  0  0  0  0  0  0  0
   10.6461   13.2058   22.9481 C   0  0  0  0  0  0  0  0  0  0  0  0
   15.1356   14.5172   21.2513 C   0  0  0  0  0  0  0  0  0  0  0  0
   14.0227   17.1624   17.1848 C   0  0  0  0  0  0  0  0  0  0  0  0
   12.2293   15.0041   22.2800 C   0  0  0  0  0  0  0  0  0  0  0  0
    9.8379   12.0762   22.3462 C   0  0  0  0  0  0  0  0  0  0  0  0
   11.2654    9.4715   22.4443 N   0  0  0  0  0  0  0  0  0  0  0  0
    8.2938    9.6613   24.5681 N   0  0  0  0  0  0  0  0  0  0  0  0
    9.0519   11.3512   23.3397 N   0  0  0  0  0  0  0  0  0  0  0  0
   12.3566   16.7640   18.9276 N   0  0  0  0  0  0  0  0  0  0  0  0
   11.3769   13.8916   21.9799 N   0  0  0  0  0  0  0  0  0  0  0  0
   10.6867   16.4739   20.4726 O   0  0  0  0  0  0  0  0  0  0  0  0
   10.6491   13.4718   24.1470 O   0  0  0  0  0  0  0  0  0  0  0  0
   11.0157    6.9456   21.9545 S   0  0  0  0  0  0  0  0  0  0  0  0
    5.3635   12.5212   26.7819 H   0  0  0  0  0  0  0  0  0  0  0  0
    6.2131   14.3916   25.4167 H   0  0  0  0  0  0  0  0  0  0  0  0
    6.2616   10.2219   26.4887 H   0  0  0  0  0  0  0  0  0  0  0  0
    7.9883   14.0184   23.7067 H   0  0  0  0  0  0  0  0  0  0  0  0
    8.8458    7.1965   23.0795 H   0  0  0  0  0  0  0  0  0  0  0  0
   12.8405    8.5126   21.4399 H   0  0  0  0  0  0  0  0  0  0  0  0
   15.5159   15.6853   18.9448 H   0  0  0  0  0  0  0  0  0  0  0  0
   15.6957   15.1863   21.8983 H   0  0  0  0  0  0  0  0  0  0  0  0
   15.8027   14.0694   20.5195 H   0  0  0  0  0  0  0  0  0  0  0  0
   14.6738   13.7327   21.8447 H   0  0  0  0  0  0  0  0  0  0  0  0
   13.8235   16.4497   16.3855 H   0  0  0  0  0  0  0  0  0  0  0  0
   15.0820   17.4175   17.1851 H   0  0  0  0  0  0  0  0  0  0  0  0
   13.4415   18.0680   17.0142 H   0  0  0  0  0  0  0  0  0  0  0  0
   11.6649   15.8166   22.7330 H   0  0  0  0  0  0  0  0  0  0  0  0
   13.0488   14.7036   22.9295 H   0  0  0  0  0  0  0  0  0  0  0  0
   10.5081   11.3619   21.8548 H   0  0  0  0  0  0  0  0  0  0  0  0
    9.1488   12.4728   21.5920 H   0  0  0  0  0  0  0  0  0  0  0  0
   11.7365   17.3026   18.3293 H   0  0  0  0  0  0  0  0  0  0  0  0
   11.3287   13.5648   21.0137 H   0  0  0  0  0  0  0  0  0  0  0  0
  1  2  2  0  0  0  0
  1  3  1  0  0  0  0
  2  4  1  0  0  0  0
  3  7  2  0  0  0  0
  4  8  2  0  0  0  0
  5  9  2  0  0  0  0
  5 28  1  0  0  0  0
  6 21  2  0  0  0  0
  6 28  1  0  0  0  0
  7  8  1  0  0  0  0
  7 22  1  0  0  0  0
  8 23  1  0  0  0  0
  9 10  1  0  0  0  0
  9 21  1  0  0  0  0
 10 22  2  0  0  0  0
 10 23  1  0  0  0  0
 11 12  1  0  0  0  0
 11 14  2  0  0  0  0
 12 13  2  0  0  0  0
 12 17  1  0  0  0  0
 13 15  1  0  0  0  0
 13 19  1  0  0  0  0
 14 18  1  0  0  0  0
 14 24  1  0  0  0  0
 15 24  1  0  0  0  0
 15 26  2  0  0  0  0
 16 20  1  0  0  0  0
 16 25  1  0  0  0  0
 16 27  2  0  0  0  0
 19 25  1  0  0  0  0
 20 23  1  0  0  0  0
  1 29  1  0  0  0  0
  2 30  1  0  0  0  0
  3 31  1  0  0  0  0
  4 32  1  0  0  0  0
  5 33  1  0  0  0  0
  6 34  1  0  0  0  0
 11 35  1  0  0  0  0
 17 36  1  0  0  0  0
 17 37  1  0  0  0  0
 17 38  1  0  0  0  0
 18 39  1  0  0  0  0
 18 40  1  0  0  0  0
 18 41  1  0  0  0  0
 19 42  1  0  0  0  0
 19 43  1  0  0  0  0
 20 44  1  0  0  0  0
 20 45  1  0  0  0  0
 24 46  1  0  0  0  0
 25 47  1  0  0  0  0
M  END
> <Catalog ID>
Z119582896

> <PlateID>
1041831-R-11

> <Well>
E09

> <MW (desalted)>
393.462

> <ClogP>
1.326

> <HBD>
2

> <TPSA>
88.910

> <RotBonds>
5

> <ROCS_ShapeQuery>
A71EV2A-x0451_0A_A71EV2A-x0310_0A_A71EV2A-x0416_0A_peptide

> <ROCS_TanimotoCombo>
0.537 

> <ROCS_ShapeTanimoto>
0.372 

> <ROCS_ColorTanimoto>
0.165 

> <ROCS_RefTversky>
0.333 

> <ROCS_RefColorTversky>
0.197 

> <ROCS_RefTverskyCombo>
0.530 

> <ROCS_FitTversky>
1.462 

> <ROCS_FitColorTversky>
0.502 

> <ROCS_FitTverskyCombo>
1.963 

> <ROCS_ColorScore>
-6.050

> <ROCS_Overlap>
2315.906

> <ROCS_Rank>
167                 

$$$$
untitled-dbase-690_3594
  -OEChem-11132311063D

 43 45  0     1  0  0  0  0  0999 V2000
    7.2096   10.3436   25.8228 C   0  0  0  0  0  0  0  0  0  0  0  0
    6.4876   11.4814   26.1943 C   0  0  0  0  0  0  0  0  0  0  0  0
    7.6460   12.8279   24.5383 C   0  0  0  0  0  0  0  0  0  0  0  0
    9.7499   10.1307   23.2503 C   0  0  0  0  0  0  0  0  0  0  0  0
    8.3860   11.6946   24.1468 C   0  0  0  0  0  0  0  0  0  0  0  0
    9.3969   11.4583   23.1735 C   0  0  0  0  0  0  0  0  0  0  0  0
    8.1512   10.4810   24.7968 C   0  0  0  0  0  0  0  0  0  0  0  0
    6.7007   12.7054   25.5632 C   0  0  0  0  0  0  0  0  0  0  0  0
   11.7412   14.3988   20.6464 C   0  0  0  0  0  0  0  0  0  0  0  0
   11.8440   13.4603   23.5755 C   0  0  0  0  0  0  0  0  0  0  0  0
   11.9998   16.1359   18.8902 C   0  0  0  0  0  0  0  0  0  0  0  0
   13.9875   14.7768   19.6687 C   0  0  0  0  0  0  0  0  0  0  0  0
   12.5840   17.2942   19.6920 C   0  0  0  0  0  0  0  0  0  0  0  0
   14.4390   16.0243   20.4208 C   0  0  0  0  0  0  0  0  0  0  0  0
   12.4908   14.7787   19.3798 C   0  0  0  0  0  0  0  0  0  0  0  0
    9.9837   12.4737   22.2228 C   0  0  0  0  0  0  0  0  0  0  0  0
   11.5057   12.6114   22.3588 C   0  0  1  0  0  0  0  0  0  0  0  0
    8.9930    9.5495   24.2320 N   0  0  0  0  0  0  0  0  0  0  0  0
   12.0938   13.1656   21.1605 N   0  0  0  0  0  0  0  0  0  0  0  0
   10.9121   15.1715   21.1125 O   0  0  0  0  0  0  0  0  0  0  0  0
   12.9948   13.7379   23.8966 O   0  0  0  0  0  0  0  0  0  0  0  0
   14.0060   17.2056   19.7499 O   0  0  0  0  0  0  0  0  0  0  0  0
   10.7727   13.8969   24.2801 O   0  0  0  0  0  0  0  0  0  0  0  0
    5.6986   14.2206   26.0930 Br  0  0  0  0  0  0  0  0  0  0  0  0
    7.0433    9.3914   26.3154 H   0  0  0  0  0  0  0  0  0  0  0  0
    5.7515   11.3910   26.9904 H   0  0  0  0  0  0  0  0  0  0  0  0
    7.8135   13.7820   24.0454 H   0  0  0  0  0  0  0  0  0  0  0  0
   10.4712    9.5465   22.6959 H   0  0  0  0  0  0  0  0  0  0  0  0
   10.9053   16.1923   18.9007 H   0  0  0  0  0  0  0  0  0  0  0  0
   12.3206   16.2508   17.8466 H   0  0  0  0  0  0  0  0  0  0  0  0
   14.5142   14.7515   18.7060 H   0  0  0  0  0  0  0  0  0  0  0  0
   14.2842   13.8803   20.2251 H   0  0  0  0  0  0  0  0  0  0  0  0
   12.3278   18.2438   19.2112 H   0  0  0  0  0  0  0  0  0  0  0  0
   12.1775   17.3226   20.7097 H   0  0  0  0  0  0  0  0  0  0  0  0
   14.0679   16.0318   21.4520 H   0  0  0  0  0  0  0  0  0  0  0  0
   15.5325   16.0505   20.4688 H   0  0  0  0  0  0  0  0  0  0  0  0
   12.2518   14.0105   18.6554 H   0  0  0  0  0  0  0  0  0  0  0  0
    9.4936   13.4385   22.4102 H   0  0  0  0  0  0  0  0  0  0  0  0
    9.7186   12.2109   21.1896 H   0  0  0  0  0  0  0  0  0  0  0  0
   11.9833   11.6361   22.5078 H   0  0  0  0  0  0  0  0  0  0  0  0
    9.0437    8.5775   24.5042 H   0  0  0  0  0  0  0  0  0  0  0  0
   12.8001   12.6226   20.6728 H   0  0  0  0  0  0  0  0  0  0  0  0
   10.9901   14.4481   25.0612 H   0  0  0  0  0  0  0  0  0  0  0  0
  1  2  1  0  0  0  0
  1  7  2  0  0  0  0
  2  8  2  0  0  0  0
  3  5  2  0  0  0  0
  3  8  1  0  0  0  0
  4  6  2  0  0  0  0
  4 18  1  0  0  0  0
  5  6  1  0  0  0  0
  5  7  1  0  0  0  0
  6 16  1  0  0  0  0
  7 18  1  0  0  0  0
  8 24  1  0  0  0  0
  9 15  1  0  0  0  0
  9 19  1  0  0  0  0
  9 20  2  0  0  0  0
 10 17  1  0  0  0  0
 10 21  2  0  0  0  0
 10 23  1  0  0  0  0
 11 13  1  0  0  0  0
 11 15  1  0  0  0  0
 12 14  1  0  0  0  0
 12 15  1  0  0  0  0
 13 22  1  0  0  0  0
 14 22  1  0  0  0  0
 16 17  1  0  0  0  0
 17 19  1  0  0  0  0
  1 25  1  0  0  0  0
  2 26  1  0  0  0  0
  3 27  1  0  0  0  0
  4 28  1  0  0  0  0
 11 29  1  0  0  0  0
 11 30  1  0  0  0  0
 12 31  1  0  0  0  0
 12 32  1  0  0  0  0
 13 33  1  0  0  0  0
 13 34  1  0  0  0  0
 14 35  1  0  0  0  0
 14 36  1  0  0  0  0
 15 37  1  0  0  0  0
 16 38  1  0  0  0  0
 16 39  1  0  0  0  0
 17 40  1  0  0  0  0
 18 41  1  0  0  0  0
 19 42  1  0  0  0  0
 23 43  1  0  0  0  0
M  END
> <Catalog ID>
Z1445606665

> <PlateID>
1041831-R-09

> <Well>
E11

> <MW (desalted)>
395.248

> <ClogP>
1.473

> <HBD>
3

> <TPSA>
91.420

> <RotBonds>
5

> <ROCS_ShapeQuery>
A71EV2A-x0451_0A_A71EV2A-x0310_0A_A71EV2A-x0416_0A_peptide

> <ROCS_TanimotoCombo>
0.537 

> <ROCS_ShapeTanimoto>
0.350 

> <ROCS_ColorTanimoto>
0.187 

> <ROCS_RefTversky>
0.311 

> <ROCS_RefColorTversky>
0.219 

> <ROCS_RefTverskyCombo>
0.530 

> <ROCS_FitTversky>
1.568 

> <ROCS_FitColorTversky>
0.557 

> <ROCS_FitTverskyCombo>
2.125 

> <ROCS_ColorScore>
-6.724

> <ROCS_Overlap>
2159.018

> <ROCS_Rank>
168                 

$$$$
untitled-dbase-2583_9287
  -OEChem-11132311063D

 49 52  0     0  0  0  0  0  0999 V2000
    8.2394    7.5717   23.6118 C   0  0  0  0  0  0  0  0  0  0  0  0
    9.4443    7.6059   22.9208 C   0  0  0  0  0  0  0  0  0  0  0  0
    7.7048    8.7522   24.1195 C   0  0  0  0  0  0  0  0  0  0  0  0
   10.1113    8.8199   22.7390 C   0  0  0  0  0  0  0  0  0  0  0  0
    8.5471   12.3657   24.2394 C   0  0  0  0  0  0  0  0  0  0  0  0
    8.3759    9.9732   23.9365 C   0  0  0  0  0  0  0  0  0  0  0  0
    9.5995   10.0155   23.2357 C   0  0  0  0  0  0  0  0  0  0  0  0
    7.8603   11.1764   24.4369 C   0  0  0  0  0  0  0  0  0  0  0  0
    9.7364   12.3074   23.5416 C   0  0  0  0  0  0  0  0  0  0  0  0
   10.5132   13.5323   23.2967 C   0  0  0  0  0  0  0  0  0  0  0  0
   13.4665   16.3320   19.7944 C   0  0  0  0  0  0  0  0  0  0  0  0
   12.0211   16.1222   19.3052 C   0  0  0  0  0  0  0  0  0  0  0  0
   13.5059   14.8252   20.1121 C   0  0  0  0  0  0  0  0  0  0  0  0
   11.2281   13.6438   19.6721 C   0  0  0  0  0  0  0  0  0  0  0  0
   10.3039   13.1887   20.7865 C   0  0  0  0  0  0  0  0  0  0  0  0
   11.4291   15.1309   21.6485 C   0  0  0  0  0  0  0  0  0  0  0  0
   11.9477   14.8707   20.2348 C   0  0  0  0  0  0  0  0  0  0  0  0
    4.3678   14.5394   27.5516 C   0  0  0  0  0  0  0  0  0  0  0  0
    5.9186   12.4161   25.0274 C   0  0  0  0  0  0  0  0  0  0  0  0
    5.7285   12.9964   26.4156 C   0  0  0  0  0  0  0  0  0  0  0  0
   10.2682   11.1681   23.0426 N   0  0  0  0  0  0  0  0  0  0  0  0
   10.7501   13.8930   21.9763 N   0  0  0  0  0  0  0  0  0  0  0  0
   10.9060   14.1518   24.2835 O   0  0  0  0  0  0  0  0  0  0  0  0
    6.6827   11.2171   25.1253 O   0  0  0  0  0  0  0  0  0  0  0  0
    4.9833   14.2039   26.3158 O   0  0  0  0  0  0  0  0  0  0  0  0
    7.7182    6.6301   23.7550 H   0  0  0  0  0  0  0  0  0  0  0  0
    9.8683    6.6897   22.5210 H   0  0  0  0  0  0  0  0  0  0  0  0
    6.7607    8.7030   24.6567 H   0  0  0  0  0  0  0  0  0  0  0  0
   11.0538    8.8197   22.1947 H   0  0  0  0  0  0  0  0  0  0  0  0
    8.1598   13.3045   24.6218 H   0  0  0  0  0  0  0  0  0  0  0  0
   14.1785   16.6764   19.0413 H   0  0  0  0  0  0  0  0  0  0  0  0
   13.5455   16.9725   20.6792 H   0  0  0  0  0  0  0  0  0  0  0  0
   11.3255   16.9386   19.5253 H   0  0  0  0  0  0  0  0  0  0  0  0
   11.9583   15.8957   18.2327 H   0  0  0  0  0  0  0  0  0  0  0  0
   13.8658   14.2129   19.2784 H   0  0  0  0  0  0  0  0  0  0  0  0
   14.0519   14.5477   21.0158 H   0  0  0  0  0  0  0  0  0  0  0  0
   11.9613   12.8469   19.4437 H   0  0  0  0  0  0  0  0  0  0  0  0
   10.6804   13.8538   18.7351 H   0  0  0  0  0  0  0  0  0  0  0  0
    9.2669   13.4953   20.5945 H   0  0  0  0  0  0  0  0  0  0  0  0
   10.3169   12.1030   20.9419 H   0  0  0  0  0  0  0  0  0  0  0  0
   12.2522   15.2650   22.3653 H   0  0  0  0  0  0  0  0  0  0  0  0
   10.7474   15.9896   21.7224 H   0  0  0  0  0  0  0  0  0  0  0  0
    3.8054   15.4695   27.4387 H   0  0  0  0  0  0  0  0  0  0  0  0
    5.1344   14.6558   28.3218 H   0  0  0  0  0  0  0  0  0  0  0  0
    3.6851   13.7360   27.8383 H   0  0  0  0  0  0  0  0  0  0  0  0
    6.4591   13.1128   24.3793 H   0  0  0  0  0  0  0  0  0  0  0  0
    4.9514   12.1704   24.5794 H   0  0  0  0  0  0  0  0  0  0  0  0
    6.6913   13.2276   26.8820 H   0  0  0  0  0  0  0  0  0  0  0  0
    5.1701   12.3004   27.0484 H   0  0  0  0  0  0  0  0  0  0  0  0
  1  2  2  0  0  0  0
  1  3  1  0  0  0  0
  2  4  1  0  0  0  0
  3  6  2  0  0  0  0
  4  7  2  0  0  0  0
  5  8  2  0  0  0  0
  5  9  1  0  0  0  0
  6  7  1  0  0  0  0
  6  8  1  0  0  0  0
  7 21  1  0  0  0  0
  8 24  1  0  0  0  0
  9 10  1  0  0  0  0
  9 21  2  0  0  0  0
 10 22  1  0  0  0  0
 10 23  2  0  0  0  0
 11 12  1  0  0  0  0
 11 13  1  0  0  0  0
 12 17  1  0  0  0  0
 13 17  1  0  0  0  0
 14 15  1  0  0  0  0
 14 17  1  0  0  0  0
 15 22  1  0  0  0  0
 16 17  1  0  0  0  0
 16 22  1  0  0  0  0
 18 25  1  0  0  0  0
 19 20  1  0  0  0  0
 19 24  1  0  0  0  0
 20 25  1  0  0  0  0
  1 26  1  0  0  0  0
  2 27  1  0  0  0  0
  3 28  1  0  0  0  0
  4 29  1  0  0  0  0
  5 30  1  0  0  0  0
 11 31  1  0  0  0  0
 11 32  1  0  0  0  0
 12 33  1  0  0  0  0
 12 34  1  0  0  0  0
 13 35  1  0  0  0  0
 13 36  1  0  0  0  0
 14 37  1  0  0  0  0
 14 38  1  0  0  0  0
 15 39  1  0  0  0  0
 15 40  1  0  0  0  0
 16 41  1  0  0  0  0
 16 42  1  0  0  0  0
 18 43  1  0  0  0  0
 18 44  1  0  0  0  0
 18 45  1  0  0  0  0
 19 46  1  0  0  0  0
 19 47  1  0  0  0  0
 20 48  1  0  0  0  0
 20 49  1  0  0  0  0
M  END
> <Catalog ID>
Z1529130324

> <PlateID>
1041831-R-33

> <Well>
C04

> <MW (desalted)>
340.416

> <ClogP>
2.661

> <HBD>
0

> <TPSA>
51.660

> <RotBonds>
5

> <ROCS_ShapeQuery>
A71EV2A-x0451_0A_A71EV2A-x0310_0A_A71EV2A-x0416_0A_peptide

> <ROCS_TanimotoCombo>
0.537 

> <ROCS_ShapeTanimoto>
0.379 

> <ROCS_ColorTanimoto>
0.158 

> <ROCS_RefTversky>
0.332 

> <ROCS_RefColorTversky>
0.177 

> <ROCS_RefTverskyCombo>
0.509 

> <ROCS_FitTversky>
1.596 

> <ROCS_FitColorTversky>
0.589 

> <ROCS_FitTverskyCombo>
2.184 

> <ROCS_ColorScore>
-5.415

> <ROCS_Overlap>
2307.681

> <ROCS_Rank>
169                 

$$$$
untitled-dbase-2621_4649
  -OEChem-11132311063D

 44 47  0     1  0  0  0  0  0999 V2000
    6.3549   12.3903   25.6699 C   0  0  0  0  0  0  0  0  0  0  0  0
    6.1881   11.1207   26.2196 C   0  0  0  0  0  0  0  0  0  0  0  0
    7.3148   12.6208   24.6777 C   0  0  0  0  0  0  0  0  0  0  0  0
    6.9725   10.0436   25.7972 C   0  0  0  0  0  0  0  0  0  0  0  0
   15.2962   16.4775   19.6607 C   0  0  0  0  0  0  0  0  0  0  0  0
   15.7879   16.5088   18.3545 C   0  0  0  0  0  0  0  0  0  0  0  0
   13.6169   15.8426   17.4765 C   0  0  0  0  0  0  0  0  0  0  0  0
    9.5747   10.1113   23.2792 C   0  0  0  0  0  0  0  0  0  0  0  0
    8.1174   11.5502   24.2359 C   0  0  0  0  0  0  0  0  0  0  0  0
   13.1406   15.8249   18.7745 C   0  0  0  0  0  0  0  0  0  0  0  0
    9.1592   11.4229   23.2750 C   0  0  0  0  0  0  0  0  0  0  0  0
    7.9281   10.2889   24.8047 C   0  0  0  0  0  0  0  0  0  0  0  0
   13.9692   16.1389   19.8405 C   0  0  0  0  0  0  0  0  0  0  0  0
   14.9533   16.1947   17.2689 C   0  0  0  0  0  0  0  0  0  0  0  0
   11.2698   15.0530   21.7219 C   0  0  0  0  0  0  0  0  0  0  0  0
   11.5361   13.0473   24.0408 C   0  0  0  0  0  0  0  0  0  0  0  0
   11.8051   15.4393   19.2838 C   0  0  0  0  0  0  0  0  0  0  0  0
   11.9355   15.9466   20.7294 C   0  0  2  0  0  0  0  0  0  0  0  0
    9.7177   12.5219   22.4033 C   0  0  0  0  0  0  0  0  0  0  0  0
   11.2278   12.7221   22.5866 C   0  0  1  0  0  0  0  0  0  0  0  0
    8.8262    9.4351   24.2048 N   0  0  0  0  0  0  0  0  0  0  0  0
   11.7334   13.7513   21.7069 N   0  0  0  0  0  0  0  0  0  0  0  0
   10.3976   15.5065   22.4536 O   0  0  0  0  0  0  0  0  0  0  0  0
   12.2811   12.3629   24.7344 O   0  0  0  0  0  0  0  0  0  0  0  0
   13.3459   16.0551   21.0593 O   0  0  0  0  0  0  0  0  0  0  0  0
   10.9286   14.1610   24.5157 O   0  0  0  0  0  0  0  0  0  0  0  0
   15.4471   16.2242   16.0236 F   0  0  0  0  0  0  0  0  0  0  0  0
    5.7326   13.2119   26.0143 H   0  0  0  0  0  0  0  0  0  0  0  0
    5.4366   10.9642   26.9891 H   0  0  0  0  0  0  0  0  0  0  0  0
    7.4319   13.6161   24.2584 H   0  0  0  0  0  0  0  0  0  0  0  0
    6.8428    9.0560   26.2264 H   0  0  0  0  0  0  0  0  0  0  0  0
   15.9387   16.7153   20.5010 H   0  0  0  0  0  0  0  0  0  0  0  0
   16.8257   16.7749   18.1737 H   0  0  0  0  0  0  0  0  0  0  0  0
   12.9782   15.5851   16.6389 H   0  0  0  0  0  0  0  0  0  0  0  0
   10.3343    9.5975   22.7062 H   0  0  0  0  0  0  0  0  0  0  0  0
   10.9875   15.9424   18.7598 H   0  0  0  0  0  0  0  0  0  0  0  0
   11.6653   14.3548   19.2264 H   0  0  0  0  0  0  0  0  0  0  0  0
   11.4925   16.9733   20.8222 H   0  0  0  0  0  0  0  0  0  0  0  0
    9.1773   13.4491   22.6366 H   0  0  0  0  0  0  0  0  0  0  0  0
    9.4893   12.3116   21.3496 H   0  0  0  0  0  0  0  0  0  0  0  0
   11.7845   11.8110   22.3387 H   0  0  0  0  0  0  0  0  0  0  0  0
    8.9189    8.4515   24.4177 H   0  0  0  0  0  0  0  0  0  0  0  0
   12.4645   13.5062   21.0460 H   0  0  0  0  0  0  0  0  0  0  0  0
   10.3566   14.6257   23.8692 H   0  0  0  0  0  0  0  0  0  0  0  0
  1  2  2  0  0  0  0
  1  3  1  0  0  0  0
  2  4  1  0  0  0  0
  3  9  2  0  0  0  0
  4 12  2  0  0  0  0
  5  6  1  0  0  0  0
  5 13  2  0  0  0  0
  6 14  2  0  0  0  0
  7 10  2  0  0  0  0
  7 14  1  0  0  0  0
  8 11  2  0  0  0  0
  8 21  1  0  0  0  0
  9 11  1  0  0  0  0
  9 12  1  0  0  0  0
 10 13  1  0  0  0  0
 10 17  1  0  0  0  0
 11 19  1  0  0  0  0
 12 21  1  0  0  0  0
 13 25  1  0  0  0  0
 14 27  1  0  0  0  0
 15 18  1  0  0  0  0
 15 22  1  0  0  0  0
 15 23  2  0  0  0  0
 16 20  1  0  0  0  0
 16 24  2  0  0  0  0
 16 26  1  0  0  0  0
 17 18  1  0  0  0  0
 18 25  1  0  0  0  0
 19 20  1  0  0  0  0
 20 22  1  0  0  0  0
  1 28  1  0  0  0  0
  2 29  1  0  0  0  0
  3 30  1  0  0  0  0
  4 31  1  0  0  0  0
  5 32  1  0  0  0  0
  6 33  1  0  0  0  0
  7 34  1  0  0  0  0
  8 35  1  0  0  0  0
 17 36  1  0  0  0  0
 17 37  1  0  0  0  0
 18 38  1  0  0  0  0
 19 39  1  0  0  0  0
 19 40  1  0  0  0  0
 20 41  1  0  0  0  0
 21 42  1  0  0  0  0
 22 43  1  0  0  0  0
 26 44  1  0  0  0  0
M  END
> <Catalog ID>
Z1444487716

> <PlateID>
1041831-R-33

> <Well>
G02

> <MW (desalted)>
368.358

> <ClogP>
2.878

> <HBD>
3

> <TPSA>
91.420

> <RotBonds>
5

> <ROCS_ShapeQuery>
A71EV2A-x0451_0A_A71EV2A-x0310_0A_A71EV2A-x0416_0A_peptide

> <ROCS_TanimotoCombo>
0.537 

> <ROCS_ShapeTanimoto>
0.364 

> <ROCS_ColorTanimoto>
0.173 

> <ROCS_RefTversky>
0.326 

> <ROCS_RefColorTversky>
0.205 

> <ROCS_RefTverskyCombo>
0.532 

> <ROCS_FitTversky>
1.462 

> <ROCS_FitColorTversky>
0.522 

> <ROCS_FitTverskyCombo>
1.983 

> <ROCS_ColorScore>
-6.302

> <ROCS_Overlap>
2270.214

> <ROCS_Rank>
170                 

$$$$
untitled-dbase-1282_3787
  -OEChem-11132311063D

 41 44  0     1  0  0  0  0  0999 V2000
    6.3651   11.8710   25.8976 C   0  0  0  0  0  0  0  0  0  0  0  0
    7.3604   12.8509   25.9989 C   0  0  0  0  0  0  0  0  0  0  0  0
   13.5861   14.9587   18.8147 C   0  0  0  0  0  0  0  0  0  0  0  0
   14.2509   16.1258   19.1743 C   0  0  0  0  0  0  0  0  0  0  0  0
    6.5521   10.7531   25.0834 C   0  0  0  0  0  0  0  0  0  0  0  0
    8.5548   12.7273   25.2858 C   0  0  0  0  0  0  0  0  0  0  0  0
   12.4598   14.5596   19.5258 C   0  0  0  0  0  0  0  0  0  0  0  0
   13.7532   16.8524   20.2439 C   0  0  0  0  0  0  0  0  0  0  0  0
    7.7405   10.6289   24.3735 C   0  0  0  0  0  0  0  0  0  0  0  0
    8.7392   11.6165   24.4746 C   0  0  0  0  0  0  0  0  0  0  0  0
   12.0424   15.3562   20.5798 C   0  0  0  0  0  0  0  0  0  0  0  0
   10.8922   13.4455   23.3522 C   0  0  0  0  0  0  0  0  0  0  0  0
    7.3456    8.8733   22.4546 C   0  0  0  0  0  0  0  0  0  0  0  0
    7.9049    8.1087   23.6206 C   0  0  0  0  0  0  0  0  0  0  0  0
    9.6462    9.9903   23.0551 C   0  0  0  0  0  0  0  0  0  0  0  0
    8.2352    9.5675   23.4517 C   0  0  0  0  0  0  0  0  0  0  0  0
   10.8302   14.9555   21.3698 C   0  0  0  0  0  0  0  0  0  0  0  0
   11.1006   11.9937   23.7001 C   0  0  0  0  0  0  0  0  0  0  0  0
   12.6622   16.4964   20.9585 N   0  0  0  0  0  0  0  0  0  0  0  0
    9.8366   11.3062   23.6798 N   0  0  3  0  0  0  0  0  0  0  0  0
   10.9899   13.6573   21.9844 N   0  0  0  0  0  0  0  0  0  0  0  0
   10.6633   14.3149   24.1890 O   0  0  0  0  0  0  0  0  0  0  0  0
    5.4413   11.9821   26.4587 H   0  0  0  0  0  0  0  0  0  0  0  0
    7.2007   13.7150   26.6381 H   0  0  0  0  0  0  0  0  0  0  0  0
   13.9451   14.3615   17.9819 H   0  0  0  0  0  0  0  0  0  0  0  0
   15.1307   16.4562   18.6343 H   0  0  0  0  0  0  0  0  0  0  0  0
    5.7782    9.9957   25.0125 H   0  0  0  0  0  0  0  0  0  0  0  0
    9.3147   13.4972   25.3733 H   0  0  0  0  0  0  0  0  0  0  0  0
   11.9322   13.6512   19.2554 H   0  0  0  0  0  0  0  0  0  0  0  0
   14.2354   17.7702   20.5641 H   0  0  0  0  0  0  0  0  0  0  0  0
    7.7443    8.6496   21.4722 H   0  0  0  0  0  0  0  0  0  0  0  0
    6.2840    9.0900   22.4598 H   0  0  0  0  0  0  0  0  0  0  0  0
    7.2167    7.8136   24.4035 H   0  0  0  0  0  0  0  0  0  0  0  0
    8.6773    7.3770   23.4150 H   0  0  0  0  0  0  0  0  0  0  0  0
   10.3880    9.2812   23.4403 H   0  0  0  0  0  0  0  0  0  0  0  0
    9.7527   10.0717   21.9679 H   0  0  0  0  0  0  0  0  0  0  0  0
   10.6295   15.6825   22.1643 H   0  0  0  0  0  0  0  0  0  0  0  0
    9.9407   14.9169   20.7321 H   0  0  0  0  0  0  0  0  0  0  0  0
   11.7730   11.5328   22.9705 H   0  0  0  0  0  0  0  0  0  0  0  0
   11.5384   11.9109   24.6991 H   0  0  0  0  0  0  0  0  0  0  0  0
   11.1834   12.8601   21.3852 H   0  0  0  0  0  0  0  0  0  0  0  0
  1  2  2  0  0  0  0
  1  5  1  0  0  0  0
  2  6  1  0  0  0  0
  3  4  2  0  0  0  0
  3  7  1  0  0  0  0
  4  8  1  0  0  0  0
  5  9  2  0  0  0  0
  6 10  2  0  0  0  0
  7 11  2  0  0  0  0
  8 19  2  0  0  0  0
  9 10  1  0  0  0  0
  9 16  1  0  0  0  0
 10 20  1  0  0  0  0
 11 17  1  0  0  0  0
 11 19  1  0  0  0  0
 12 18  1  0  0  0  0
 12 21  1  0  0  0  0
 12 22  2  0  0  0  0
 13 14  1  0  0  0  0
 13 16  1  0  0  0  0
 14 16  1  0  0  0  0
 15 16  1  0  0  0  0
 15 20  1  0  0  0  0
 17 21  1  0  0  0  0
 18 20  1  0  0  0  0
  1 23  1  0  0  0  0
  2 24  1  0  0  0  0
  3 25  1  0  0  0  0
  4 26  1  0  0  0  0
  5 27  1  0  0  0  0
  6 28  1  0  0  0  0
  7 29  1  0  0  0  0
  8 30  1  0  0  0  0
 13 31  1  0  0  0  0
 13 32  1  0  0  0  0
 14 33  1  0  0  0  0
 14 34  1  0  0  0  0
 15 35  1  0  0  0  0
 15 36  1  0  0  0  0
 17 37  1  0  0  0  0
 17 38  1  0  0  0  0
 18 39  1  0  0  0  0
 18 40  1  0  0  0  0
 21 41  1  0  0  0  0
M  END
> <Catalog ID>
Z1247333727

> <PlateID>
1041831-R-17

> <Well>
A03

> <MW (desalted)>
293.363

> <ClogP>
2.184

> <HBD>
1

> <TPSA>
45.230

> <RotBonds>
4

> <ROCS_ShapeQuery>
A71EV2A-x0451_0A_A71EV2A-x0310_0A_A71EV2A-x0416_0A_peptide

> <ROCS_TanimotoCombo>
0.537 

> <ROCS_ShapeTanimoto>
0.355 

> <ROCS_ColorTanimoto>
0.182 

> <ROCS_RefTversky>
0.312 

> <ROCS_RefColorTversky>
0.191 

> <ROCS_RefTverskyCombo>
0.502 

> <ROCS_FitTversky>
1.642 

> <ROCS_FitColorTversky>
0.794 

> <ROCS_FitTverskyCombo>
2.436 

> <ROCS_ColorScore>
-5.800

> <ROCS_Overlap>
2164.501

> <ROCS_Rank>
171                 

$$$$
untitled-dbase-906_12094
  -OEChem-11132311063D

 52 54  0     0  0  0  0  0  0999 V2000
    5.7075   12.2222   29.3327 C   0  0  0  0  0  0  0  0  0  0  0  0
    4.4897   11.5796   29.5259 C   0  0  0  0  0  0  0  0  0  0  0  0
    9.2430    9.6783   23.2728 C   0  0  0  0  0  0  0  0  0  0  0  0
   10.2442   10.6289   23.0741 C   0  0  0  0  0  0  0  0  0  0  0  0
    5.9585   12.8778   28.1325 C   0  0  0  0  0  0  0  0  0  0  0  0
    8.9414   12.2563   24.2954 C   0  0  0  0  0  0  0  0  0  0  0  0
    3.5637   11.6216   28.4961 C   0  0  0  0  0  0  0  0  0  0  0  0
    7.9402   11.3056   24.4940 C   0  0  0  0  0  0  0  0  0  0  0  0
    8.0910   10.0166   23.9828 C   0  0  0  0  0  0  0  0  0  0  0  0
   10.0935   11.9179   23.5854 C   0  0  0  0  0  0  0  0  0  0  0  0
    4.9669   12.8615   27.1649 C   0  0  0  0  0  0  0  0  0  0  0  0
    6.7469   11.6852   25.2375 C   0  0  0  0  0  0  0  0  0  0  0  0
   11.4806   15.5901   18.7157 C   0  0  0  0  0  0  0  0  0  0  0  0
   10.1443   14.9624   19.1033 C   0  0  0  0  0  0  0  0  0  0  0  0
   12.5320   15.4113   19.8075 C   0  0  0  0  0  0  0  0  0  0  0  0
   10.3062   13.4945   19.5003 C   0  0  0  0  0  0  0  0  0  0  0  0
   12.6886   13.9421   20.2026 C   0  0  0  0  0  0  0  0  0  0  0  0
   11.3584   13.2870   20.5979 C   0  0  0  0  0  0  0  0  0  0  0  0
    7.0348    8.9787   24.1810 C   0  0  0  0  0  0  0  0  0  0  0  0
    5.2037   13.5591   25.8567 C   0  0  0  0  0  0  0  0  0  0  0  0
    3.7716   12.2482   27.3163 N   0  0  0  0  0  0  0  0  0  0  0  0
    6.3506   13.0244   25.1585 N   0  0  0  0  0  0  0  0  0  0  0  0
   10.8806   13.8364   21.8686 N   0  0  0  0  0  0  0  0  0  0  0  0
    6.1372   10.8449   25.9207 O   0  0  0  0  0  0  0  0  0  0  0  0
   11.2697   14.1005   24.3996 O   0  0  0  0  0  0  0  0  0  0  0  0
   12.5979   12.3957   23.1137 O   0  0  0  0  0  0  0  0  0  0  0  0
   11.3621   13.1226   23.3323 S   0  0  0  0  0  0  0  0  0  0  0  0
    6.4594   12.2120   30.1160 H   0  0  0  0  0  0  0  0  0  0  0  0
    4.2722   11.0624   30.4533 H   0  0  0  0  0  0  0  0  0  0  0  0
    9.3704    8.6764   22.8711 H   0  0  0  0  0  0  0  0  0  0  0  0
   11.1380   10.3543   22.5202 H   0  0  0  0  0  0  0  0  0  0  0  0
    6.9045   13.3829   27.9692 H   0  0  0  0  0  0  0  0  0  0  0  0
    8.8246   13.2620   24.6930 H   0  0  0  0  0  0  0  0  0  0  0  0
    2.5986   11.1361   28.5970 H   0  0  0  0  0  0  0  0  0  0  0  0
   11.8403   15.1431   17.7809 H   0  0  0  0  0  0  0  0  0  0  0  0
   11.3367   16.6609   18.5203 H   0  0  0  0  0  0  0  0  0  0  0  0
    9.7013   15.5218   19.9344 H   0  0  0  0  0  0  0  0  0  0  0  0
    9.4479   15.0360   18.2595 H   0  0  0  0  0  0  0  0  0  0  0  0
   13.4957   15.7973   19.4542 H   0  0  0  0  0  0  0  0  0  0  0  0
   12.2538   16.0012   20.6876 H   0  0  0  0  0  0  0  0  0  0  0  0
    9.3310   13.1006   19.8362 H   0  0  0  0  0  0  0  0  0  0  0  0
   10.5743   12.9013   18.6100 H   0  0  0  0  0  0  0  0  0  0  0  0
   13.1454   13.3845   19.3678 H   0  0  0  0  0  0  0  0  0  0  0  0
   13.4071   13.8669   21.0375 H   0  0  0  0  0  0  0  0  0  0  0  0
   11.5214   12.2009   20.7336 H   0  0  0  0  0  0  0  0  0  0  0  0
    7.2196    8.4215   25.1065 H   0  0  0  0  0  0  0  0  0  0  0  0
    6.0386    9.4339   24.2394 H   0  0  0  0  0  0  0  0  0  0  0  0
    7.0140    8.2703   23.3439 H   0  0  0  0  0  0  0  0  0  0  0  0
    4.3319   13.4569   25.2013 H   0  0  0  0  0  0  0  0  0  0  0  0
    5.3732   14.6304   26.0077 H   0  0  0  0  0  0  0  0  0  0  0  0
    6.9211   13.6817   24.6368 H   0  0  0  0  0  0  0  0  0  0  0  0
   10.6230   14.8250   21.8490 H   0  0  0  0  0  0  0  0  0  0  0  0
  1  2  2  0  0  0  0
  1  5  1  0  0  0  0
  2  7  1  0  0  0  0
  3  4  1  0  0  0  0
  3  9  2  0  0  0  0
  4 10  2  0  0  0  0
  5 11  2  0  0  0  0
  6  8  2  0  0  0  0
  6 10  1  0  0  0  0
  7 21  2  0  0  0  0
  8  9  1  0  0  0  0
  8 12  1  0  0  0  0
  9 19  1  0  0  0  0
 10 27  1  0  0  0  0
 11 20  1  0  0  0  0
 11 21  1  0  0  0  0
 12 22  1  0  0  0  0
 12 24  2  0  0  0  0
 13 14  1  0  0  0  0
 13 15  1  0  0  0  0
 14 16  1  0  0  0  0
 15 17  1  0  0  0  0
 16 18  1  0  0  0  0
 17 18  1  0  0  0  0
 18 23  1  0  0  0  0
 20 22  1  0  0  0  0
 23 27  1  0  0  0  0
 25 27  2  0  0  0  0
 26 27  2  0  0  0  0
  1 28  1  0  0  0  0
  2 29  1  0  0  0  0
  3 30  1  0  0  0  0
  4 31  1  0  0  0  0
  5 32  1  0  0  0  0
  6 33  1  0  0  0  0
  7 34  1  0  0  0  0
 13 35  1  0  0  0  0
 13 36  1  0  0  0  0
 14 37  1  0  0  0  0
 14 38  1  0  0  0  0
 15 39  1  0  0  0  0
 15 40  1  0  0  0  0
 16 41  1  0  0  0  0
 16 42  1  0  0  0  0
 17 43  1  0  0  0  0
 17 44  1  0  0  0  0
 18 45  1  0  0  0  0
 19 46  1  0  0  0  0
 19 47  1  0  0  0  0
 19 48  1  0  0  0  0
 20 49  1  0  0  0  0
 20 50  1  0  0  0  0
 22 51  1  0  0  0  0
 23 52  1  0  0  0  0
M  END
> <Catalog ID>
Z31769067

> <PlateID>
1041831-R-12

> <Well>
C07

> <MW (desalted)>
387.496

> <ClogP>
2.899

> <HBD>
2

> <TPSA>
88.160

> <RotBonds>
5

> <ROCS_ShapeQuery>
A71EV2A-x0451_0A_A71EV2A-x0310_0A_A71EV2A-x0416_0A_peptide

> <ROCS_TanimotoCombo>
0.536 

> <ROCS_ShapeTanimoto>
0.357 

> <ROCS_ColorTanimoto>
0.179 

> <ROCS_RefTversky>
0.319 

> <ROCS_RefColorTversky>
0.202 

> <ROCS_RefTverskyCombo>
0.521 

> <ROCS_FitTversky>
1.501 

> <ROCS_FitColorTversky>
0.610 

> <ROCS_FitTverskyCombo>
2.110 

> <ROCS_ColorScore>
-6.182

> <ROCS_Overlap>
2219.436

> <ROCS_Rank>
172                 

$$$$
untitled-dbase-3293_4054
  -OEChem-11132311063D

 50 53  0     1  0  0  0  0  0999 V2000
    6.5218    9.8564   28.2668 C   0  0  0  0  0  0  0  0  0  0  0  0
    5.4572   10.7463   28.4089 C   0  0  0  0  0  0  0  0  0  0  0  0
    7.3526    9.9356   27.1492 C   0  0  0  0  0  0  0  0  0  0  0  0
    5.2234   11.7155   27.4333 C   0  0  0  0  0  0  0  0  0  0  0  0
    8.7870   12.0568   24.6355 C   0  0  0  0  0  0  0  0  0  0  0  0
    7.1188   10.9048   26.1736 C   0  0  0  0  0  0  0  0  0  0  0  0
    6.0542   11.7947   26.3157 C   0  0  0  0  0  0  0  0  0  0  0  0
    7.9905   10.9650   25.0295 C   0  0  0  0  0  0  0  0  0  0  0  0
    9.4279   11.6224   23.5010 C   0  0  0  0  0  0  0  0  0  0  0  0
   10.8555   13.5661   22.7881 C   0  0  0  0  0  0  0  0  0  0  0  0
   12.8417   16.0848   18.9886 C   0  0  0  0  0  0  0  0  0  0  0  0
   13.9553   16.3052   20.0296 C   0  0  0  0  0  0  0  0  0  0  0  0
   11.9036   14.9169   19.3030 C   0  0  0  0  0  0  0  0  0  0  0  0
   13.9332   15.3173   21.1986 C   0  0  0  0  0  0  0  0  0  0  0  0
   11.8000   13.8799   21.7093 C   0  0  0  0  0  0  0  0  0  0  0  0
   11.4563   14.9788   20.7325 C   0  0  1  0  0  0  0  0  0  0  0  0
   12.5443   15.1932   21.7487 C   0  0  2  0  0  0  0  0  0  0  0  0
    5.7719   12.8467   25.2913 C   0  0  0  0  0  0  0  0  0  0  0  0
    9.3783    9.4602   22.2185 C   0  0  0  0  0  0  0  0  0  0  0  0
    9.3960    7.9988   22.6464 C   0  0  0  0  0  0  0  0  0  0  0  0
    8.1124    9.9160   24.2117 N   0  0  0  0  0  0  0  0  0  0  0  0
    8.9930   10.3467   23.2924 N   0  0  0  0  0  0  0  0  0  0  0  0
   10.3562   12.2766   22.6567 N   0  0  0  0  0  0  0  0  0  0  0  0
   10.5979   14.3924   23.6575 O   0  0  0  0  0  0  0  0  0  0  0  0
    8.0915    7.6016   23.0484 O   0  0  0  0  0  0  0  0  0  0  0  0
    6.7038    9.1021   29.0267 H   0  0  0  0  0  0  0  0  0  0  0  0
    4.8107   10.6850   29.2795 H   0  0  0  0  0  0  0  0  0  0  0  0
    8.1780    9.2338   27.0544 H   0  0  0  0  0  0  0  0  0  0  0  0
    4.3913   12.4043   27.5541 H   0  0  0  0  0  0  0  0  0  0  0  0
    8.8864   13.0246   25.1068 H   0  0  0  0  0  0  0  0  0  0  0  0
   12.2507   17.0190   18.8942 H   0  0  0  0  0  0  0  0  0  0  0  0
   13.2992   15.9253   17.9919 H   0  0  0  0  0  0  0  0  0  0  0  0
   14.9396   16.2618   19.5179 H   0  0  0  0  0  0  0  0  0  0  0  0
   13.8841   17.3383   20.4270 H   0  0  0  0  0  0  0  0  0  0  0  0
   11.0407   14.9668   18.6448 H   0  0  0  0  0  0  0  0  0  0  0  0
   12.4110   13.9746   19.1139 H   0  0  0  0  0  0  0  0  0  0  0  0
   14.2949   14.3519   20.8769 H   0  0  0  0  0  0  0  0  0  0  0  0
   14.5796   15.6896   21.9829 H   0  0  0  0  0  0  0  0  0  0  0  0
   12.3363   13.0169   21.3304 H   0  0  0  0  0  0  0  0  0  0  0  0
   10.5412   15.5287   20.8544 H   0  0  0  0  0  0  0  0  0  0  0  0
   12.3673   15.8615   22.5543 H   0  0  0  0  0  0  0  0  0  0  0  0
    6.3143   13.7669   25.5349 H   0  0  0  0  0  0  0  0  0  0  0  0
    6.0747   12.5150   24.2912 H   0  0  0  0  0  0  0  0  0  0  0  0
    4.7001   13.0731   25.2432 H   0  0  0  0  0  0  0  0  0  0  0  0
    8.6789    9.6213   21.3900 H   0  0  0  0  0  0  0  0  0  0  0  0
   10.3738    9.7739   21.8839 H   0  0  0  0  0  0  0  0  0  0  0  0
    9.6928    7.3692   21.8017 H   0  0  0  0  0  0  0  0  0  0  0  0
   10.0880    7.8257   23.4769 H   0  0  0  0  0  0  0  0  0  0  0  0
   10.6888   11.7278   21.8665 H   0  0  0  0  0  0  0  0  0  0  0  0
    7.8414    8.1740   23.7915 H   0  0  0  0  0  0  0  0  0  0  0  0
  1  2  2  0  0  0  0
  1  3  1  0  0  0  0
  2  4  1  0  0  0  0
  3  6  2  0  0  0  0
  4  7  2  0  0  0  0
  5  8  1  0  0  0  0
  5  9  2  0  0  0  0
  6  7  1  0  0  0  0
  6  8  1  0  0  0  0
  7 18  1  0  0  0  0
  8 21  2  0  0  0  0
  9 22  1  0  0  0  0
  9 23  1  0  0  0  0
 10 15  1  0  0  0  0
 10 23  1  0  0  0  0
 10 24  2  0  0  0  0
 11 12  1  0  0  0  0
 11 13  1  0  0  0  0
 12 14  1  0  0  0  0
 13 16  1  0  0  0  0
 14 17  1  0  0  0  0
 15 16  1  0  0  0  0
 15 17  1  0  0  0  0
 16 17  1  0  0  0  0
 19 20  1  0  0  0  0
 19 22  1  0  0  0  0
 20 25  1  0  0  0  0
 21 22  1  0  0  0  0
  1 26  1  0  0  0  0
  2 27  1  0  0  0  0
  3 28  1  0  0  0  0
  4 29  1  0  0  0  0
  5 30  1  0  0  0  0
 11 31  1  0  0  0  0
 11 32  1  0  0  0  0
 12 33  1  0  0  0  0
 12 34  1  0  0  0  0
 13 35  1  0  0  0  0
 13 36  1  0  0  0  0
 14 37  1  0  0  0  0
 14 38  1  0  0  0  0
 15 39  1  0  0  0  0
 16 40  1  0  0  0  0
 17 41  1  0  0  0  0
 18 42  1  0  0  0  0
 18 43  1  0  0  0  0
 18 44  1  0  0  0  0
 19 45  1  0  0  0  0
 19 46  1  0  0  0  0
 20 47  1  0  0  0  0
 20 48  1  0  0  0  0
 23 49  1  0  0  0  0
 25 50  1  0  0  0  0
M  END
> <Catalog ID>
Z1314216170

> <PlateID>
1041831-R-42

> <Well>
B04

> <MW (desalted)>
339.431

> <ClogP>
3.304

> <HBD>
2

> <TPSA>
67.150

> <RotBonds>
5

> <ROCS_ShapeQuery>
A71EV2A-x0451_0A_A71EV2A-x0310_0A_A71EV2A-x0416_0A_peptide

> <ROCS_TanimotoCombo>
0.536 

> <ROCS_ShapeTanimoto>
0.358 

> <ROCS_ColorTanimoto>
0.178 

> <ROCS_RefTversky>
0.318 

> <ROCS_RefColorTversky>
0.210 

> <ROCS_RefTverskyCombo>
0.528 

> <ROCS_FitTversky>
1.538 

> <ROCS_FitColorTversky>
0.543 

> <ROCS_FitTverskyCombo>
2.081 

> <ROCS_ColorScore>
-6.442

> <ROCS_Overlap>
2210.068

> <ROCS_Rank>
173                 

$$$$
untitled-dbase-1172_2605
  -OEChem-11132311063D

 48 51  0     0  0  0  0  0  0999 V2000
    5.8480   11.2419   25.7355 C   0  0  0  0  0  0  0  0  0  0  0  0
    6.7519   12.1574   26.2711 C   0  0  0  0  0  0  0  0  0  0  0  0
    6.2298   10.3798   24.7012 C   0  0  0  0  0  0  0  0  0  0  0  0
    8.0624   12.2408   25.7922 C   0  0  0  0  0  0  0  0  0  0  0  0
    8.2581    9.7450   23.1887 C   0  0  0  0  0  0  0  0  0  0  0  0
    7.5459   10.4456   24.2021 C   0  0  0  0  0  0  0  0  0  0  0  0
    8.4300   11.3728   24.7579 C   0  0  0  0  0  0  0  0  0  0  0  0
    9.5368   10.2511   23.1495 C   0  0  0  0  0  0  0  0  0  0  0  0
   13.6174   16.3289   21.0795 C   0  0  0  0  0  0  0  0  0  0  0  0
   11.7298   15.4078   21.6687 C   0  0  0  0  0  0  0  0  0  0  0  0
   10.7614   13.4162   23.8058 C   0  0  0  0  0  0  0  0  0  0  0  0
   14.8062   16.6919   20.2682 C   0  0  0  0  0  0  0  0  0  0  0  0
   14.4329   17.3481   18.9399 C   0  0  0  0  0  0  0  0  0  0  0  0
   13.9167   16.3676   17.8830 C   0  0  0  0  0  0  0  0  0  0  0  0
   12.5552   15.7401   18.1922 C   0  0  0  0  0  0  0  0  0  0  0  0
   12.5688   14.7907   19.3874 C   0  0  0  0  0  0  0  0  0  0  0  0
   10.6749    9.8795   22.2836 C   0  0  0  0  0  0  0  0  0  0  0  0
   10.5002   14.5939   21.6306 C   0  0  0  0  0  0  0  0  0  0  0  0
   10.8309   12.0159   24.3765 C   0  0  0  0  0  0  0  0  0  0  0  0
   13.3187   16.7514   22.2925 N   0  0  0  0  0  0  0  0  0  0  0  0
   12.1249   16.1687   22.6639 N   0  0  0  0  0  0  0  0  0  0  0  0
    9.6310   11.2322   24.0998 N   0  0  0  0  0  0  0  0  0  0  0  0
   12.6354   15.4768   20.6567 N   0  0  0  0  0  0  0  0  0  0  0  0
   10.5946   13.3914   22.4302 N   0  0  0  0  0  0  0  0  0  0  0  0
   10.8466   14.4316   24.4914 O   0  0  0  0  0  0  0  0  0  0  0  0
    4.8343   11.1956   26.1250 H   0  0  0  0  0  0  0  0  0  0  0  0
    6.4341   12.8178   27.0740 H   0  0  0  0  0  0  0  0  0  0  0  0
    5.5153    9.6713   24.2921 H   0  0  0  0  0  0  0  0  0  0  0  0
    8.7616   12.9552   26.2138 H   0  0  0  0  0  0  0  0  0  0  0  0
    7.8732    8.9558   22.5569 H   0  0  0  0  0  0  0  0  0  0  0  0
   15.4717   17.3426   20.8471 H   0  0  0  0  0  0  0  0  0  0  0  0
   15.3708   15.7752   20.0570 H   0  0  0  0  0  0  0  0  0  0  0  0
   13.6331   18.0733   19.1355 H   0  0  0  0  0  0  0  0  0  0  0  0
   15.2803   17.9173   18.5375 H   0  0  0  0  0  0  0  0  0  0  0  0
   13.8828   16.8620   16.9043 H   0  0  0  0  0  0  0  0  0  0  0  0
   14.6485   15.5550   17.7922 H   0  0  0  0  0  0  0  0  0  0  0  0
   11.8576   16.5569   18.4159 H   0  0  0  0  0  0  0  0  0  0  0  0
   12.1698   15.2296   17.3010 H   0  0  0  0  0  0  0  0  0  0  0  0
   11.6756   14.1558   19.4051 H   0  0  0  0  0  0  0  0  0  0  0  0
   13.4359   14.1278   19.3054 H   0  0  0  0  0  0  0  0  0  0  0  0
   10.6817   10.4795   21.3596 H   0  0  0  0  0  0  0  0  0  0  0  0
   11.6436   10.0292   22.7890 H   0  0  0  0  0  0  0  0  0  0  0  0
   10.6423    8.8158   21.9938 H   0  0  0  0  0  0  0  0  0  0  0  0
    9.6231   15.1542   22.0019 H   0  0  0  0  0  0  0  0  0  0  0  0
   10.2425   14.2714   20.6058 H   0  0  0  0  0  0  0  0  0  0  0  0
   10.9627   12.0648   25.4633 H   0  0  0  0  0  0  0  0  0  0  0  0
   11.6894   11.4834   23.9518 H   0  0  0  0  0  0  0  0  0  0  0  0
   10.5694   12.5005   21.9454 H   0  0  0  0  0  0  0  0  0  0  0  0
  1  2  2  0  0  0  0
  1  3  1  0  0  0  0
  2  4  1  0  0  0  0
  3  6  2  0  0  0  0
  4  7  2  0  0  0  0
  5  6  1  0  0  0  0
  5  8  2  0  0  0  0
  6  7  1  0  0  0  0
  7 22  1  0  0  0  0
  8 17  1  0  0  0  0
  8 22  1  0  0  0  0
  9 12  1  0  0  0  0
  9 20  2  0  0  0  0
  9 23  1  0  0  0  0
 10 18  1  0  0  0  0
 10 21  2  0  0  0  0
 10 23  1  0  0  0  0
 11 19  1  0  0  0  0
 11 24  1  0  0  0  0
 11 25  2  0  0  0  0
 12 13  1  0  0  0  0
 13 14  1  0  0  0  0
 14 15  1  0  0  0  0
 15 16  1  0  0  0  0
 16 23  1  0  0  0  0
 18 24  1  0  0  0  0
 19 22  1  0  0  0  0
 20 21  1  0  0  0  0
  1 26  1  0  0  0  0
  2 27  1  0  0  0  0
  3 28  1  0  0  0  0
  4 29  1  0  0  0  0
  5 30  1  0  0  0  0
 12 31  1  0  0  0  0
 12 32  1  0  0  0  0
 13 33  1  0  0  0  0
 13 34  1  0  0  0  0
 14 35  1  0  0  0  0
 14 36  1  0  0  0  0
 15 37  1  0  0  0  0
 15 38  1  0  0  0  0
 16 39  1  0  0  0  0
 16 40  1  0  0  0  0
 17 41  1  0  0  0  0
 17 42  1  0  0  0  0
 17 43  1  0  0  0  0
 18 44  1  0  0  0  0
 18 45  1  0  0  0  0
 19 46  1  0  0  0  0
 19 47  1  0  0  0  0
 24 48  1  0  0  0  0
M  END
> <Catalog ID>
Z167106214

> <PlateID>
1041831-R-15

> <Well>
F03

> <MW (desalted)>
337.419

> <ClogP>
2.072

> <HBD>
1

> <TPSA>
64.740

> <RotBonds>
4

> <ROCS_ShapeQuery>
A71EV2A-x0451_0A_A71EV2A-x0310_0A_A71EV2A-x0416_0A_peptide

> <ROCS_TanimotoCombo>
0.536 

> <ROCS_ShapeTanimoto>
0.348 

> <ROCS_ColorTanimoto>
0.188 

> <ROCS_RefTversky>
0.312 

> <ROCS_RefColorTversky>
0.207 

> <ROCS_RefTverskyCombo>
0.520 

> <ROCS_FitTversky>
1.492 

> <ROCS_FitColorTversky>
0.667 

> <ROCS_FitTverskyCombo>
2.159 

> <ROCS_ColorScore>
-6.335

> <ROCS_Overlap>
2170.606

> <ROCS_Rank>
174                 

$$$$
untitled-dbase-3301_320
  -OEChem-11132311063D

 44 47  0     1  0  0  0  0  0999 V2000
   11.1816   13.2557   23.1744 C   0  0  0  0  0  0  0  0  0  0  0  0
   13.1979   16.3207   19.6480 C   0  0  0  0  0  0  0  0  0  0  0  0
    8.2601    8.7627   21.9345 C   0  0  0  0  0  0  0  0  0  0  0  0
   12.3588   15.0349   19.7656 C   0  0  0  0  0  0  0  0  0  0  0  0
   12.4888   16.8268   20.9177 C   0  0  0  0  0  0  0  0  0  0  0  0
    9.5498    9.3629   22.5501 C   0  0  0  0  0  0  0  0  0  0  0  0
    7.6240   10.1718   22.0404 C   0  0  0  0  0  0  0  0  0  0  0  0
    8.0669   12.4806   25.6198 C   0  0  0  0  0  0  0  0  0  0  0  0
    6.6938   11.9904   25.1743 C   0  0  0  0  0  0  0  0  0  0  0  0
    9.0693   11.6555   24.8201 C   0  0  2  0  0  0  0  0  0  0  0  0
   12.1951   15.3454   21.2780 C   0  0  0  0  0  0  0  0  0  0  0  0
    9.1613   11.8773   23.2797 C   0  0  2  0  0  0  0  0  0  0  0  0
    8.2595   10.3559   24.5632 C   0  0  2  0  0  0  0  0  0  0  0  0
    8.6632   10.4657   23.1025 C   0  0  0  0  0  0  0  0  0  0  0  0
   12.5865   13.2401   22.5992 C   0  0  0  0  0  0  0  0  0  0  0  0
   13.0983   14.6401   22.2730 C   0  0  0  0  0  0  0  0  0  0  0  0
   10.4987   12.1003   22.8529 N   0  0  0  0  0  0  0  0  0  0  0  0
   10.7346   14.1873   23.8382 O   0  0  0  0  0  0  0  0  0  0  0  0
    6.8746   10.5934   24.9169 O   0  0  0  0  0  0  0  0  0  0  0  0
   14.2821   16.1925   19.7266 H   0  0  0  0  0  0  0  0  0  0  0  0
   12.9751   16.9135   18.7512 H   0  0  0  0  0  0  0  0  0  0  0  0
    8.3594    8.3621   20.9224 H   0  0  0  0  0  0  0  0  0  0  0  0
    7.7764    8.0125   22.5706 H   0  0  0  0  0  0  0  0  0  0  0  0
   11.4323   15.0195   19.1817 H   0  0  0  0  0  0  0  0  0  0  0  0
   12.9262   14.1201   19.5469 H   0  0  0  0  0  0  0  0  0  0  0  0
   13.1596   17.3416   21.6189 H   0  0  0  0  0  0  0  0  0  0  0  0
   11.6095   17.4576   20.7485 H   0  0  0  0  0  0  0  0  0  0  0  0
   10.0651    8.7261   23.2742 H   0  0  0  0  0  0  0  0  0  0  0  0
   10.2704    9.6820   21.7883 H   0  0  0  0  0  0  0  0  0  0  0  0
    7.7374   10.7670   21.1265 H   0  0  0  0  0  0  0  0  0  0  0  0
    6.5729   10.1889   22.3385 H   0  0  0  0  0  0  0  0  0  0  0  0
    8.1894   13.5576   25.4754 H   0  0  0  0  0  0  0  0  0  0  0  0
    8.1978   12.2660   26.6873 H   0  0  0  0  0  0  0  0  0  0  0  0
    5.9318   12.1345   25.9448 H   0  0  0  0  0  0  0  0  0  0  0  0
    6.3682   12.4733   24.2478 H   0  0  0  0  0  0  0  0  0  0  0  0
   10.0296   11.5015   25.3253 H   0  0  0  0  0  0  0  0  0  0  0  0
   11.1188   15.2225   21.5911 H   0  0  0  0  0  0  0  0  0  0  0  0
    8.4851   12.6365   22.9053 H   0  0  0  0  0  0  0  0  0  0  0  0
    8.6395    9.4766   25.0935 H   0  0  0  0  0  0  0  0  0  0  0  0
   13.2498   12.7595   23.3283 H   0  0  0  0  0  0  0  0  0  0  0  0
   12.5786   12.6234   21.6926 H   0  0  0  0  0  0  0  0  0  0  0  0
   14.1131   14.5807   21.8616 H   0  0  0  0  0  0  0  0  0  0  0  0
   13.1628   15.2381   23.1900 H   0  0  0  0  0  0  0  0  0  0  0  0
   10.9616   11.3942   22.2995 H   0  0  0  0  0  0  0  0  0  0  0  0
  1 15  1  0  0  0  0
  1 17  1  0  0  0  0
  1 18  2  0  0  0  0
  2  4  1  0  0  0  0
  2  5  1  0  0  0  0
  3  6  1  0  0  0  0
  3  7  1  0  0  0  0
  4 11  1  0  0  0  0
  5 11  1  0  0  0  0
  6 14  1  0  0  0  0
  7 14  1  0  0  0  0
  8  9  1  0  0  0  0
  8 10  1  0  0  0  0
  9 19  1  0  0  0  0
 10 12  1  0  0  0  0
 10 13  1  0  0  0  0
 11 16  1  0  0  0  0
 12 14  1  0  0  0  0
 12 17  1  0  0  0  0
 13 14  1  0  0  0  0
 13 19  1  0  0  0  0
 15 16  1  0  0  0  0
  2 20  1  0  0  0  0
  2 21  1  0  0  0  0
  3 22  1  0  0  0  0
  3 23  1  0  0  0  0
  4 24  1  0  0  0  0
  4 25  1  0  0  0  0
  5 26  1  0  0  0  0
  5 27  1  0  0  0  0
  6 28  1  0  0  0  0
  6 29  1  0  0  0  0
  7 30  1  0  0  0  0
  7 31  1  0  0  0  0
  8 32  1  0  0  0  0
  8 33  1  0  0  0  0
  9 34  1  0  0  0  0
  9 35  1  0  0  0  0
 10 36  1  0  0  0  0
 11 37  1  0  0  0  0
 12 38  1  0  0  0  0
 13 39  1  0  0  0  0
 15 40  1  0  0  0  0
 15 41  1  0  0  0  0
 16 42  1  0  0  0  0
 16 43  1  0  0  0  0
 17 44  1  0  0  0  0
M  END
> <Catalog ID>
Z1510900535

> <PlateID>
1041831-R-42

> <Well>
C02

> <MW (desalted)>
263.375

> <ClogP>
2.581

> <HBD>
1

> <TPSA>
38.330

> <RotBonds>
4

> <ROCS_ShapeQuery>
A71EV2A-x0451_0A_A71EV2A-x0310_0A_A71EV2A-x0416_0A_peptide

> <ROCS_TanimotoCombo>
0.536 

> <ROCS_ShapeTanimoto>
0.308 

> <ROCS_ColorTanimoto>
0.228 

> <ROCS_RefTversky>
0.275 

> <ROCS_RefColorTversky>
0.255 

> <ROCS_RefTverskyCombo>
0.530 

> <ROCS_FitTversky>
1.646 

> <ROCS_FitColorTversky>
0.678 

> <ROCS_FitTverskyCombo>
2.323 

> <ROCS_ColorScore>
-7.820

> <ROCS_Overlap>
1908.500

> <ROCS_Rank>
175                 

$$$$
untitled-dbase-2871_359
  -OEChem-11132311063D

 41 44  0     0  0  0  0  0  0999 V2000
    6.2739   10.9113   25.9483 C   0  0  0  0  0  0  0  0  0  0  0  0
    6.8707   10.0583   25.0188 C   0  0  0  0  0  0  0  0  0  0  0  0
    6.7822   12.1976   26.1589 C   0  0  0  0  0  0  0  0  0  0  0  0
    7.9763   10.5048   24.3043 C   0  0  0  0  0  0  0  0  0  0  0  0
    8.4714   11.7993   24.5084 C   0  0  0  0  0  0  0  0  0  0  0  0
    7.8881   12.6516   25.4372 C   0  0  0  0  0  0  0  0  0  0  0  0
   13.2363   16.1115   21.6892 C   0  0  0  0  0  0  0  0  0  0  0  0
   11.6911   14.8176   22.2843 C   0  0  0  0  0  0  0  0  0  0  0  0
   10.3215   13.2087   23.6096 C   0  0  0  0  0  0  0  0  0  0  0  0
    8.7329    7.4064   23.8979 C   0  0  0  0  0  0  0  0  0  0  0  0
    7.7850    7.6121   22.7186 C   0  0  0  0  0  0  0  0  0  0  0  0
    9.6446    8.6281   23.9215 C   0  0  0  0  0  0  0  0  0  0  0  0
    8.0266    9.0305   22.1987 C   0  0  0  0  0  0  0  0  0  0  0  0
    9.7002   10.8925   22.7398 C   0  0  0  0  0  0  0  0  0  0  0  0
    8.8143    9.7555   23.2933 C   0  0  0  0  0  0  0  0  0  0  0  0
   14.3792   16.5589   20.8834 C   0  0  0  0  0  0  0  0  0  0  0  0
   10.8407   13.5849   22.2419 C   0  0  0  0  0  0  0  0  0  0  0  0
   12.6383   16.7047   22.6959 N   0  0  0  0  0  0  0  0  0  0  0  0
   11.6219   15.8534   23.0874 N   0  0  0  0  0  0  0  0  0  0  0  0
    9.5599   12.0483   23.6474 N   0  0  0  0  0  0  0  0  0  0  0  0
   10.6033   13.9192   24.5749 O   0  0  0  0  0  0  0  0  0  0  0  0
   12.6924   14.9062   21.3666 O   0  0  0  0  0  0  0  0  0  0  0  0
    8.3128   13.9005   25.6524 F   0  0  0  0  0  0  0  0  0  0  0  0
    5.4099   10.5745   26.5147 H   0  0  0  0  0  0  0  0  0  0  0  0
    6.4652    9.0634   24.8754 H   0  0  0  0  0  0  0  0  0  0  0  0
    6.3062   12.8517   26.8844 H   0  0  0  0  0  0  0  0  0  0  0  0
    8.1641    7.3336   24.8315 H   0  0  0  0  0  0  0  0  0  0  0  0
    9.3072    6.4795   23.7997 H   0  0  0  0  0  0  0  0  0  0  0  0
    7.9721    6.8768   21.9283 H   0  0  0  0  0  0  0  0  0  0  0  0
    6.7450    7.4807   23.0364 H   0  0  0  0  0  0  0  0  0  0  0  0
    9.9946    8.8518   24.9351 H   0  0  0  0  0  0  0  0  0  0  0  0
   10.5272    8.4130   23.3055 H   0  0  0  0  0  0  0  0  0  0  0  0
    8.6260    8.9624   21.2815 H   0  0  0  0  0  0  0  0  0  0  0  0
    7.0870    9.5289   21.9369 H   0  0  0  0  0  0  0  0  0  0  0  0
   10.7541   10.6085   22.6554 H   0  0  0  0  0  0  0  0  0  0  0  0
    9.3596   11.2251   21.7509 H   0  0  0  0  0  0  0  0  0  0  0  0
   15.3377   16.2190   21.3161 H   0  0  0  0  0  0  0  0  0  0  0  0
   14.3358   16.1817   19.8442 H   0  0  0  0  0  0  0  0  0  0  0  0
   14.4295   17.6609   20.7985 H   0  0  0  0  0  0  0  0  0  0  0  0
    9.9876   13.7350   21.5800 H   0  0  0  0  0  0  0  0  0  0  0  0
   11.4006   12.7381   21.8457 H   0  0  0  0  0  0  0  0  0  0  0  0
  1  2  1  0  0  0  0
  1  3  2  0  0  0  0
  2  4  2  0  0  0  0
  3  6  1  0  0  0  0
  4  5  1  0  0  0  0
  4 15  1  0  0  0  0
  5  6  2  0  0  0  0
  5 20  1  0  0  0  0
  6 23  1  0  0  0  0
  7 16  1  0  0  0  0
  7 18  2  0  0  0  0
  7 22  1  0  0  0  0
  8 17  1  0  0  0  0
  8 19  2  0  0  0  0
  8 22  1  0  0  0  0
  9 17  1  0  0  0  0
  9 20  1  0  0  0  0
  9 21  2  0  0  0  0
 10 11  1  0  0  0  0
 10 12  1  0  0  0  0
 11 13  1  0  0  0  0
 12 15  1  0  0  0  0
 13 15  1  0  0  0  0
 14 15  1  0  0  0  0
 14 20  1  0  0  0  0
 18 19  1  0  0  0  0
  1 24  1  0  0  0  0
  2 25  1  0  0  0  0
  3 26  1  0  0  0  0
 10 27  1  0  0  0  0
 10 28  1  0  0  0  0
 11 29  1  0  0  0  0
 11 30  1  0  0  0  0
 12 31  1  0  0  0  0
 12 32  1  0  0  0  0
 13 33  1  0  0  0  0
 13 34  1  0  0  0  0
 14 35  1  0  0  0  0
 14 36  1  0  0  0  0
 16 37  1  0  0  0  0
 16 38  1  0  0  0  0
 16 39  1  0  0  0  0
 17 40  1  0  0  0  0
 17 41  1  0  0  0  0
M  END
> <Catalog ID>
Z1872856926

> <PlateID>
1041831-R-36

> <Well>
H02

> <MW (desalted)>
315.342

> <ClogP>
1.426

> <HBD>
0

> <TPSA>
59.230

> <RotBonds>
2

> <ROCS_ShapeQuery>
A71EV2A-x0451_0A_A71EV2A-x0310_0A_A71EV2A-x0416_0A_peptide

> <ROCS_TanimotoCombo>
0.536 

> <ROCS_ShapeTanimoto>
0.366 

> <ROCS_ColorTanimoto>
0.169 

> <ROCS_RefTversky>
0.321 

> <ROCS_RefColorTversky>
0.186 

> <ROCS_RefTverskyCombo>
0.507 

> <ROCS_FitTversky>
1.614 

> <ROCS_FitColorTversky>
0.663 

> <ROCS_FitTverskyCombo>
2.277 

> <ROCS_ColorScore>
-5.656

> <ROCS_Overlap>
2234.150

> <ROCS_Rank>
176                 

$$$$
untitled-dbase-3243_874
  -OEChem-11132311063D

 48 51  0     1  0  0  0  0  0999 V2000
   13.9121   15.9912   18.5234 C   0  0  0  0  0  0  0  0  0  0  0  0
   12.7419   15.2628   18.3555 C   0  0  0  0  0  0  0  0  0  0  0  0
   14.2988   16.3904   19.7999 C   0  0  0  0  0  0  0  0  0  0  0  0
   11.9642   14.9267   19.4648 C   0  0  0  0  0  0  0  0  0  0  0  0
    7.0408   12.2997   25.5293 C   0  0  0  0  0  0  0  0  0  0  0  0
   13.5184   16.0692   20.9249 C   0  0  0  0  0  0  0  0  0  0  0  0
   12.3414   15.3059   20.7685 C   0  0  0  0  0  0  0  0  0  0  0  0
    7.9488   10.7149   24.4941 C   0  0  0  0  0  0  0  0  0  0  0  0
   10.1095   10.8148   22.7491 C   0  0  0  0  0  0  0  0  0  0  0  0
    9.6891   11.9626   23.3050 C   0  0  0  0  0  0  0  0  0  0  0  0
    9.3614    9.5796   23.1305 C   0  0  0  0  0  0  0  0  0  0  0  0
   14.0133   16.5200   22.2759 C   0  0  0  0  0  0  0  0  0  0  0  0
   12.9308   16.5066   23.3453 C   0  0  0  0  0  0  0  0  0  0  0  0
   12.1934   15.1758   23.3141 C   0  0  0  0  0  0  0  0  0  0  0  0
   11.4597   14.9375   21.9683 C   0  0  1  0  0  0  0  0  0  0  0  0
   10.1749   15.7934   21.9200 C   0  0  0  0  0  0  0  0  0  0  0  0
    8.4012    6.7602   23.6007 C   0  0  0  0  0  0  0  0  0  0  0  0
    9.8240    8.2828   22.5144 C   0  0  0  0  0  0  0  0  0  0  0  0
   11.0540   13.4461   21.9401 C   0  0  0  0  0  0  0  0  0  0  0  0
    6.9678   10.9578   25.3399 N   0  0  0  0  0  0  0  0  0  0  0  0
    8.0023   12.9290   24.8606 N   0  0  0  0  0  0  0  0  0  0  0  0
    8.3507    9.5335   23.9474 N   0  0  0  0  0  0  0  0  0  0  0  0
    8.6000   11.9131   24.1844 N   0  0  0  0  0  0  0  0  0  0  0  0
   10.2476   13.1621   23.0719 N   0  0  0  0  0  0  0  0  0  0  0  0
    8.7221    7.4104   22.3746 O   0  0  0  0  0  0  0  0  0  0  0  0
   14.5251   16.2455   17.6640 H   0  0  0  0  0  0  0  0  0  0  0  0
   12.4316   14.9527   17.3619 H   0  0  0  0  0  0  0  0  0  0  0  0
   15.2201   16.9564   19.9184 H   0  0  0  0  0  0  0  0  0  0  0  0
   11.0571   14.3527   19.2943 H   0  0  0  0  0  0  0  0  0  0  0  0
    6.3696   12.8420   26.1782 H   0  0  0  0  0  0  0  0  0  0  0  0
   10.9416   10.7556   22.0595 H   0  0  0  0  0  0  0  0  0  0  0  0
   14.8383   15.8773   22.6064 H   0  0  0  0  0  0  0  0  0  0  0  0
   14.4106   17.5375   22.1708 H   0  0  0  0  0  0  0  0  0  0  0  0
   13.3702   16.6800   24.3340 H   0  0  0  0  0  0  0  0  0  0  0  0
   12.2286   17.3284   23.1636 H   0  0  0  0  0  0  0  0  0  0  0  0
   12.9008   14.3605   23.5118 H   0  0  0  0  0  0  0  0  0  0  0  0
   11.4709   15.1622   24.1423 H   0  0  0  0  0  0  0  0  0  0  0  0
    9.5501   15.5358   22.7658 H   0  0  0  0  0  0  0  0  0  0  0  0
    9.6511   15.5872   20.9953 H   0  0  0  0  0  0  0  0  0  0  0  0
   10.4490   16.8397   21.9661 H   0  0  0  0  0  0  0  0  0  0  0  0
    7.5462    6.0968   23.4493 H   0  0  0  0  0  0  0  0  0  0  0  0
    8.1645    7.5095   24.3604 H   0  0  0  0  0  0  0  0  0  0  0  0
    9.2623    6.1724   23.9274 H   0  0  0  0  0  0  0  0  0  0  0  0
   10.5754    7.8240   23.1503 H   0  0  0  0  0  0  0  0  0  0  0  0
   10.2459    8.4874   21.5350 H   0  0  0  0  0  0  0  0  0  0  0  0
   10.5060   13.2960   21.0172 H   0  0  0  0  0  0  0  0  0  0  0  0
   11.9767   12.8780   21.9602 H   0  0  0  0  0  0  0  0  0  0  0  0
   10.0537   13.8890   23.7796 H   0  0  0  0  0  0  0  0  0  0  0  0
  1  2  2  0  0  0  0
  1  3  1  0  0  0  0
  2  4  1  0  0  0  0
  3  6  2  0  0  0  0
  4  7  2  0  0  0  0
  5 20  1  0  0  0  0
  5 21  2  0  0  0  0
  6  7  1  0  0  0  0
  6 12  1  0  0  0  0
  7 15  1  0  0  0  0
  8 20  2  0  0  0  0
  8 22  1  0  0  0  0
  8 23  1  0  0  0  0
  9 10  2  0  0  0  0
  9 11  1  0  0  0  0
 10 23  1  0  0  0  0
 10 24  1  0  0  0  0
 11 18  1  0  0  0  0
 11 22  2  0  0  0  0
 12 13  1  0  0  0  0
 13 14  1  0  0  0  0
 14 15  1  0  0  0  0
 15 16  1  0  0  0  0
 15 19  1  0  0  0  0
 17 25  1  0  0  0  0
 18 25  1  0  0  0  0
 19 24  1  0  0  0  0
 21 23  1  0  0  0  0
  1 26  1  0  0  0  0
  2 27  1  0  0  0  0
  3 28  1  0  0  0  0
  4 29  1  0  0  0  0
  5 30  1  0  0  0  0
  9 31  1  0  0  0  0
 12 32  1  0  0  0  0
 12 33  1  0  0  0  0
 13 34  1  0  0  0  0
 13 35  1  0  0  0  0
 14 36  1  0  0  0  0
 14 37  1  0  0  0  0
 16 38  1  0  0  0  0
 16 39  1  0  0  0  0
 16 40  1  0  0  0  0
 17 41  1  0  0  0  0
 17 42  1  0  0  0  0
 17 43  1  0  0  0  0
 18 44  1  0  0  0  0
 18 45  1  0  0  0  0
 19 46  1  0  0  0  0
 19 47  1  0  0  0  0
 24 48  1  0  0  0  0
M  END
> <Catalog ID>
Z1587695900

> <PlateID>
1041831-R-41

> <Well>
E04

> <MW (desalted)>
337.419

> <ClogP>
3.565

> <HBD>
1

> <TPSA>
64.340

> <RotBonds>
5

> <ROCS_ShapeQuery>
A71EV2A-x0451_0A_A71EV2A-x0310_0A_A71EV2A-x0416_0A_peptide

> <ROCS_TanimotoCombo>
0.535 

> <ROCS_ShapeTanimoto>
0.377 

> <ROCS_ColorTanimoto>
0.158 

> <ROCS_RefTversky>
0.331 

> <ROCS_RefColorTversky>
0.182 

> <ROCS_RefTverskyCombo>
0.513 

> <ROCS_FitTversky>
1.581 

> <ROCS_FitColorTversky>
0.547 

> <ROCS_FitTverskyCombo>
2.128 

> <ROCS_ColorScore>
-5.574

> <ROCS_Overlap>
2302.427

> <ROCS_Rank>
177                 

$$$$
untitled-dbase-2272_15000
  -OEChem-11132311063D

 41 43  0     1  0  0  0  0  0999 V2000
    6.9281    9.9442   25.5819 C   0  0  0  0  0  0  0  0  0  0  0  0
    6.1378   11.0056   26.0322 C   0  0  0  0  0  0  0  0  0  0  0  0
    7.4649   12.6033   24.7739 C   0  0  0  0  0  0  0  0  0  0  0  0
    9.7791   10.1535   23.3584 C   0  0  0  0  0  0  0  0  0  0  0  0
    8.2754   11.5495   24.3070 C   0  0  0  0  0  0  0  0  0  0  0  0
    9.4072   11.4751   23.4476 C   0  0  0  0  0  0  0  0  0  0  0  0
    7.9889   10.2469   24.7210 C   0  0  0  0  0  0  0  0  0  0  0  0
    6.4002   12.3154   25.6356 C   0  0  0  0  0  0  0  0  0  0  0  0
   13.6784   16.0382   20.4031 C   0  0  0  0  0  0  0  0  0  0  0  0
   14.3705   15.8274   19.0728 C   0  0  0  0  0  0  0  0  0  0  0  0
   12.0793   16.0001   18.6872 C   0  0  0  0  0  0  0  0  0  0  0  0
   12.2881   15.5166   20.1118 C   0  0  2  0  0  0  0  0  0  0  0  0
   10.0717   12.6062   22.7686 C   0  0  0  0  0  0  0  0  0  0  0  0
   11.2273   15.9982   21.0829 C   0  0  0  0  0  0  0  0  0  0  0  0
   11.5607   12.7649   23.1254 C   0  0  0  0  0  0  0  0  0  0  0  0
    8.9176    9.4204   24.1296 N   0  0  0  0  0  0  0  0  0  0  0  0
   12.1625   13.8860   22.4546 N   0  0  0  0  0  0  0  0  0  0  0  0
   12.6780   16.3009   23.2403 O   0  0  0  0  0  0  0  0  0  0  0  0
   10.3252   15.4224   23.4620 O   0  0  0  0  0  0  0  0  0  0  0  0
   13.3683   15.9710   18.0554 O   0  0  0  0  0  0  0  0  0  0  0  0
   11.5857   15.4850   22.7473 S   0  0  0  0  0  0  0  0  0  0  0  0
    5.4043   13.5972   26.2133 Cl  0  0  0  0  0  0  0  0  0  0  0  0
    6.7226    8.9246   25.8903 H   0  0  0  0  0  0  0  0  0  0  0  0
    5.3079   10.7892   26.7018 H   0  0  0  0  0  0  0  0  0  0  0  0
    7.6693   13.6253   24.4659 H   0  0  0  0  0  0  0  0  0  0  0  0
   10.5785    9.6675   22.8160 H   0  0  0  0  0  0  0  0  0  0  0  0
   14.1789   15.5201   21.2258 H   0  0  0  0  0  0  0  0  0  0  0  0
   13.6477   17.1084   20.6416 H   0  0  0  0  0  0  0  0  0  0  0  0
   15.1768   16.5458   18.9003 H   0  0  0  0  0  0  0  0  0  0  0  0
   14.7815   14.8152   18.9953 H   0  0  0  0  0  0  0  0  0  0  0  0
   11.3856   15.3657   18.1276 H   0  0  0  0  0  0  0  0  0  0  0  0
   11.7144   17.0325   18.6498 H   0  0  0  0  0  0  0  0  0  0  0  0
   12.3135   14.4193   20.1186 H   0  0  0  0  0  0  0  0  0  0  0  0
    9.5591   13.5552   23.0214 H   0  0  0  0  0  0  0  0  0  0  0  0
    9.9785   12.5256   21.6667 H   0  0  0  0  0  0  0  0  0  0  0  0
   10.2460   15.5910   20.8243 H   0  0  0  0  0  0  0  0  0  0  0  0
   11.1679   17.0900   21.0879 H   0  0  0  0  0  0  0  0  0  0  0  0
   11.6912   12.9325   24.1992 H   0  0  0  0  0  0  0  0  0  0  0  0
   12.1283   11.8705   22.8480 H   0  0  0  0  0  0  0  0  0  0  0  0
    8.9569    8.4175   24.2484 H   0  0  0  0  0  0  0  0  0  0  0  0
   13.1911   13.8188   22.2941 H   0  0  0  0  0  0  0  0  0  0  0  0
  1  2  1  0  0  0  0
  1  7  2  0  0  0  0
  2  8  2  0  0  0  0
  3  5  2  0  0  0  0
  3  8  1  0  0  0  0
  4  6  2  0  0  0  0
  4 16  1  0  0  0  0
  5  6  1  0  0  0  0
  5  7  1  0  0  0  0
  6 13  1  0  0  0  0
  7 16  1  0  0  0  0
  8 22  1  0  0  0  0
  9 10  1  0  0  0  0
  9 12  1  0  0  0  0
 10 20  1  0  0  0  0
 11 12  1  0  0  0  0
 11 20  1  0  0  0  0
 12 14  1  0  0  0  0
 13 15  1  0  0  0  0
 14 21  1  0  0  0  0
 15 17  1  0  0  0  0
 17 21  1  0  0  0  0
 18 21  2  0  0  0  0
 19 21  2  0  0  0  0
  1 23  1  0  0  0  0
  2 24  1  0  0  0  0
  3 25  1  0  0  0  0
  4 26  1  0  0  0  0
  9 27  1  0  0  0  0
  9 28  1  0  0  0  0
 10 29  1  0  0  0  0
 10 30  1  0  0  0  0
 11 31  1  0  0  0  0
 11 32  1  0  0  0  0
 12 33  1  0  0  0  0
 13 34  1  0  0  0  0
 13 35  1  0  0  0  0
 14 36  1  0  0  0  0
 14 37  1  0  0  0  0
 15 38  1  0  0  0  0
 15 39  1  0  0  0  0
 16 40  1  0  0  0  0
 17 41  1  0  0  0  0
M  END
> <Catalog ID>
Z1341811114

> <PlateID>
1041831-R-29

> <Well>
D03

> <MW (desalted)>
342.841

> <ClogP>
1.922

> <HBD>
2

> <TPSA>
71.190

> <RotBonds>
5

> <ROCS_ShapeQuery>
A71EV2A-x0451_0A_A71EV2A-x0310_0A_A71EV2A-x0416_0A_peptide

> <ROCS_TanimotoCombo>
0.535 

> <ROCS_ShapeTanimoto>
0.354 

> <ROCS_ColorTanimoto>
0.182 

> <ROCS_RefTversky>
0.309 

> <ROCS_RefColorTversky>
0.200 

> <ROCS_RefTverskyCombo>
0.509 

> <ROCS_FitTversky>
1.693 

> <ROCS_FitColorTversky>
0.664 

> <ROCS_FitTverskyCombo>
2.357 

> <ROCS_ColorScore>
-6.110

> <ROCS_Overlap>
2144.400

> <ROCS_Rank>
178                 

$$$$
untitled-dbase-731_4971
  -OEChem-11132311063D

 50 52  0     1  0  0  0  0  0999 V2000
    6.3085   12.4208   25.6109 C   0  0  0  0  0  0  0  0  0  0  0  0
    6.1138   11.1623   26.1766 C   0  0  0  0  0  0  0  0  0  0  0  0
    7.2950   12.6246   24.6393 C   0  0  0  0  0  0  0  0  0  0  0  0
    6.8961   10.0699   25.7911 C   0  0  0  0  0  0  0  0  0  0  0  0
    9.5601   10.0681   23.3376 C   0  0  0  0  0  0  0  0  0  0  0  0
    8.0961   11.5382   24.2347 C   0  0  0  0  0  0  0  0  0  0  0  0
    9.1597   11.3839   23.3021 C   0  0  0  0  0  0  0  0  0  0  0  0
    7.8786   10.2885   24.8188 C   0  0  0  0  0  0  0  0  0  0  0  0
   11.3489   14.9648   21.7439 C   0  0  0  0  0  0  0  0  0  0  0  0
   11.5353   12.9945   24.1005 C   0  0  0  0  0  0  0  0  0  0  0  0
   14.2964   16.7135   20.0224 C   0  0  0  0  0  0  0  0  0  0  0  0
   13.5438   15.9137   21.0822 C   0  0  0  0  0  0  0  0  0  0  0  0
   14.0400   16.1611   18.6248 C   0  0  0  0  0  0  0  0  0  0  0  0
   11.8277   15.3049   19.3343 C   0  0  0  0  0  0  0  0  0  0  0  0
   12.0523   15.8389   20.7493 C   0  0  1  0  0  0  0  0  0  0  0  0
   12.8796   14.3416   16.4337 C   0  0  0  0  0  0  0  0  0  0  0  0
    9.7520   12.4623   22.4271 C   0  0  0  0  0  0  0  0  0  0  0  0
   11.2592   12.6489   22.6445 C   0  0  1  0  0  0  0  0  0  0  0  0
    8.7813    9.4153   24.2551 N   0  0  0  0  0  0  0  0  0  0  0  0
   12.5726   16.1496   18.3544 N   0  0  2  0  0  0  0  0  0  0  0  0
   11.7980   13.6581   21.7612 N   0  0  0  0  0  0  0  0  0  0  0  0
   10.4642   15.4397   22.4463 O   0  0  0  0  0  0  0  0  0  0  0  0
   12.2552   12.3133   24.8232 O   0  0  0  0  0  0  0  0  0  0  0  0
   12.8357   16.9006   15.9080 O   0  0  0  0  0  0  0  0  0  0  0  0
   10.6981   15.7658   16.6348 O   0  0  0  0  0  0  0  0  0  0  0  0
   10.9289   14.1223   24.5423 O   0  0  0  0  0  0  0  0  0  0  0  0
   12.1329   15.9263   16.7127 S   0  0  0  0  0  0  0  0  0  0  0  0
    5.6873   13.2547   25.9266 H   0  0  0  0  0  0  0  0  0  0  0  0
    5.3419   11.0265   26.9297 H   0  0  0  0  0  0  0  0  0  0  0  0
    7.4337   13.6115   24.2072 H   0  0  0  0  0  0  0  0  0  0  0  0
    6.7446    9.0909   26.2328 H   0  0  0  0  0  0  0  0  0  0  0  0
   10.3277    9.5367   22.7919 H   0  0  0  0  0  0  0  0  0  0  0  0
   13.9892   17.7642   20.0658 H   0  0  0  0  0  0  0  0  0  0  0  0
   15.3716   16.6854   20.2367 H   0  0  0  0  0  0  0  0  0  0  0  0
   13.9741   14.9149   21.1588 H   0  0  0  0  0  0  0  0  0  0  0  0
   13.6667   16.4040   22.0495 H   0  0  0  0  0  0  0  0  0  0  0  0
   14.5519   16.7657   17.8667 H   0  0  0  0  0  0  0  0  0  0  0  0
   14.4297   15.1383   18.5702 H   0  0  0  0  0  0  0  0  0  0  0  0
   12.1872   14.2759   19.2662 H   0  0  0  0  0  0  0  0  0  0  0  0
   10.7636   15.3242   19.0886 H   0  0  0  0  0  0  0  0  0  0  0  0
   11.6139   16.8239   20.8361 H   0  0  0  0  0  0  0  0  0  0  0  0
   12.6853   14.0463   15.4014 H   0  0  0  0  0  0  0  0  0  0  0  0
   13.9525   14.4305   16.6106 H   0  0  0  0  0  0  0  0  0  0  0  0
   12.4356   13.6251   17.1264 H   0  0  0  0  0  0  0  0  0  0  0  0
    9.2165   13.3990   22.6320 H   0  0  0  0  0  0  0  0  0  0  0  0
    9.5472   12.2374   21.3715 H   0  0  0  0  0  0  0  0  0  0  0  0
   11.8115   11.7279   22.4251 H   0  0  0  0  0  0  0  0  0  0  0  0
    8.8577    8.4343   24.4860 H   0  0  0  0  0  0  0  0  0  0  0  0
   12.5423   13.3942   21.1227 H   0  0  0  0  0  0  0  0  0  0  0  0
   10.3783   14.5827   23.8745 H   0  0  0  0  0  0  0  0  0  0  0  0
  1  2  2  0  0  0  0
  1  3  1  0  0  0  0
  2  4  1  0  0  0  0
  3  6  2  0  0  0  0
  4  8  2  0  0  0  0
  5  7  2  0  0  0  0
  5 19  1  0  0  0  0
  6  7  1  0  0  0  0
  6  8  1  0  0  0  0
  7 17  1  0  0  0  0
  8 19  1  0  0  0  0
  9 15  1  0  0  0  0
  9 21  1  0  0  0  0
  9 22  2  0  0  0  0
 10 18  1  0  0  0  0
 10 23  2  0  0  0  0
 10 26  1  0  0  0  0
 11 12  1  0  0  0  0
 11 13  1  0  0  0  0
 12 15  1  0  0  0  0
 13 20  1  0  0  0  0
 14 15  1  0  0  0  0
 14 20  1  0  0  0  0
 16 27  1  0  0  0  0
 17 18  1  0  0  0  0
 18 21  1  0  0  0  0
 20 27  1  0  0  0  0
 24 27  2  0  0  0  0
 25 27  2  0  0  0  0
  1 28  1  0  0  0  0
  2 29  1  0  0  0  0
  3 30  1  0  0  0  0
  4 31  1  0  0  0  0
  5 32  1  0  0  0  0
 11 33  1  0  0  0  0
 11 34  1  0  0  0  0
 12 35  1  0  0  0  0
 12 36  1  0  0  0  0
 13 37  1  0  0  0  0
 13 38  1  0  0  0  0
 14 39  1  0  0  0  0
 14 40  1  0  0  0  0
 15 41  1  0  0  0  0
 16 42  1  0  0  0  0
 16 43  1  0  0  0  0
 16 44  1  0  0  0  0
 17 45  1  0  0  0  0
 17 46  1  0  0  0  0
 18 47  1  0  0  0  0
 19 48  1  0  0  0  0
 21 49  1  0  0  0  0
 26 50  1  0  0  0  0
M  END
> <Catalog ID>
Z398806746

> <PlateID>
1041831-R-10

> <Well>
B02

> <MW (desalted)>
393.457

> <ClogP>
1.381

> <HBD>
3

> <TPSA>
119.570

> <RotBonds>
5

> <ROCS_ShapeQuery>
A71EV2A-x0451_0A_A71EV2A-x0310_0A_A71EV2A-x0416_0A_peptide

> <ROCS_TanimotoCombo>
0.535 

> <ROCS_ShapeTanimoto>
0.360 

> <ROCS_ColorTanimoto>
0.175 

> <ROCS_RefTversky>
0.322 

> <ROCS_RefColorTversky>
0.207 

> <ROCS_RefTverskyCombo>
0.529 

> <ROCS_FitTversky>
1.500 

> <ROCS_FitColorTversky>
0.527 

> <ROCS_FitTverskyCombo>
2.027 

> <ROCS_ColorScore>
-6.360

> <ROCS_Overlap>
2236.797

> <ROCS_Rank>
179                 

$$$$
untitled-dbase-2041_1796
  -OEChem-11132311063D

 48 50  0     1  0  0  0  0  0999 V2000
   10.7549   13.3795   23.1033 C   0  0  0  0  0  0  0  0  0  0  0  0
    7.3379   10.1882   25.5186 C   0  0  0  0  0  0  0  0  0  0  0  0
    8.0624   11.4602   25.9830 C   0  0  0  0  0  0  0  0  0  0  0  0
   10.2514   14.9491   21.2486 C   0  0  0  0  0  0  0  0  0  0  0  0
   12.5678   14.7947   22.1979 C   0  0  0  0  0  0  0  0  0  0  0  0
    7.1349   11.8372   23.8288 C   0  0  0  0  0  0  0  0  0  0  0  0
   10.8316   15.7344   20.0710 C   0  0  0  0  0  0  0  0  0  0  0  0
   13.0704   15.5861   20.9893 C   0  0  0  0  0  0  0  0  0  0  0  0
   11.2957   14.0183   21.8619 C   0  0  0  0  0  0  0  0  0  0  0  0
    7.3364   10.3274   23.9862 C   0  0  1  0  0  0  0  0  0  0  0  0
    8.3744   12.1821   24.6594 C   0  0  2  0  0  0  0  0  0  0  0  0
    8.7552   10.1630   23.3877 C   0  0  1  0  0  0  0  0  0  0  0  0
    9.4987   11.4029   23.9386 C   0  0  1  0  0  0  0  0  0  0  0  0
    9.4526    8.8503   23.7117 C   0  0  0  0  0  0  0  0  0  0  0  0
   12.5408   17.2721   19.3524 C   0  0  0  0  0  0  0  0  0  0  0  0
   13.3839   16.4344   18.4243 C   0  0  0  0  0  0  0  0  0  0  0  0
   12.0286   16.4853   20.4741 N   0  0  0  0  0  0  0  0  0  0  0  0
   10.0939   12.1837   22.8831 N   0  0  0  0  0  0  0  0  0  0  0  0
   10.9232   13.9265   24.1869 O   0  0  0  0  0  0  0  0  0  0  0  0
    8.6628    7.7819   23.2184 O   0  0  0  0  0  0  0  0  0  0  0  0
   13.8420   17.1831   17.3967 F   0  0  0  0  0  0  0  0  0  0  0  0
   14.4551   15.9173   19.0629 F   0  0  0  0  0  0  0  0  0  0  0  0
   12.6739   15.4124   17.9009 F   0  0  0  0  0  0  0  0  0  0  0  0
    7.8224    9.2769   25.8774 H   0  0  0  0  0  0  0  0  0  0  0  0
    6.3108   10.1872   25.9024 H   0  0  0  0  0  0  0  0  0  0  0  0
    7.3973   12.0649   26.6100 H   0  0  0  0  0  0  0  0  0  0  0  0
    8.9629   11.2331   26.5622 H   0  0  0  0  0  0  0  0  0  0  0  0
    9.8725   15.6462   21.9962 H   0  0  0  0  0  0  0  0  0  0  0  0
    9.4075   14.3549   20.8930 H   0  0  0  0  0  0  0  0  0  0  0  0
   13.3456   14.0937   22.5105 H   0  0  0  0  0  0  0  0  0  0  0  0
   12.3886   15.4792   23.0287 H   0  0  0  0  0  0  0  0  0  0  0  0
    7.1958   12.1790   22.7905 H   0  0  0  0  0  0  0  0  0  0  0  0
    6.2022   12.1977   24.2758 H   0  0  0  0  0  0  0  0  0  0  0  0
   11.0914   15.0197   19.2815 H   0  0  0  0  0  0  0  0  0  0  0  0
   10.0686   16.4070   19.6601 H   0  0  0  0  0  0  0  0  0  0  0  0
   13.9770   16.1456   21.2527 H   0  0  0  0  0  0  0  0  0  0  0  0
   13.3546   14.8674   20.2104 H   0  0  0  0  0  0  0  0  0  0  0  0
   11.5288   13.2204   21.1729 H   0  0  0  0  0  0  0  0  0  0  0  0
    6.5834    9.7082   23.4934 H   0  0  0  0  0  0  0  0  0  0  0  0
    8.5762   13.2477   24.7914 H   0  0  0  0  0  0  0  0  0  0  0  0
    8.6664   10.2279   22.2939 H   0  0  0  0  0  0  0  0  0  0  0  0
   10.3100   11.1383   24.6256 H   0  0  0  0  0  0  0  0  0  0  0  0
    9.5668    8.7416   24.7917 H   0  0  0  0  0  0  0  0  0  0  0  0
   10.4345    8.8184   23.2362 H   0  0  0  0  0  0  0  0  0  0  0  0
   11.6809   17.6906   18.8211 H   0  0  0  0  0  0  0  0  0  0  0  0
   13.1268   18.0975   19.7671 H   0  0  0  0  0  0  0  0  0  0  0  0
   10.0246   11.8385   21.9287 H   0  0  0  0  0  0  0  0  0  0  0  0
    8.5835    7.9071   22.2577 H   0  0  0  0  0  0  0  0  0  0  0  0
  1  9  1  0  0  0  0
  1 18  1  0  0  0  0
  1 19  2  0  0  0  0
  2  3  1  0  0  0  0
  2 10  1  0  0  0  0
  3 11  1  0  0  0  0
  4  7  1  0  0  0  0
  4  9  1  0  0  0  0
  5  8  1  0  0  0  0
  5  9  1  0  0  0  0
  6 10  1  0  0  0  0
  6 11  1  0  0  0  0
  7 17  1  0  0  0  0
  8 17  1  0  0  0  0
 10 12  1  0  0  0  0
 11 13  1  0  0  0  0
 12 13  1  0  0  0  0
 12 14  1  0  0  0  0
 13 18  1  0  0  0  0
 14 20  1  0  0  0  0
 15 16  1  0  0  0  0
 15 17  1  0  0  0  0
 16 21  1  0  0  0  0
 16 22  1  0  0  0  0
 16 23  1  0  0  0  0
  2 24  1  0  0  0  0
  2 25  1  0  0  0  0
  3 26  1  0  0  0  0
  3 27  1  0  0  0  0
  4 28  1  0  0  0  0
  4 29  1  0  0  0  0
  5 30  1  0  0  0  0
  5 31  1  0  0  0  0
  6 32  1  0  0  0  0
  6 33  1  0  0  0  0
  7 34  1  0  0  0  0
  7 35  1  0  0  0  0
  8 36  1  0  0  0  0
  8 37  1  0  0  0  0
  9 38  1  0  0  0  0
 10 39  1  0  0  0  0
 11 40  1  0  0  0  0
 12 41  1  0  0  0  0
 13 42  1  0  0  0  0
 14 43  1  0  0  0  0
 14 44  1  0  0  0  0
 15 45  1  0  0  0  0
 15 46  1  0  0  0  0
 18 47  1  0  0  0  0
 20 48  1  0  0  0  0
M  END
> <Catalog ID>
Z1450989409

> <PlateID>
1041831-R-26

> <Well>
E02

> <MW (desalted)>
334.377

> <ClogP>
1.311

> <HBD>
2

> <TPSA>
52.570

> <RotBonds>
5

> <ROCS_ShapeQuery>
A71EV2A-x0451_0A_A71EV2A-x0310_0A_A71EV2A-x0416_0A_peptide

> <ROCS_TanimotoCombo>
0.535 

> <ROCS_ShapeTanimoto>
0.340 

> <ROCS_ColorTanimoto>
0.195 

> <ROCS_RefTversky>
0.302 

> <ROCS_RefColorTversky>
0.234 

> <ROCS_RefTverskyCombo>
0.536 

> <ROCS_FitTversky>
1.573 

> <ROCS_FitColorTversky>
0.542 

> <ROCS_FitTverskyCombo>
2.115 

> <ROCS_ColorScore>
-7.195

> <ROCS_Overlap>
2099.191

> <ROCS_Rank>
180                 

$$$$
untitled-dbase-2736_7871
  -OEChem-11132311063D

 49 51  0     1  0  0  0  0  0999 V2000
    5.7543   11.8986   25.3703 C   0  0  0  0  0  0  0  0  0  0  0  0
    6.6117   12.9866   25.2513 C   0  0  0  0  0  0  0  0  0  0  0  0
   14.4138   16.7513   18.5975 C   0  0  0  0  0  0  0  0  0  0  0  0
   13.7840   15.8177   17.7820 C   0  0  0  0  0  0  0  0  0  0  0  0
    6.1896   10.6289   24.9968 C   0  0  0  0  0  0  0  0  0  0  0  0
    7.9005   12.8072   24.7475 C   0  0  0  0  0  0  0  0  0  0  0  0
   13.9002   17.0211   19.8611 C   0  0  0  0  0  0  0  0  0  0  0  0
   12.6526   15.1863   18.2729 C   0  0  0  0  0  0  0  0  0  0  0  0
    7.4887   10.4328   24.5000 C   0  0  0  0  0  0  0  0  0  0  0  0
    8.3503   11.5374   24.3427 C   0  0  0  0  0  0  0  0  0  0  0  0
   12.7635   16.3360   20.2589 C   0  0  0  0  0  0  0  0  0  0  0  0
   10.6912   13.6164   23.3162 C   0  0  0  0  0  0  0  0  0  0  0  0
    7.9053    9.0384   24.1034 C   0  0  0  0  0  0  0  0  0  0  0  0
    9.4185    8.8761   24.0023 C   0  0  0  0  0  0  0  0  0  0  0  0
   10.0067    9.9997   23.1619 C   0  0  0  0  0  0  0  0  0  0  0  0
    9.7668   11.3614   23.8260 C   0  0  1  0  0  0  0  0  0  0  0  0
   13.8248   13.4979   21.4718 C   0  0  0  0  0  0  0  0  0  0  0  0
   12.1813   16.6024   21.6169 C   0  0  0  0  0  0  0  0  0  0  0  0
   10.9936   14.5079   22.1390 C   0  0  0  0  0  0  0  0  0  0  0  0
   12.1242   15.4222   19.4947 N   0  0  0  0  0  0  0  0  0  0  0  0
   10.1496   12.4095   22.9057 N   0  0  0  0  0  0  0  0  0  0  0  0
   12.1395   15.3726   22.4565 N   0  0  1  0  0  0  0  0  0  0  0  0
   10.9081   13.9388   24.4813 O   0  0  0  0  0  0  0  0  0  0  0  0
   14.7171   15.6004   22.7387 O   0  0  0  0  0  0  0  0  0  0  0  0
   13.4921   13.8308   24.0411 O   0  0  0  0  0  0  0  0  0  0  0  0
   13.6468   14.6260   22.8375 S   0  0  0  0  0  0  0  0  0  0  0  0
    4.7491   12.0372   25.7559 H   0  0  0  0  0  0  0  0  0  0  0  0
    6.2796   13.9768   25.5504 H   0  0  0  0  0  0  0  0  0  0  0  0
   15.3032   17.2675   18.2488 H   0  0  0  0  0  0  0  0  0  0  0  0
   14.1667   15.5914   16.7934 H   0  0  0  0  0  0  0  0  0  0  0  0
    5.5103    9.7855   25.0970 H   0  0  0  0  0  0  0  0  0  0  0  0
    8.5603   13.6700   24.6705 H   0  0  0  0  0  0  0  0  0  0  0  0
   14.3822   17.7472   20.5070 H   0  0  0  0  0  0  0  0  0  0  0  0
   12.1246   14.4499   17.6761 H   0  0  0  0  0  0  0  0  0  0  0  0
    7.5174    8.3434   24.8555 H   0  0  0  0  0  0  0  0  0  0  0  0
    7.4575    8.7746   23.1405 H   0  0  0  0  0  0  0  0  0  0  0  0
    9.8557    8.8852   25.0054 H   0  0  0  0  0  0  0  0  0  0  0  0
    9.6615    7.9064   23.5543 H   0  0  0  0  0  0  0  0  0  0  0  0
   11.0865    9.8371   23.0504 H   0  0  0  0  0  0  0  0  0  0  0  0
    9.5857    9.9829   22.1501 H   0  0  0  0  0  0  0  0  0  0  0  0
   10.4712   11.4375   24.6741 H   0  0  0  0  0  0  0  0  0  0  0  0
   14.7610   12.9515   21.5963 H   0  0  0  0  0  0  0  0  0  0  0  0
   12.9772   12.8110   21.4798 H   0  0  0  0  0  0  0  0  0  0  0  0
   13.8397   14.0766   20.5470 H   0  0  0  0  0  0  0  0  0  0  0  0
   12.7729   17.3547   22.1498 H   0  0  0  0  0  0  0  0  0  0  0  0
   11.1596   16.9884   21.5376 H   0  0  0  0  0  0  0  0  0  0  0  0
   11.2358   13.8954   21.2655 H   0  0  0  0  0  0  0  0  0  0  0  0
   10.1241   15.1324   21.9136 H   0  0  0  0  0  0  0  0  0  0  0  0
   10.0152   12.2532   21.9130 H   0  0  0  0  0  0  0  0  0  0  0  0
  1  2  2  0  0  0  0
  1  5  1  0  0  0  0
  2  6  1  0  0  0  0
  3  4  2  0  0  0  0
  3  7  1  0  0  0  0
  4  8  1  0  0  0  0
  5  9  2  0  0  0  0
  6 10  2  0  0  0  0
  7 11  2  0  0  0  0
  8 20  2  0  0  0  0
  9 10  1  0  0  0  0
  9 13  1  0  0  0  0
 10 16  1  0  0  0  0
 11 18  1  0  0  0  0
 11 20  1  0  0  0  0
 12 19  1  0  0  0  0
 12 21  1  0  0  0  0
 12 23  2  0  0  0  0
 13 14  1  0  0  0  0
 14 15  1  0  0  0  0
 15 16  1  0  0  0  0
 16 21  1  0  0  0  0
 17 26  1  0  0  0  0
 18 22  1  0  0  0  0
 19 22  1  0  0  0  0
 22 26  1  0  0  0  0
 24 26  2  0  0  0  0
 25 26  2  0  0  0  0
  1 27  1  0  0  0  0
  2 28  1  0  0  0  0
  3 29  1  0  0  0  0
  4 30  1  0  0  0  0
  5 31  1  0  0  0  0
  6 32  1  0  0  0  0
  7 33  1  0  0  0  0
  8 34  1  0  0  0  0
 13 35  1  0  0  0  0
 13 36  1  0  0  0  0
 14 37  1  0  0  0  0
 14 38  1  0  0  0  0
 15 39  1  0  0  0  0
 15 40  1  0  0  0  0
 16 41  1  0  0  0  0
 17 42  1  0  0  0  0
 17 43  1  0  0  0  0
 17 44  1  0  0  0  0
 18 45  1  0  0  0  0
 18 46  1  0  0  0  0
 19 47  1  0  0  0  0
 19 48  1  0  0  0  0
 21 49  1  0  0  0  0
M  END
> <Catalog ID>
Z729419672

> <PlateID>
1041831-R-35

> <Well>
B07

> <MW (desalted)>
373.469

> <ClogP>
1.785

> <HBD>
1

> <TPSA>
79.370

> <RotBonds>
5

> <ROCS_ShapeQuery>
A71EV2A-x0451_0A_A71EV2A-x0310_0A_A71EV2A-x0416_0A_peptide

> <ROCS_TanimotoCombo>
0.535 

> <ROCS_ShapeTanimoto>
0.366 

> <ROCS_ColorTanimoto>
0.169 

> <ROCS_RefTversky>
0.324 

> <ROCS_RefColorTversky>
0.188 

> <ROCS_RefTverskyCombo>
0.511 

> <ROCS_FitTversky>
1.558 

> <ROCS_FitColorTversky>
0.624 

> <ROCS_FitTverskyCombo>
2.182 

> <ROCS_ColorScore>
-5.736

> <ROCS_Overlap>
2249.649

> <ROCS_Rank>
181                 

$$$$
untitled-dbase-1961_1899
  -OEChem-11132311063D

 50 53  0     1  0  0  0  0  0999 V2000
    6.6143   12.3309   26.0736 C   0  0  0  0  0  0  0  0  0  0  0  0
    6.1228   11.0399   25.8904 C   0  0  0  0  0  0  0  0  0  0  0  0
    7.7554   12.7666   25.3903 C   0  0  0  0  0  0  0  0  0  0  0  0
    6.7535   10.1451   25.0212 C   0  0  0  0  0  0  0  0  0  0  0  0
    9.7139   10.7752   23.0325 C   0  0  0  0  0  0  0  0  0  0  0  0
   13.9808   14.8186   24.8355 C   0  0  0  0  0  0  0  0  0  0  0  0
    8.4082   11.8822   24.5087 C   0  0  0  0  0  0  0  0  0  0  0  0
    9.5567   11.9819   23.6745 C   0  0  0  0  0  0  0  0  0  0  0  0
    7.8932   10.5944   24.3449 C   0  0  0  0  0  0  0  0  0  0  0  0
   12.7314   14.6780   23.1582 C   0  0  0  0  0  0  0  0  0  0  0  0
   10.4582   13.1483   23.4904 C   0  0  0  0  0  0  0  0  0  0  0  0
   10.5157   16.3371   22.4405 C   0  0  0  0  0  0  0  0  0  0  0  0
   11.2475   15.5460   21.3485 C   0  0  0  0  0  0  0  0  0  0  0  0
   11.4908   16.8256   23.5137 C   0  0  0  0  0  0  0  0  0  0  0  0
   11.9837   14.3232   21.9218 C   0  0  2  0  0  0  0  0  0  0  0  0
    7.0017    5.9000   23.3538 C   0  0  0  0  0  0  0  0  0  0  0  0
    8.9321    5.2450   24.6255 C   0  0  0  0  0  0  0  0  0  0  0  0
    8.5336    8.5830   22.9854 C   0  0  0  0  0  0  0  0  0  0  0  0
    8.5572    7.5635   24.1190 C   0  0  0  0  0  0  0  0  0  0  0  0
   13.7087   14.0273   23.7532 N   0  0  0  0  0  0  0  0  0  0  0  0
   13.2385   15.9227   24.9531 N   0  0  0  0  0  0  0  0  0  0  0  0
    8.7057    9.9449   23.4431 N   0  0  0  0  0  0  0  0  0  0  0  0
   12.4472   15.8053   23.8778 N   0  0  0  0  0  0  0  0  0  0  0  0
   11.0631   13.2589   22.2462 N   0  0  0  0  0  0  0  0  0  0  0  0
    8.4087    6.2127   23.6488 N   0  0  0  0  0  0  0  0  0  0  0  0
   10.6352   13.9234   24.4266 O   0  0  0  0  0  0  0  0  0  0  0  0
    6.1067   13.0086   26.7549 H   0  0  0  0  0  0  0  0  0  0  0  0
    5.2350   10.7224   26.4314 H   0  0  0  0  0  0  0  0  0  0  0  0
    8.1260   13.7761   25.5439 H   0  0  0  0  0  0  0  0  0  0  0  0
    6.3664    9.1412   24.8824 H   0  0  0  0  0  0  0  0  0  0  0  0
   10.4557   10.4380   22.3202 H   0  0  0  0  0  0  0  0  0  0  0  0
   14.7444   14.5813   25.5612 H   0  0  0  0  0  0  0  0  0  0  0  0
   10.0106   17.1976   21.9826 H   0  0  0  0  0  0  0  0  0  0  0  0
    9.7383   15.7173   22.9015 H   0  0  0  0  0  0  0  0  0  0  0  0
   10.5106   15.2285   20.5925 H   0  0  0  0  0  0  0  0  0  0  0  0
   11.9636   16.2032   20.8323 H   0  0  0  0  0  0  0  0  0  0  0  0
   12.0434   17.7036   23.1618 H   0  0  0  0  0  0  0  0  0  0  0  0
   10.9524   17.0915   24.4310 H   0  0  0  0  0  0  0  0  0  0  0  0
   12.6828   13.9284   21.1887 H   0  0  0  0  0  0  0  0  0  0  0  0
    6.6101    6.6234   22.6235 H   0  0  0  0  0  0  0  0  0  0  0  0
    6.9316    4.8843   22.9373 H   0  0  0  0  0  0  0  0  0  0  0  0
    6.4113    5.9581   24.2801 H   0  0  0  0  0  0  0  0  0  0  0  0
    9.9841    5.4785   24.8463 H   0  0  0  0  0  0  0  0  0  0  0  0
    8.3415    5.3031   25.5517 H   0  0  0  0  0  0  0  0  0  0  0  0
    8.8617    4.2293   24.2089 H   0  0  0  0  0  0  0  0  0  0  0  0
    9.3454    8.3785   22.2770 H   0  0  0  0  0  0  0  0  0  0  0  0
    7.5931    8.5307   22.4239 H   0  0  0  0  0  0  0  0  0  0  0  0
    9.5151    7.6120   24.6458 H   0  0  0  0  0  0  0  0  0  0  0  0
    7.7571    7.7492   24.8428 H   0  0  0  0  0  0  0  0  0  0  0  0
   10.9147   12.5410   21.5419 H   0  0  0  0  0  0  0  0  0  0  0  0
  1  2  2  0  0  0  0
  1  3  1  0  0  0  0
  2  4  1  0  0  0  0
  3  7  2  0  0  0  0
  4  9  2  0  0  0  0
  5  8  2  0  0  0  0
  5 22  1  0  0  0  0
  6 20  1  0  0  0  0
  6 21  2  0  0  0  0
  7  8  1  0  0  0  0
  7  9  1  0  0  0  0
  8 11  1  0  0  0  0
  9 22  1  0  0  0  0
 10 15  1  0  0  0  0
 10 20  2  0  0  0  0
 10 23  1  0  0  0  0
 11 24  1  0  0  0  0
 11 26  2  0  0  0  0
 12 13  1  0  0  0  0
 12 14  1  0  0  0  0
 13 15  1  0  0  0  0
 14 23  1  0  0  0  0
 15 24  1  0  0  0  0
 16 25  1  0  0  0  0
 17 25  1  0  0  0  0
 18 19  1  0  0  0  0
 18 22  1  0  0  0  0
 19 25  1  0  0  0  0
 21 23  1  0  0  0  0
  1 27  1  0  0  0  0
  2 28  1  0  0  0  0
  3 29  1  0  0  0  0
  4 30  1  0  0  0  0
  5 31  1  0  0  0  0
  6 32  1  0  0  0  0
 12 33  1  0  0  0  0
 12 34  1  0  0  0  0
 13 35  1  0  0  0  0
 13 36  1  0  0  0  0
 14 37  1  0  0  0  0
 14 38  1  0  0  0  0
 15 39  1  0  0  0  0
 16 40  1  0  0  0  0
 16 41  1  0  0  0  0
 16 42  1  0  0  0  0
 17 43  1  0  0  0  0
 17 44  1  0  0  0  0
 17 45  1  0  0  0  0
 18 46  1  0  0  0  0
 18 47  1  0  0  0  0
 19 48  1  0  0  0  0
 19 49  1  0  0  0  0
 24 50  1  0  0  0  0
M  END
> <Catalog ID>
Z1369029671

> <PlateID>
1041831-R-25

> <Well>
E02

> <MW (desalted)>
352.433

> <ClogP>
1.274

> <HBD>
1

> <TPSA>
67.980

> <RotBonds>
5

> <ROCS_ShapeQuery>
A71EV2A-x0451_0A_A71EV2A-x0310_0A_A71EV2A-x0416_0A_peptide

> <ROCS_TanimotoCombo>
0.535 

> <ROCS_ShapeTanimoto>
0.353 

> <ROCS_ColorTanimoto>
0.182 

> <ROCS_RefTversky>
0.317 

> <ROCS_RefColorTversky>
0.205 

> <ROCS_RefTverskyCombo>
0.522 

> <ROCS_FitTversky>
1.470 

> <ROCS_FitColorTversky>
0.615 

> <ROCS_FitTverskyCombo>
2.085 

> <ROCS_ColorScore>
-6.264

> <ROCS_Overlap>
2206.906

> <ROCS_Rank>
182                 

$$$$
untitled-dbase-3180_261
  -OEChem-11132311063D

 43 45  0     1  0  0  0  0  0999 V2000
    5.7254    9.5061   27.6207 C   0  0  0  0  0  0  0  0  0  0  0  0
    5.2010   10.6837   28.1533 C   0  0  0  0  0  0  0  0  0  0  0  0
   12.4987   15.4156   18.3758 C   0  0  0  0  0  0  0  0  0  0  0  0
   12.0068   15.1709   19.6531 C   0  0  0  0  0  0  0  0  0  0  0  0
    6.6208    9.5617   26.5526 C   0  0  0  0  0  0  0  0  0  0  0  0
    5.5719   11.9171   27.6177 C   0  0  0  0  0  0  0  0  0  0  0  0
   13.6893   16.1152   18.2623 C   0  0  0  0  0  0  0  0  0  0  0  0
   13.8920   16.3165   20.5419 C   0  0  0  0  0  0  0  0  0  0  0  0
    8.8922   10.2431   23.2097 C   0  0  0  0  0  0  0  0  0  0  0  0
    8.7612   11.8605   24.6935 C   0  0  0  0  0  0  0  0  0  0  0  0
   12.7107   15.6266   20.7622 C   0  0  0  0  0  0  0  0  0  0  0  0
    6.9917   10.7951   26.0170 C   0  0  0  0  0  0  0  0  0  0  0  0
    9.4376   11.4940   23.5557 C   0  0  0  0  0  0  0  0  0  0  0  0
    6.4673   11.9728   26.5495 C   0  0  0  0  0  0  0  0  0  0  0  0
   10.9769   13.4754   23.2704 C   0  0  0  0  0  0  0  0  0  0  0  0
   13.1173   15.9710   23.2337 C   0  0  0  0  0  0  0  0  0  0  0  0
   12.8906   13.0479   21.6985 C   0  0  0  0  0  0  0  0  0  0  0  0
   12.2022   15.3758   22.1655 C   0  0  2  0  0  0  0  0  0  0  0  0
   14.4012   16.5736   19.3162 N   0  0  0  0  0  0  0  0  0  0  0  0
    7.9427    9.8419   24.0590 N   0  0  0  0  0  0  0  0  0  0  0  0
    7.8862   10.8463   24.9501 N   0  0  0  0  0  0  0  0  0  0  0  0
   10.4550   12.2328   22.9021 N   0  0  0  0  0  0  0  0  0  0  0  0
   11.9907   13.9499   22.4060 N   0  0  0  0  0  0  0  0  0  0  0  0
   10.5925   14.1297   24.2421 O   0  0  0  0  0  0  0  0  0  0  0  0
    6.8158   13.1651   26.0446 F   0  0  0  0  0  0  0  0  0  0  0  0
    5.4366    8.5461   28.0381 H   0  0  0  0  0  0  0  0  0  0  0  0
    4.5037   10.6404   28.9848 H   0  0  0  0  0  0  0  0  0  0  0  0
   11.9670   15.0696   17.4968 H   0  0  0  0  0  0  0  0  0  0  0  0
   11.0754   14.6246   19.7746 H   0  0  0  0  0  0  0  0  0  0  0  0
    7.0214    8.6357   26.1470 H   0  0  0  0  0  0  0  0  0  0  0  0
    5.1637   12.8339   28.0323 H   0  0  0  0  0  0  0  0  0  0  0  0
   14.1146   16.3319   17.2879 H   0  0  0  0  0  0  0  0  0  0  0  0
   14.4844   16.6962   21.3686 H   0  0  0  0  0  0  0  0  0  0  0  0
    9.1455    9.6047   22.3750 H   0  0  0  0  0  0  0  0  0  0  0  0
    8.8308   12.7370   25.3248 H   0  0  0  0  0  0  0  0  0  0  0  0
   14.1248   15.5454   23.1719 H   0  0  0  0  0  0  0  0  0  0  0  0
   13.1992   17.0565   23.1076 H   0  0  0  0  0  0  0  0  0  0  0  0
   12.7365   15.7925   24.2456 H   0  0  0  0  0  0  0  0  0  0  0  0
   12.4548   12.7846   20.7234 H   0  0  0  0  0  0  0  0  0  0  0  0
   13.8603   13.5439   21.5446 H   0  0  0  0  0  0  0  0  0  0  0  0
   13.0364   12.1343   22.2936 H   0  0  0  0  0  0  0  0  0  0  0  0
   11.2140   15.8385   22.2779 H   0  0  0  0  0  0  0  0  0  0  0  0
   10.8509   11.8097   22.0688 H   0  0  0  0  0  0  0  0  0  0  0  0
  1  2  2  0  0  0  0
  1  5  1  0  0  0  0
  2  6  1  0  0  0  0
  3  4  1  0  0  0  0
  3  7  2  0  0  0  0
  4 11  2  0  0  0  0
  5 12  2  0  0  0  0
  6 14  2  0  0  0  0
  7 19  1  0  0  0  0
  8 11  1  0  0  0  0
  8 19  2  0  0  0  0
  9 13  1  0  0  0  0
  9 20  2  0  0  0  0
 10 13  2  0  0  0  0
 10 21  1  0  0  0  0
 11 18  1  0  0  0  0
 12 14  1  0  0  0  0
 12 21  1  0  0  0  0
 13 22  1  0  0  0  0
 14 25  1  0  0  0  0
 15 22  1  0  0  0  0
 15 23  1  0  0  0  0
 15 24  2  0  0  0  0
 16 18  1  0  0  0  0
 17 23  1  0  0  0  0
 18 23  1  0  0  0  0
 20 21  1  0  0  0  0
  1 26  1  0  0  0  0
  2 27  1  0  0  0  0
  3 28  1  0  0  0  0
  4 29  1  0  0  0  0
  5 30  1  0  0  0  0
  6 31  1  0  0  0  0
  7 32  1  0  0  0  0
  8 33  1  0  0  0  0
  9 34  1  0  0  0  0
 10 35  1  0  0  0  0
 16 36  1  0  0  0  0
 16 37  1  0  0  0  0
 16 38  1  0  0  0  0
 17 39  1  0  0  0  0
 17 40  1  0  0  0  0
 17 41  1  0  0  0  0
 18 42  1  0  0  0  0
 22 43  1  0  0  0  0
M  END
> <Catalog ID>
Z1393897913

> <PlateID>
1041831-R-40

> <Well>
F11

> <MW (desalted)>
339.367

> <ClogP>
2.158

> <HBD>
1

> <TPSA>
63.050

> <RotBonds>
4

> <ROCS_ShapeQuery>
A71EV2A-x0451_0A_A71EV2A-x0310_0A_A71EV2A-x0416_0A_peptide

> <ROCS_TanimotoCombo>
0.535 

> <ROCS_ShapeTanimoto>
0.344 

> <ROCS_ColorTanimoto>
0.191 

> <ROCS_RefTversky>
0.309 

> <ROCS_RefColorTversky>
0.204 

> <ROCS_RefTverskyCombo>
0.513 

> <ROCS_FitTversky>
1.479 

> <ROCS_FitColorTversky>
0.753 

> <ROCS_FitTverskyCombo>
2.232 

> <ROCS_ColorScore>
-6.204

> <ROCS_Overlap>
2151.040

> <ROCS_Rank>
183                 

$$$$
untitled-dbase-2028_4592
  -OEChem-11132311063D

 50 53  0     1  0  0  0  0  0999 V2000
    6.3544   12.3899   25.6695 C   0  0  0  0  0  0  0  0  0  0  0  0
    6.1876   11.1203   26.2191 C   0  0  0  0  0  0  0  0  0  0  0  0
    7.3144   12.6206   24.6775 C   0  0  0  0  0  0  0  0  0  0  0  0
    6.9720   10.0433   25.7966 C   0  0  0  0  0  0  0  0  0  0  0  0
   13.6150   15.8438   17.4763 C   0  0  0  0  0  0  0  0  0  0  0  0
   15.2962   16.4757   19.6599 C   0  0  0  0  0  0  0  0  0  0  0  0
    9.5746   10.1113   23.2790 C   0  0  0  0  0  0  0  0  0  0  0  0
    8.1171   11.5501   24.2357 C   0  0  0  0  0  0  0  0  0  0  0  0
   13.1395   15.8256   18.7747 C   0  0  0  0  0  0  0  0  0  0  0  0
   14.9515   16.1949   17.2682 C   0  0  0  0  0  0  0  0  0  0  0  0
   15.7871   16.5076   18.3534 C   0  0  0  0  0  0  0  0  0  0  0  0
    9.1591   11.4229   23.2749 C   0  0  0  0  0  0  0  0  0  0  0  0
    7.9278   10.2887   24.8043 C   0  0  0  0  0  0  0  0  0  0  0  0
   13.9690   16.1381   19.8403 C   0  0  0  0  0  0  0  0  0  0  0  0
   11.2699   15.0532   21.7227 C   0  0  0  0  0  0  0  0  0  0  0  0
   11.5358   13.0472   24.0413 C   0  0  0  0  0  0  0  0  0  0  0  0
   11.8040   15.4408   19.2845 C   0  0  0  0  0  0  0  0  0  0  0  0
   11.9357   15.9469   20.7304 C   0  0  2  0  0  0  0  0  0  0  0  0
   15.4777   16.2236   15.8696 C   0  0  0  0  0  0  0  0  0  0  0  0
   17.2180   16.8768   18.1309 C   0  0  0  0  0  0  0  0  0  0  0  0
    9.7177   12.5220   22.4035 C   0  0  0  0  0  0  0  0  0  0  0  0
   11.2277   12.7222   22.5871 C   0  0  1  0  0  0  0  0  0  0  0  0
    8.8259    9.4350   24.2045 N   0  0  0  0  0  0  0  0  0  0  0  0
   11.7335   13.7515   21.7075 N   0  0  0  0  0  0  0  0  0  0  0  0
   10.3976   15.5066   22.4543 O   0  0  0  0  0  0  0  0  0  0  0  0
   12.2807   12.3627   24.7349 O   0  0  0  0  0  0  0  0  0  0  0  0
   13.3465   16.0540   21.0595 O   0  0  0  0  0  0  0  0  0  0  0  0
   10.9282   14.1608   24.5163 O   0  0  0  0  0  0  0  0  0  0  0  0
    5.7321   13.2115   26.0139 H   0  0  0  0  0  0  0  0  0  0  0  0
    5.4359   10.9636   26.9885 H   0  0  0  0  0  0  0  0  0  0  0  0
    7.4316   13.6159   24.2584 H   0  0  0  0  0  0  0  0  0  0  0  0
    6.8422    9.0555   26.2257 H   0  0  0  0  0  0  0  0  0  0  0  0
   12.9664   15.5858   16.6453 H   0  0  0  0  0  0  0  0  0  0  0  0
   15.9317   16.7106   20.5072 H   0  0  0  0  0  0  0  0  0  0  0  0
   10.3343    9.5976   22.7061 H   0  0  0  0  0  0  0  0  0  0  0  0
   10.9871   15.9465   18.7616 H   0  0  0  0  0  0  0  0  0  0  0  0
   11.6627   14.3567   19.2241 H   0  0  0  0  0  0  0  0  0  0  0  0
   11.4929   16.9729   20.8232 H   0  0  0  0  0  0  0  0  0  0  0  0
   15.3387   17.2190   15.4330 H   0  0  0  0  0  0  0  0  0  0  0  0
   16.5455   15.9756   15.8438 H   0  0  0  0  0  0  0  0  0  0  0  0
   14.9631   15.4890   15.2385 H   0  0  0  0  0  0  0  0  0  0  0  0
   17.8481   15.9805   18.1508 H   0  0  0  0  0  0  0  0  0  0  0  0
   17.3515   17.3776   17.1645 H   0  0  0  0  0  0  0  0  0  0  0  0
   17.5718   17.5711   18.9027 H   0  0  0  0  0  0  0  0  0  0  0  0
    9.1773   13.4491   22.6368 H   0  0  0  0  0  0  0  0  0  0  0  0
    9.4894   12.3119   21.3497 H   0  0  0  0  0  0  0  0  0  0  0  0
   11.7845   11.8111   22.3391 H   0  0  0  0  0  0  0  0  0  0  0  0
    8.9186    8.4513   24.4172 H   0  0  0  0  0  0  0  0  0  0  0  0
   12.4647   13.5065   21.0467 H   0  0  0  0  0  0  0  0  0  0  0  0
   10.3563   14.6256   23.8698 H   0  0  0  0  0  0  0  0  0  0  0  0
  1  2  2  0  0  0  0
  1  3  1  0  0  0  0
  2  4  1  0  0  0  0
  3  8  2  0  0  0  0
  4 13  2  0  0  0  0
  5  9  1  0  0  0  0
  5 10  2  0  0  0  0
  6 11  2  0  0  0  0
  6 14  1  0  0  0  0
  7 12  2  0  0  0  0
  7 23  1  0  0  0  0
  8 12  1  0  0  0  0
  8 13  1  0  0  0  0
  9 14  2  0  0  0  0
  9 17  1  0  0  0  0
 10 11  1  0  0  0  0
 10 19  1  0  0  0  0
 11 20  1  0  0  0  0
 12 21  1  0  0  0  0
 13 23  1  0  0  0  0
 14 27  1  0  0  0  0
 15 18  1  0  0  0  0
 15 24  1  0  0  0  0
 15 25  2  0  0  0  0
 16 22  1  0  0  0  0
 16 26  2  0  0  0  0
 16 28  1  0  0  0  0
 17 18  1  0  0  0  0
 18 27  1  0  0  0  0
 21 22  1  0  0  0  0
 22 24  1  0  0  0  0
  1 29  1  0  0  0  0
  2 30  1  0  0  0  0
  3 31  1  0  0  0  0
  4 32  1  0  0  0  0
  5 33  1  0  0  0  0
  6 34  1  0  0  0  0
  7 35  1  0  0  0  0
 17 36  1  0  0  0  0
 17 37  1  0  0  0  0
 18 38  1  0  0  0  0
 19 39  1  0  0  0  0
 19 40  1  0  0  0  0
 19 41  1  0  0  0  0
 20 42  1  0  0  0  0
 20 43  1  0  0  0  0
 20 44  1  0  0  0  0
 21 45  1  0  0  0  0
 21 46  1  0  0  0  0
 22 47  1  0  0  0  0
 23 48  1  0  0  0  0
 24 49  1  0  0  0  0
 28 50  1  0  0  0  0
M  END
> <Catalog ID>
Z1444488581

> <PlateID>
1041831-R-26

> <Well>
C09

> <MW (desalted)>
378.421

> <ClogP>
3.543

> <HBD>
3

> <TPSA>
91.420

> <RotBonds>
5

> <ROCS_ShapeQuery>
A71EV2A-x0451_0A_A71EV2A-x0310_0A_A71EV2A-x0416_0A_peptide

> <ROCS_TanimotoCombo>
0.534 

> <ROCS_ShapeTanimoto>
0.362 

> <ROCS_ColorTanimoto>
0.173 

> <ROCS_RefTversky>
0.326 

> <ROCS_RefColorTversky>
0.205 

> <ROCS_RefTverskyCombo>
0.532 

> <ROCS_FitTversky>
1.429 

> <ROCS_FitColorTversky>
0.522 

> <ROCS_FitTverskyCombo>
1.950 

> <ROCS_ColorScore>
-6.302

> <ROCS_Overlap>
2270.465

> <ROCS_Rank>
184                 

$$$$
untitled-dbase-1723_3279
  -OEChem-11132311063D

 44 46  0     0  0  0  0  0  0999 V2000
   14.1681   16.0372   20.0263 C   0  0  0  0  0  0  0  0  0  0  0  0
    9.9418    9.7473   23.0214 C   0  0  0  0  0  0  0  0  0  0  0  0
   10.6844   10.9210   22.8927 C   0  0  0  0  0  0  0  0  0  0  0  0
   13.5036   15.0980   20.8507 C   0  0  0  0  0  0  0  0  0  0  0  0
    8.9859   12.1297   24.1139 C   0  0  0  0  0  0  0  0  0  0  0  0
    4.5596   11.5965   26.9247 C   0  0  0  0  0  0  0  0  0  0  0  0
    5.7740   13.1921   27.8271 C   0  0  0  0  0  0  0  0  0  0  0  0
   13.3514   16.2347   18.9373 C   0  0  0  0  0  0  0  0  0  0  0  0
    8.2433   10.9560   24.2426 C   0  0  0  0  0  0  0  0  0  0  0  0
    8.7212    9.7648   23.6963 C   0  0  0  0  0  0  0  0  0  0  0  0
    5.8130   12.2325   26.8452 C   0  0  0  0  0  0  0  0  0  0  0  0
   10.2065   12.1122   23.4389 C   0  0  0  0  0  0  0  0  0  0  0  0
   12.3281   14.7888   20.2068 C   0  0  0  0  0  0  0  0  0  0  0  0
    6.9716   11.0019   24.9507 C   0  0  0  0  0  0  0  0  0  0  0  0
    7.9467    8.4932   23.8197 C   0  0  0  0  0  0  0  0  0  0  0  0
    4.0394   13.8774   29.5005 C   0  0  0  0  0  0  0  0  0  0  0  0
   11.1861   13.8722   20.5384 C   0  0  0  0  0  0  0  0  0  0  0  0
    3.7812   12.1088   27.8817 N   0  0  0  0  0  0  0  0  0  0  0  0
    4.5476   13.0768   28.4126 N   0  0  0  0  0  0  0  0  0  0  0  0
    6.8918   11.9684   25.9641 N   0  0  0  0  0  0  0  0  0  0  0  0
   10.5441   14.2315   21.8109 N   0  0  0  0  0  0  0  0  0  0  0  0
    6.0531   10.2149   24.6876 O   0  0  0  0  0  0  0  0  0  0  0  0
   10.7800   14.4841   24.3638 O   0  0  0  0  0  0  0  0  0  0  0  0
   12.5311   13.2063   23.0890 O   0  0  0  0  0  0  0  0  0  0  0  0
   12.2277   15.4775   19.0397 O   0  0  0  0  0  0  0  0  0  0  0  0
   11.1360   13.5814   23.2765 S   0  0  0  0  0  0  0  0  0  0  0  0
   15.1229   16.5106   20.2034 H   0  0  0  0  0  0  0  0  0  0  0  0
   10.3232    8.8242   22.5929 H   0  0  0  0  0  0  0  0  0  0  0  0
   11.6345   10.8959   22.3655 H   0  0  0  0  0  0  0  0  0  0  0  0
   13.8423   14.6981   21.7958 H   0  0  0  0  0  0  0  0  0  0  0  0
    8.6139   13.0593   24.5388 H   0  0  0  0  0  0  0  0  0  0  0  0
    4.1782   10.7814   26.3262 H   0  0  0  0  0  0  0  0  0  0  0  0
    6.4962   13.9291   28.1520 H   0  0  0  0  0  0  0  0  0  0  0  0
   13.4227   16.8482   18.0512 H   0  0  0  0  0  0  0  0  0  0  0  0
    8.2349    7.9606   24.7332 H   0  0  0  0  0  0  0  0  0  0  0  0
    6.8680    8.6884   23.8538 H   0  0  0  0  0  0  0  0  0  0  0  0
    8.1256    7.8358   22.9600 H   0  0  0  0  0  0  0  0  0  0  0  0
    3.5308   14.7449   29.0720 H   0  0  0  0  0  0  0  0  0  0  0  0
    3.3426   13.2815   30.0966 H   0  0  0  0  0  0  0  0  0  0  0  0
    4.8718   14.1955   30.1346 H   0  0  0  0  0  0  0  0  0  0  0  0
   10.4226   13.9072   19.7537 H   0  0  0  0  0  0  0  0  0  0  0  0
   11.5254   12.8339   20.6160 H   0  0  0  0  0  0  0  0  0  0  0  0
    7.7138   12.5554   26.0821 H   0  0  0  0  0  0  0  0  0  0  0  0
   10.0607   15.1378   21.8317 H   0  0  0  0  0  0  0  0  0  0  0  0
  1  4  1  0  0  0  0
  1  8  2  0  0  0  0
  2  3  1  0  0  0  0
  2 10  2  0  0  0  0
  3 12  2  0  0  0  0
  4 13  2  0  0  0  0
  5  9  2  0  0  0  0
  5 12  1  0  0  0  0
  6 11  1  0  0  0  0
  6 18  2  0  0  0  0
  7 11  2  0  0  0  0
  7 19  1  0  0  0  0
  8 25  1  0  0  0  0
  9 10  1  0  0  0  0
  9 14  1  0  0  0  0
 10 15  1  0  0  0  0
 11 20  1  0  0  0  0
 12 26  1  0  0  0  0
 13 17  1  0  0  0  0
 13 25  1  0  0  0  0
 14 20  1  0  0  0  0
 14 22  2  0  0  0  0
 16 19  1  0  0  0  0
 17 21  1  0  0  0  0
 18 19  1  0  0  0  0
 21 26  1  0  0  0  0
 23 26  2  0  0  0  0
 24 26  2  0  0  0  0
  1 27  1  0  0  0  0
  2 28  1  0  0  0  0
  3 29  1  0  0  0  0
  4 30  1  0  0  0  0
  5 31  1  0  0  0  0
  6 32  1  0  0  0  0
  7 33  1  0  0  0  0
  8 34  1  0  0  0  0
 15 35  1  0  0  0  0
 15 36  1  0  0  0  0
 15 37  1  0  0  0  0
 16 38  1  0  0  0  0
 16 39  1  0  0  0  0
 16 40  1  0  0  0  0
 17 41  1  0  0  0  0
 17 42  1  0  0  0  0
 20 43  1  0  0  0  0
 21 44  1  0  0  0  0
M  END
> <Catalog ID>
Z373773144

> <PlateID>
1041831-R-22

> <Well>
E04

> <MW (desalted)>
374.414

> <ClogP>
1.430

> <HBD>
2

> <TPSA>
106.230

> <RotBonds>
5

> <ROCS_ShapeQuery>
A71EV2A-x0451_0A_A71EV2A-x0310_0A_A71EV2A-x0416_0A_peptide

> <ROCS_TanimotoCombo>
0.534 

> <ROCS_ShapeTanimoto>
0.380 

> <ROCS_ColorTanimoto>
0.154 

> <ROCS_RefTversky>
0.334 

> <ROCS_RefColorTversky>
0.182 

> <ROCS_RefTverskyCombo>
0.516 

> <ROCS_FitTversky>
1.577 

> <ROCS_FitColorTversky>
0.502 

> <ROCS_FitTverskyCombo>
2.079 

> <ROCS_ColorScore>
-5.563

> <ROCS_Overlap>
2322.380

> <ROCS_Rank>
185                 

$$$$
untitled-dbase-358_261
  -OEChem-11132311063D

 41 44  0     1  0  0  0  0  0999 V2000
    9.2209    9.4179   23.1579 C   0  0  0  0  0  0  0  0  0  0  0  0
   10.0652   10.4390   22.7095 C   0  0  0  0  0  0  0  0  0  0  0  0
    8.7905   12.1241   23.9194 C   0  0  0  0  0  0  0  0  0  0  0  0
    7.9322   11.1110   24.3790 C   0  0  0  0  0  0  0  0  0  0  0  0
    8.1667    9.7950   23.9904 C   0  0  0  0  0  0  0  0  0  0  0  0
    9.8558   11.7688   23.0823 C   0  0  0  0  0  0  0  0  0  0  0  0
    6.3976    9.9539   25.3093 C   0  0  0  0  0  0  0  0  0  0  0  0
   11.0816   13.9633   23.2429 C   0  0  0  0  0  0  0  0  0  0  0  0
   13.7984   16.2875   18.8719 C   0  0  0  0  0  0  0  0  0  0  0  0
   12.8374   15.0723   18.7819 C   0  0  0  0  0  0  0  0  0  0  0  0
   13.5425   16.3027   20.4034 C   0  0  0  0  0  0  0  0  0  0  0  0
   10.9324   16.2396   20.0918 C   0  0  0  0  0  0  0  0  0  0  0  0
   10.4029   14.8896   20.6372 C   0  0  0  0  0  0  0  0  0  0  0  0
   12.2687   15.5547   20.1053 C   0  0  0  0  0  0  0  0  0  0  0  0
   12.0532   14.7545   22.3887 C   0  0  0  0  0  0  0  0  0  0  0  0
    5.2324    9.4930   26.0869 C   0  0  0  0  0  0  0  0  0  0  0  0
    6.8294   11.1901   25.1981 N   0  0  0  0  0  0  0  0  0  0  0  0
    7.1701    9.0769   24.6000 N   0  0  0  0  0  0  0  0  0  0  0  0
   11.8041   14.4855   20.9708 N   0  0  1  0  0  0  0  0  0  0  0  0
   10.7339   12.7730   22.6097 N   0  0  0  0  0  0  0  0  0  0  0  0
   10.6985   14.3627   24.3379 O   0  0  0  0  0  0  0  0  0  0  0  0
    4.5615   10.4938   26.7448 F   0  0  0  0  0  0  0  0  0  0  0  0
    4.2655    8.8703   25.3375 F   0  0  0  0  0  0  0  0  0  0  0  0
    5.5569    8.5870   27.0639 F   0  0  0  0  0  0  0  0  0  0  0  0
    9.3819    8.3851   22.8703 H   0  0  0  0  0  0  0  0  0  0  0  0
   10.8975   10.1793   22.0579 H   0  0  0  0  0  0  0  0  0  0  0  0
    8.6259   13.1574   24.2108 H   0  0  0  0  0  0  0  0  0  0  0  0
   14.8309   16.1009   18.5658 H   0  0  0  0  0  0  0  0  0  0  0  0
   13.4280   17.1810   18.3557 H   0  0  0  0  0  0  0  0  0  0  0  0
   12.1573   15.0753   17.9299 H   0  0  0  0  0  0  0  0  0  0  0  0
   13.3671   14.1169   18.8201 H   0  0  0  0  0  0  0  0  0  0  0  0
   14.2994   15.7379   20.9675 H   0  0  0  0  0  0  0  0  0  0  0  0
   13.4525   17.3004   20.8504 H   0  0  0  0  0  0  0  0  0  0  0  0
   10.5546   16.4928   19.0948 H   0  0  0  0  0  0  0  0  0  0  0  0
   10.8005   17.1005   20.7525 H   0  0  0  0  0  0  0  0  0  0  0  0
    9.7705   14.9946   21.5277 H   0  0  0  0  0  0  0  0  0  0  0  0
    9.8677   14.2649   19.9136 H   0  0  0  0  0  0  0  0  0  0  0  0
   13.0806   14.4723   22.6395 H   0  0  0  0  0  0  0  0  0  0  0  0
   11.9200   15.8213   22.5935 H   0  0  0  0  0  0  0  0  0  0  0  0
    7.0346    8.0766   24.5356 H   0  0  0  0  0  0  0  0  0  0  0  0
   11.1529   12.5906   21.7003 H   0  0  0  0  0  0  0  0  0  0  0  0
  1  2  1  0  0  0  0
  1  5  2  0  0  0  0
  2  6  2  0  0  0  0
  3  4  2  0  0  0  0
  3  6  1  0  0  0  0
  4  5  1  0  0  0  0
  4 17  1  0  0  0  0
  5 18  1  0  0  0  0
  6 20  1  0  0  0  0
  7 16  1  0  0  0  0
  7 17  2  0  0  0  0
  7 18  1  0  0  0  0
  8 15  1  0  0  0  0
  8 20  1  0  0  0  0
  8 21  2  0  0  0  0
  9 10  1  0  0  0  0
  9 11  1  0  0  0  0
 10 14  1  0  0  0  0
 11 14  1  0  0  0  0
 12 13  1  0  0  0  0
 12 14  1  0  0  0  0
 13 19  1  0  0  0  0
 14 19  1  0  0  0  0
 15 19  1  0  0  0  0
 16 22  1  0  0  0  0
 16 23  1  0  0  0  0
 16 24  1  0  0  0  0
  1 25  1  0  0  0  0
  2 26  1  0  0  0  0
  3 27  1  0  0  0  0
  9 28  1  0  0  0  0
  9 29  1  0  0  0  0
 10 30  1  0  0  0  0
 10 31  1  0  0  0  0
 11 32  1  0  0  0  0
 11 33  1  0  0  0  0
 12 34  1  0  0  0  0
 12 35  1  0  0  0  0
 13 36  1  0  0  0  0
 13 37  1  0  0  0  0
 15 38  1  0  0  0  0
 15 39  1  0  0  0  0
 18 40  1  0  0  0  0
 20 41  1  0  0  0  0
M  END
> <Catalog ID>
Z1318093816

> <PlateID>
1041831-R-05

> <Well>
D09

> <MW (desalted)>
338.328

> <ClogP>
3.374

> <HBD>
2

> <TPSA>
61.020

> <RotBonds>
4

> <ROCS_ShapeQuery>
A71EV2A-x0451_0A_A71EV2A-x0310_0A_A71EV2A-x0416_0A_peptide

> <ROCS_TanimotoCombo>
0.534 

> <ROCS_ShapeTanimoto>
0.344 

> <ROCS_ColorTanimoto>
0.191 

> <ROCS_RefTversky>
0.308 

> <ROCS_RefColorTversky>
0.218 

> <ROCS_RefTverskyCombo>
0.526 

> <ROCS_FitTversky>
1.501 

> <ROCS_FitColorTversky>
0.600 

> <ROCS_FitTverskyCombo>
2.102 

> <ROCS_ColorScore>
-6.685

> <ROCS_Overlap>
2142.366

> <ROCS_Rank>
186                 

$$$$
untitled-dbase-3065_5438
  -OEChem-11132311063D

 47 50  0     1  0  0  0  0  0999 V2000
    6.3100   12.0329   25.7753 C   0  0  0  0  0  0  0  0  0  0  0  0
   13.5912   14.9524   17.9564 C   0  0  0  0  0  0  0  0  0  0  0  0
   12.2598   14.7054   18.2827 C   0  0  0  0  0  0  0  0  0  0  0  0
    6.1479   10.6878   26.1015 C   0  0  0  0  0  0  0  0  0  0  0  0
    7.2958   12.4359   24.8672 C   0  0  0  0  0  0  0  0  0  0  0  0
   14.4003   15.6771   18.8302 C   0  0  0  0  0  0  0  0  0  0  0  0
   11.7365   15.1745   19.4880 C   0  0  0  0  0  0  0  0  0  0  0  0
    6.9629    9.7049   25.5328 C   0  0  0  0  0  0  0  0  0  0  0  0
    9.6396   10.2196   23.1481 C   0  0  0  0  0  0  0  0  0  0  0  0
    8.1295   11.4628   24.2811 C   0  0  0  0  0  0  0  0  0  0  0  0
   13.8796   16.1627   20.0364 C   0  0  0  0  0  0  0  0  0  0  0  0
   12.5442   15.8895   20.3841 C   0  0  0  0  0  0  0  0  0  0  0  0
    9.2023   11.5088   23.3473 C   0  0  0  0  0  0  0  0  0  0  0  0
    7.9442   10.1225   24.6267 C   0  0  0  0  0  0  0  0  0  0  0  0
   11.2979   15.3704   22.4869 C   0  0  0  0  0  0  0  0  0  0  0  0
   11.5268   13.0110   24.4494 C   0  0  0  0  0  0  0  0  0  0  0  0
   14.7592   16.9301   20.9871 C   0  0  0  0  0  0  0  0  0  0  0  0
   13.9183   17.7545   21.9526 C   0  0  0  0  0  0  0  0  0  0  0  0
   11.9783   16.4235   21.6788 C   0  0  1  0  0  0  0  0  0  0  0  0
    9.7687   12.7436   22.6884 C   0  0  0  0  0  0  0  0  0  0  0  0
   11.2688   12.9280   22.9521 C   0  0  1  0  0  0  0  0  0  0  0  0
    8.8745    9.3906   23.9238 N   0  0  0  0  0  0  0  0  0  0  0  0
   11.7837   14.0948   22.2720 N   0  0  0  0  0  0  0  0  0  0  0  0
   10.3962   15.6861   23.2543 O   0  0  0  0  0  0  0  0  0  0  0  0
   12.2617   12.2296   25.0444 O   0  0  0  0  0  0  0  0  0  0  0  0
   12.9736   16.8992   22.5932 O   0  0  0  0  0  0  0  0  0  0  0  0
   10.8863   14.0233   25.0818 O   0  0  0  0  0  0  0  0  0  0  0  0
    5.6637   12.7787   26.2302 H   0  0  0  0  0  0  0  0  0  0  0  0
   13.9983   14.5831   17.0197 H   0  0  0  0  0  0  0  0  0  0  0  0
   11.6277   14.1473   17.5980 H   0  0  0  0  0  0  0  0  0  0  0  0
    5.3759   10.3971   26.8093 H   0  0  0  0  0  0  0  0  0  0  0  0
    7.4089   13.4882   24.6225 H   0  0  0  0  0  0  0  0  0  0  0  0
   15.4374   15.8649   18.5645 H   0  0  0  0  0  0  0  0  0  0  0  0
   10.6933   14.9781   19.7223 H   0  0  0  0  0  0  0  0  0  0  0  0
    6.8367    8.6583   25.7882 H   0  0  0  0  0  0  0  0  0  0  0  0
   10.4249    9.8168   22.5233 H   0  0  0  0  0  0  0  0  0  0  0  0
   15.3588   16.2029   21.5478 H   0  0  0  0  0  0  0  0  0  0  0  0
   15.4383   17.5916   20.4380 H   0  0  0  0  0  0  0  0  0  0  0  0
   14.5580   18.1932   22.7249 H   0  0  0  0  0  0  0  0  0  0  0  0
   13.3937   18.5746   21.4468 H   0  0  0  0  0  0  0  0  0  0  0  0
   11.2695   17.2341   21.4753 H   0  0  0  0  0  0  0  0  0  0  0  0
    9.2058   13.6129   23.0539 H   0  0  0  0  0  0  0  0  0  0  0  0
    9.5762   12.7085   21.6074 H   0  0  0  0  0  0  0  0  0  0  0  0
   11.8482   12.0772   22.5754 H   0  0  0  0  0  0  0  0  0  0  0  0
    8.9773    8.3864   23.9739 H   0  0  0  0  0  0  0  0  0  0  0  0
   12.5388   13.9711   21.6042 H   0  0  0  0  0  0  0  0  0  0  0  0
   10.3267   14.5822   24.5026 H   0  0  0  0  0  0  0  0  0  0  0  0
  1  4  2  0  0  0  0
  1  5  1  0  0  0  0
  2  3  2  0  0  0  0
  2  6  1  0  0  0  0
  3  7  1  0  0  0  0
  4  8  1  0  0  0  0
  5 10  2  0  0  0  0
  6 11  2  0  0  0  0
  7 12  2  0  0  0  0
  8 14  2  0  0  0  0
  9 13  2  0  0  0  0
  9 22  1  0  0  0  0
 10 13  1  0  0  0  0
 10 14  1  0  0  0  0
 11 12  1  0  0  0  0
 11 17  1  0  0  0  0
 12 19  1  0  0  0  0
 13 20  1  0  0  0  0
 14 22  1  0  0  0  0
 15 19  1  0  0  0  0
 15 23  1  0  0  0  0
 15 24  2  0  0  0  0
 16 21  1  0  0  0  0
 16 25  2  0  0  0  0
 16 27  1  0  0  0  0
 17 18  1  0  0  0  0
 18 26  1  0  0  0  0
 19 26  1  0  0  0  0
 20 21  1  0  0  0  0
 21 23  1  0  0  0  0
  1 28  1  0  0  0  0
  2 29  1  0  0  0  0
  3 30  1  0  0  0  0
  4 31  1  0  0  0  0
  5 32  1  0  0  0  0
  6 33  1  0  0  0  0
  7 34  1  0  0  0  0
  8 35  1  0  0  0  0
  9 36  1  0  0  0  0
 17 37  1  0  0  0  0
 17 38  1  0  0  0  0
 18 39  1  0  0  0  0
 18 40  1  0  0  0  0
 19 41  1  0  0  0  0
 20 42  1  0  0  0  0
 20 43  1  0  0  0  0
 21 44  1  0  0  0  0
 22 45  1  0  0  0  0
 23 46  1  0  0  0  0
 27 47  1  0  0  0  0
M  END
> <Catalog ID>
Z685816612

> <PlateID>
1041831-R-39

> <Well>
C06

> <MW (desalted)>
364.395

> <ClogP>
2.581

> <HBD>
3

> <TPSA>
91.420

> <RotBonds>
5

> <ROCS_ShapeQuery>
A71EV2A-x0451_0A_A71EV2A-x0310_0A_A71EV2A-x0416_0A_peptide

> <ROCS_TanimotoCombo>
0.534 

> <ROCS_ShapeTanimoto>
0.367 

> <ROCS_ColorTanimoto>
0.167 

> <ROCS_RefTversky>
0.328 

> <ROCS_RefColorTversky>
0.200 

> <ROCS_RefTverskyCombo>
0.528 

> <ROCS_FitTversky>
1.477 

> <ROCS_FitColorTversky>
0.508 

> <ROCS_FitTverskyCombo>
1.985 

> <ROCS_ColorScore>
-6.128

> <ROCS_Overlap>
2281.520

> <ROCS_Rank>
187                 

$$$$
untitled-dbase-1886_34
  -OEChem-11132311063D

 42 45  0     1  0  0  0  0  0999 V2000
    8.3445   11.8227   24.3642 C   0  0  0  0  0  0  0  0  0  0  0  0
    7.7305   10.6171   24.7017 C   0  0  0  0  0  0  0  0  0  0  0  0
    9.3178   11.4932   23.4686 C   0  0  0  0  0  0  0  0  0  0  0  0
   10.2896   15.5203   20.8077 C   0  0  0  0  0  0  0  0  0  0  0  0
   10.8462   13.4720   23.1995 C   0  0  0  0  0  0  0  0  0  0  0  0
    7.7467   12.9702   25.0632 C   0  0  0  0  0  0  0  0  0  0  0  0
    6.6367   10.7802   25.6728 C   0  0  0  0  0  0  0  0  0  0  0  0
   10.3740   16.9888   20.4544 C   0  0  0  0  0  0  0  0  0  0  0  0
    6.8655   12.2573   26.1487 C   0  0  0  0  0  0  0  0  0  0  0  0
   11.8016   17.3572   20.8794 C   0  0  0  0  0  0  0  0  0  0  0  0
   13.2044   14.1884   22.7556 C   0  0  0  0  0  0  0  0  0  0  0  0
   11.8016   14.0000   22.1761 C   0  0  2  0  0  0  0  0  0  0  0  0
   12.0392   16.4669   22.0939 C   0  0  1  0  0  0  0  0  0  0  0  0
   11.5601   17.1117   23.3961 C   0  0  0  0  0  0  0  0  0  0  0  0
   10.0343    9.2800   22.4933 C   0  0  0  0  0  0  0  0  0  0  0  0
    8.2409    9.5582   24.0891 N   0  0  0  0  0  0  0  0  0  0  0  0
    9.2186   10.1258   23.3350 N   0  0  0  0  0  0  0  0  0  0  0  0
   11.2701   15.2887   21.7678 N   0  0  0  0  0  0  0  0  0  0  0  0
   10.2652   12.2836   22.7757 N   0  0  0  0  0  0  0  0  0  0  0  0
    9.5058   14.7223   20.3181 O   0  0  0  0  0  0  0  0  0  0  0  0
   10.6602   14.0716   24.2535 O   0  0  0  0  0  0  0  0  0  0  0  0
   13.7393   15.8624   22.2822 S   0  0  0  0  0  0  0  0  0  0  0  0
    8.4888   13.6256   25.5267 H   0  0  0  0  0  0  0  0  0  0  0  0
    7.1160   13.5538   24.3852 H   0  0  0  0  0  0  0  0  0  0  0  0
    5.6625   10.6842   25.1831 H   0  0  0  0  0  0  0  0  0  0  0  0
    6.6971   10.0818   26.5116 H   0  0  0  0  0  0  0  0  0  0  0  0
   10.2231   17.1415   19.3827 H   0  0  0  0  0  0  0  0  0  0  0  0
    9.6186   17.5410   21.0218 H   0  0  0  0  0  0  0  0  0  0  0  0
    7.4179   12.2415   27.0977 H   0  0  0  0  0  0  0  0  0  0  0  0
    5.9232   12.7849   26.3270 H   0  0  0  0  0  0  0  0  0  0  0  0
   12.4929   17.1181   20.0596 H   0  0  0  0  0  0  0  0  0  0  0  0
   11.8925   18.4275   21.0954 H   0  0  0  0  0  0  0  0  0  0  0  0
   13.2331   14.0795   23.8416 H   0  0  0  0  0  0  0  0  0  0  0  0
   13.9003   13.4760   22.3056 H   0  0  0  0  0  0  0  0  0  0  0  0
   11.7927   13.3019   21.3422 H   0  0  0  0  0  0  0  0  0  0  0  0
   11.7515   16.4390   24.2288 H   0  0  0  0  0  0  0  0  0  0  0  0
   10.4931   17.3119   23.3335 H   0  0  0  0  0  0  0  0  0  0  0  0
   12.0926   18.0459   23.5585 H   0  0  0  0  0  0  0  0  0  0  0  0
   10.9002    8.9574   23.0774 H   0  0  0  0  0  0  0  0  0  0  0  0
    9.4484    8.4155   22.1689 H   0  0  0  0  0  0  0  0  0  0  0  0
   10.3543    9.8460   21.6140 H   0  0  0  0  0  0  0  0  0  0  0  0
   10.5450   11.9290   21.8636 H   0  0  0  0  0  0  0  0  0  0  0  0
  1  2  1  0  0  0  0
  1  3  2  0  0  0  0
  1  6  1  0  0  0  0
  2  7  1  0  0  0  0
  2 16  2  0  0  0  0
  3 17  1  0  0  0  0
  3 19  1  0  0  0  0
  4  8  1  0  0  0  0
  4 18  1  0  0  0  0
  4 20  2  0  0  0  0
  5 12  1  0  0  0  0
  5 19  1  0  0  0  0
  5 21  2  0  0  0  0
  6  9  1  0  0  0  0
  7  9  1  0  0  0  0
  8 10  1  0  0  0  0
 10 13  1  0  0  0  0
 11 12  1  0  0  0  0
 11 22  1  0  0  0  0
 12 18  1  0  0  0  0
 13 14  1  0  0  0  0
 13 18  1  0  0  0  0
 13 22  1  0  0  0  0
 15 17  1  0  0  0  0
 16 17  1  0  0  0  0
  6 23  1  0  0  0  0
  6 24  1  0  0  0  0
  7 25  1  0  0  0  0
  7 26  1  0  0  0  0
  8 27  1  0  0  0  0
  8 28  1  0  0  0  0
  9 29  1  0  0  0  0
  9 30  1  0  0  0  0
 10 31  1  0  0  0  0
 10 32  1  0  0  0  0
 11 33  1  0  0  0  0
 11 34  1  0  0  0  0
 12 35  1  0  0  0  0
 14 36  1  0  0  0  0
 14 37  1  0  0  0  0
 14 38  1  0  0  0  0
 15 39  1  0  0  0  0
 15 40  1  0  0  0  0
 15 41  1  0  0  0  0
 19 42  1  0  0  0  0
M  END
> <Catalog ID>
Z826627752

> <PlateID>
1041831-R-24

> <Well>
E07

> <MW (desalted)>
320.410

> <ClogP>
1.004

> <HBD>
1

> <TPSA>
67.230

> <RotBonds>
2

> <ROCS_ShapeQuery>
A71EV2A-x0451_0A_A71EV2A-x0310_0A_A71EV2A-x0416_0A_peptide

> <ROCS_TanimotoCombo>
0.534 

> <ROCS_ShapeTanimoto>
0.348 

> <ROCS_ColorTanimoto>
0.186 

> <ROCS_RefTversky>
0.307 

> <ROCS_RefColorTversky>
0.205 

> <ROCS_RefTverskyCombo>
0.512 

> <ROCS_FitTversky>
1.618 

> <ROCS_FitColorTversky>
0.673 

> <ROCS_FitTverskyCombo>
2.291 

> <ROCS_ColorScore>
-6.247

> <ROCS_Overlap>
2133.024

> <ROCS_Rank>
188                 

$$$$
untitled-dbase-851_1050
  -OEChem-11132311063D

 46 48  0     1  0  0  0  0  0999 V2000
   13.6764   11.8857   28.4009 C   0  0  0  0  0  0  0  0  0  0  0  0
    6.5294   12.3643   25.9210 C   0  0  0  0  0  0  0  0  0  0  0  0
    6.3811   11.0600   26.3886 C   0  0  0  0  0  0  0  0  0  0  0  0
   12.6676   12.7940   28.0803 C   0  0  0  0  0  0  0  0  0  0  0  0
   14.4353   11.2999   27.3877 C   0  0  0  0  0  0  0  0  0  0  0  0
    7.4253   12.6568   24.8863 C   0  0  0  0  0  0  0  0  0  0  0  0
    7.1207   10.0089   25.8392 C   0  0  0  0  0  0  0  0  0  0  0  0
   12.4174   13.1164   26.7465 C   0  0  0  0  0  0  0  0  0  0  0  0
   14.1852   11.6223   26.0538 C   0  0  0  0  0  0  0  0  0  0  0  0
    9.5528   10.2336   23.1651 C   0  0  0  0  0  0  0  0  0  0  0  0
    8.1819   11.6134   24.3168 C   0  0  0  0  0  0  0  0  0  0  0  0
    9.1565   11.5459   23.2822 C   0  0  0  0  0  0  0  0  0  0  0  0
    8.0125   10.3161   24.8054 C   0  0  0  0  0  0  0  0  0  0  0  0
   13.1763   12.5305   25.7332 C   0  0  0  0  0  0  0  0  0  0  0  0
   11.2221   15.2373   21.8130 C   0  0  0  0  0  0  0  0  0  0  0  0
   11.6061   13.2184   23.9790 C   0  0  0  0  0  0  0  0  0  0  0  0
   11.8379   16.1786   20.8317 C   0  0  0  0  0  0  0  0  0  0  0  0
   14.0275   12.8211   23.4010 C   0  0  0  0  0  0  0  0  0  0  0  0
    9.6721   12.6994   22.4562 C   0  0  0  0  0  0  0  0  0  0  0  0
   11.1958   12.8606   22.5432 C   0  0  1  0  0  0  0  0  0  0  0  0
    8.8570    9.4994   24.0878 N   0  0  0  0  0  0  0  0  0  0  0  0
   11.6615   13.9330   21.6926 N   0  0  0  0  0  0  0  0  0  0  0  0
   12.9203   12.8607   24.3685 N   0  0  0  0  0  0  0  0  0  0  0  0
   10.4068   15.6589   22.6249 O   0  0  0  0  0  0  0  0  0  0  0  0
   10.7816   13.7745   24.7126 O   0  0  0  0  0  0  0  0  0  0  0  0
   13.8720   11.6350   29.4395 H   0  0  0  0  0  0  0  0  0  0  0  0
    5.9428   13.1648   26.3638 H   0  0  0  0  0  0  0  0  0  0  0  0
    5.6795   10.8555   27.1932 H   0  0  0  0  0  0  0  0  0  0  0  0
   12.0771   13.2509   28.8690 H   0  0  0  0  0  0  0  0  0  0  0  0
   15.2216   10.5935   27.6377 H   0  0  0  0  0  0  0  0  0  0  0  0
    7.5288   13.6786   24.5323 H   0  0  0  0  0  0  0  0  0  0  0  0
    7.0053    8.9941   26.2045 H   0  0  0  0  0  0  0  0  0  0  0  0
   11.6286   13.8256   26.5086 H   0  0  0  0  0  0  0  0  0  0  0  0
   14.7831   11.1595   25.2726 H   0  0  0  0  0  0  0  0  0  0  0  0
   10.2658    9.7553   22.5076 H   0  0  0  0  0  0  0  0  0  0  0  0
   11.2582   16.2508   19.8974 H   0  0  0  0  0  0  0  0  0  0  0  0
   11.8973   17.2089   21.2178 H   0  0  0  0  0  0  0  0  0  0  0  0
   12.8636   15.9275   20.5176 H   0  0  0  0  0  0  0  0  0  0  0  0
   14.0926   11.8162   22.9584 H   0  0  0  0  0  0  0  0  0  0  0  0
   13.8468   13.5604   22.6067 H   0  0  0  0  0  0  0  0  0  0  0  0
   14.9713   13.0575   23.9141 H   0  0  0  0  0  0  0  0  0  0  0  0
    9.1648   13.6150   22.7861 H   0  0  0  0  0  0  0  0  0  0  0  0
    9.3650   12.5672   21.4095 H   0  0  0  0  0  0  0  0  0  0  0  0
   11.7288   11.9733   22.1925 H   0  0  0  0  0  0  0  0  0  0  0  0
    8.9496    8.5022   24.2233 H   0  0  0  0  0  0  0  0  0  0  0  0
   12.3440   13.7173   20.9725 H   0  0  0  0  0  0  0  0  0  0  0  0
  1  4  2  0  0  0  0
  1  5  1  0  0  0  0
  2  3  2  0  0  0  0
  2  6  1  0  0  0  0
  3  7  1  0  0  0  0
  4  8  1  0  0  0  0
  5  9  2  0  0  0  0
  6 11  2  0  0  0  0
  7 13  2  0  0  0  0
  8 14  2  0  0  0  0
  9 14  1  0  0  0  0
 10 12  2  0  0  0  0
 10 21  1  0  0  0  0
 11 12  1  0  0  0  0
 11 13  1  0  0  0  0
 12 19  1  0  0  0  0
 13 21  1  0  0  0  0
 14 23  1  0  0  0  0
 15 17  1  0  0  0  0
 15 22  1  0  0  0  0
 15 24  2  0  0  0  0
 16 20  1  0  0  0  0
 16 23  1  0  0  0  0
 16 25  2  0  0  0  0
 18 23  1  0  0  0  0
 19 20  1  0  0  0  0
 20 22  1  0  0  0  0
  1 26  1  0  0  0  0
  2 27  1  0  0  0  0
  3 28  1  0  0  0  0
  4 29  1  0  0  0  0
  5 30  1  0  0  0  0
  6 31  1  0  0  0  0
  7 32  1  0  0  0  0
  8 33  1  0  0  0  0
  9 34  1  0  0  0  0
 10 35  1  0  0  0  0
 17 36  1  0  0  0  0
 17 37  1  0  0  0  0
 17 38  1  0  0  0  0
 18 39  1  0  0  0  0
 18 40  1  0  0  0  0
 18 41  1  0  0  0  0
 19 42  1  0  0  0  0
 19 43  1  0  0  0  0
 20 44  1  0  0  0  0
 21 45  1  0  0  0  0
 22 46  1  0  0  0  0
M  END
> <Catalog ID>
Z31505259

> <PlateID>
1041831-R-11

> <Well>
F02

> <MW (desalted)>
335.400

> <ClogP>
2.133

> <HBD>
2

> <TPSA>
65.200

> <RotBonds>
5

> <ROCS_ShapeQuery>
A71EV2A-x0451_0A_A71EV2A-x0310_0A_A71EV2A-x0416_0A_peptide

> <ROCS_TanimotoCombo>
0.534 

> <ROCS_ShapeTanimoto>
0.365 

> <ROCS_ColorTanimoto>
0.169 

> <ROCS_RefTversky>
0.322 

> <ROCS_RefColorTversky>
0.184 

> <ROCS_RefTverskyCombo>
0.507 

> <ROCS_FitTversky>
1.560 

> <ROCS_FitColorTversky>
0.680 

> <ROCS_FitTverskyCombo>
2.239 

> <ROCS_ColorScore>
-5.610

> <ROCS_Overlap>
2241.800

> <ROCS_Rank>
189                 

$$$$
untitled-dbase-258_411
  -OEChem-11132311063D

 44 46  0     1  0  0  0  0  0999 V2000
    4.8879   13.6026   28.2088 C   0  0  0  0  0  0  0  0  0  0  0  0
    4.4051   12.2997   28.0855 C   0  0  0  0  0  0  0  0  0  0  0  0
    6.1467   13.9305   27.7054 C   0  0  0  0  0  0  0  0  0  0  0  0
    5.1813   11.3248   27.4589 C   0  0  0  0  0  0  0  0  0  0  0  0
    6.9229   12.9555   27.0788 C   0  0  0  0  0  0  0  0  0  0  0  0
    6.4402   11.6526   26.9555 C   0  0  0  0  0  0  0  0  0  0  0  0
   10.9615   14.0046   23.2824 C   0  0  0  0  0  0  0  0  0  0  0  0
    7.3618   10.0646   23.3034 C   0  0  0  0  0  0  0  0  0  0  0  0
    8.5466    9.2806   23.8728 C   0  0  0  0  0  0  0  0  0  0  0  0
    8.3188   12.4249   23.1938 C   0  0  0  0  0  0  0  0  0  0  0  0
   10.2917   11.1198   24.1421 C   0  0  0  0  0  0  0  0  0  0  0  0
    7.4402   11.4339   23.9873 C   0  0  2  0  0  0  0  0  0  0  0  0
    9.2232   10.2542   24.8440 C   0  0  1  0  0  0  0  0  0  0  0  0
    9.7280   11.8708   22.9230 C   0  0  0  0  0  0  0  0  0  0  0  0
    7.2762   10.6036   26.2811 C   0  0  0  0  0  0  0  0  0  0  0  0
   11.9174   14.9408   22.5657 C   0  0  0  0  0  0  0  0  0  0  0  0
   11.7582   14.9099   21.0634 C   0  0  0  0  0  0  0  0  0  0  0  0
    8.1463   11.1740   25.2556 N   0  0  0  0  0  0  0  0  0  0  0  0
   10.6224   12.9156   22.4903 N   0  0  0  0  0  0  0  0  0  0  0  0
   10.5507   14.2063   24.4219 O   0  0  0  0  0  0  0  0  0  0  0  0
   12.6346   15.7370   20.4553 F   0  0  0  0  0  0  0  0  0  0  0  0
   11.9409   13.6663   20.5717 F   0  0  0  0  0  0  0  0  0  0  0  0
   10.5139   15.3072   20.7145 F   0  0  0  0  0  0  0  0  0  0  0  0
    4.2828   14.3619   28.6956 H   0  0  0  0  0  0  0  0  0  0  0  0
    3.4245   12.0445   28.4765 H   0  0  0  0  0  0  0  0  0  0  0  0
    6.5224   14.9450   27.8002 H   0  0  0  0  0  0  0  0  0  0  0  0
    4.7971   10.3122   27.3675 H   0  0  0  0  0  0  0  0  0  0  0  0
    7.9026   13.2201   26.6897 H   0  0  0  0  0  0  0  0  0  0  0  0
    7.4044   10.1328   22.2115 H   0  0  0  0  0  0  0  0  0  0  0  0
    6.4272    9.5546   23.5652 H   0  0  0  0  0  0  0  0  0  0  0  0
    8.1768    8.3968   24.4063 H   0  0  0  0  0  0  0  0  0  0  0  0
    9.2210    8.9305   23.0845 H   0  0  0  0  0  0  0  0  0  0  0  0
    7.8320   12.6698   22.2416 H   0  0  0  0  0  0  0  0  0  0  0  0
    8.3907   13.3622   23.7627 H   0  0  0  0  0  0  0  0  0  0  0  0
   10.6929   11.8394   24.8692 H   0  0  0  0  0  0  0  0  0  0  0  0
   11.1311   10.4875   23.8269 H   0  0  0  0  0  0  0  0  0  0  0  0
    6.4493   11.8778   24.1354 H   0  0  0  0  0  0  0  0  0  0  0  0
    9.6866    9.7358   25.6910 H   0  0  0  0  0  0  0  0  0  0  0  0
    9.6719   11.1735   22.0782 H   0  0  0  0  0  0  0  0  0  0  0  0
    7.9089   10.0863   27.0106 H   0  0  0  0  0  0  0  0  0  0  0  0
    6.6461    9.8467   25.8024 H   0  0  0  0  0  0  0  0  0  0  0  0
   11.7433   15.9590   22.9314 H   0  0  0  0  0  0  0  0  0  0  0  0
   12.9423   14.6576   22.8309 H   0  0  0  0  0  0  0  0  0  0  0  0
   11.0029   12.8522   21.5493 H   0  0  0  0  0  0  0  0  0  0  0  0
  1  2  2  0  0  0  0
  1  3  1  0  0  0  0
  2  4  1  0  0  0  0
  3  5  2  0  0  0  0
  4  6  2  0  0  0  0
  5  6  1  0  0  0  0
  6 15  1  0  0  0  0
  7 16  1  0  0  0  0
  7 19  1  0  0  0  0
  7 20  2  0  0  0  0
  8  9  1  0  0  0  0
  8 12  1  0  0  0  0
  9 13  1  0  0  0  0
 10 12  1  0  0  0  0
 10 14  1  0  0  0  0
 11 13  1  0  0  0  0
 11 14  1  0  0  0  0
 12 18  1  0  0  0  0
 13 18  1  0  0  0  0
 14 19  1  0  0  0  0
 15 18  1  0  0  0  0
 16 17  1  0  0  0  0
 17 21  1  0  0  0  0
 17 22  1  0  0  0  0
 17 23  1  0  0  0  0
  1 24  1  0  0  0  0
  2 25  1  0  0  0  0
  3 26  1  0  0  0  0
  4 27  1  0  0  0  0
  5 28  1  0  0  0  0
  8 29  1  0  0  0  0
  8 30  1  0  0  0  0
  9 31  1  0  0  0  0
  9 32  1  0  0  0  0
 10 33  1  0  0  0  0
 10 34  1  0  0  0  0
 11 35  1  0  0  0  0
 11 36  1  0  0  0  0
 12 37  1  0  0  0  0
 13 38  1  0  0  0  0
 14 39  1  0  0  0  0
 15 40  1  0  0  0  0
 15 41  1  0  0  0  0
 16 42  1  0  0  0  0
 16 43  1  0  0  0  0
 19 44  1  0  0  0  0
M  END
> <Catalog ID>
Z1173263740

> <PlateID>
1041831-R-04

> <Well>
B09

> <MW (desalted)>
326.357

> <ClogP>
1.875

> <HBD>
1

> <TPSA>
32.340

> <RotBonds>
5

> <ROCS_ShapeQuery>
A71EV2A-x0451_0A_A71EV2A-x0310_0A_A71EV2A-x0416_0A_peptide

> <ROCS_TanimotoCombo>
0.534 

> <ROCS_ShapeTanimoto>
0.331 

> <ROCS_ColorTanimoto>
0.203 

> <ROCS_RefTversky>
0.297 

> <ROCS_RefColorTversky>
0.229 

> <ROCS_RefTverskyCombo>
0.526 

> <ROCS_FitTversky>
1.532 

> <ROCS_FitColorTversky>
0.642 

> <ROCS_FitTverskyCombo>
2.174 

> <ROCS_ColorScore>
-7.012

> <ROCS_Overlap>
2060.897

> <ROCS_Rank>
190                 

$$$$
untitled-dbase-3195_1750
  -OEChem-11132311063D

 48 51  0     1  0  0  0  0  0999 V2000
   13.7774   15.4625   18.3153 C   0  0  0  0  0  0  0  0  0  0  0  0
   14.4432   16.2314   19.2697 C   0  0  0  0  0  0  0  0  0  0  0  0
   12.4749   15.0255   18.5567 C   0  0  0  0  0  0  0  0  0  0  0  0
   13.8066   16.5634   20.4656 C   0  0  0  0  0  0  0  0  0  0  0  0
   11.8383   15.3574   19.7526 C   0  0  0  0  0  0  0  0  0  0  0  0
   12.5041   16.1264   20.7071 C   0  0  0  0  0  0  0  0  0  0  0  0
   11.2952   15.3425   22.7756 C   0  0  0  0  0  0  0  0  0  0  0  0
   10.7483   13.3400   23.1024 C   0  0  0  0  0  0  0  0  0  0  0  0
    7.0726   12.1172   26.1366 C   0  0  0  0  0  0  0  0  0  0  0  0
    7.8304   13.1694   25.3354 C   0  0  0  0  0  0  0  0  0  0  0  0
    7.6301   10.7242   25.8730 C   0  0  0  0  0  0  0  0  0  0  0  0
    7.7772   12.8613   23.8426 C   0  0  0  0  0  0  0  0  0  0  0  0
    8.5157    9.1587   24.1008 C   0  0  0  0  0  0  0  0  0  0  0  0
    7.6308   10.3750   24.3742 C   0  0  2  0  0  0  0  0  0  0  0  0
    8.2682   11.4532   23.4907 C   0  0  2  0  0  0  0  0  0  0  0  0
    9.8707    9.7395   23.6630 C   0  0  2  0  0  0  0  0  0  0  0  0
   11.0053    9.2792   24.5722 C   0  0  0  0  0  0  0  0  0  0  0  0
   11.8075   16.4887   22.0145 C   0  0  0  0  0  0  0  0  0  0  0  0
   10.5581   11.8919   22.7544 C   0  0  0  0  0  0  0  0  0  0  0  0
   10.8495   15.2882   24.0089 N   0  0  0  0  0  0  0  0  0  0  0  0
   10.4899   13.9708   24.2240 N   0  0  0  0  0  0  0  0  0  0  0  0
    9.7029   11.2061   23.7185 N   0  0  1  0  0  0  0  0  0  0  0  0
   11.2631   14.1435   22.1319 O   0  0  0  0  0  0  0  0  0  0  0  0
   14.2728   15.2052   17.3836 H   0  0  0  0  0  0  0  0  0  0  0  0
   15.4570   16.5727   19.0815 H   0  0  0  0  0  0  0  0  0  0  0  0
   11.9558   14.4278   17.8133 H   0  0  0  0  0  0  0  0  0  0  0  0
   14.3332   17.1627   21.2037 H   0  0  0  0  0  0  0  0  0  0  0  0
   10.8234   15.0125   19.9320 H   0  0  0  0  0  0  0  0  0  0  0  0
    7.1431   12.3461   27.2058 H   0  0  0  0  0  0  0  0  0  0  0  0
    6.0086   12.1449   25.8721 H   0  0  0  0  0  0  0  0  0  0  0  0
    7.3925   14.1567   25.5213 H   0  0  0  0  0  0  0  0  0  0  0  0
    8.8730   13.2153   25.6719 H   0  0  0  0  0  0  0  0  0  0  0  0
    8.6453   10.6684   26.2855 H   0  0  0  0  0  0  0  0  0  0  0  0
    7.0358    9.9819   26.4196 H   0  0  0  0  0  0  0  0  0  0  0  0
    6.7358   12.9554   23.5068 H   0  0  0  0  0  0  0  0  0  0  0  0
    8.3405   13.6217   23.2907 H   0  0  0  0  0  0  0  0  0  0  0  0
    8.5828    8.4878   24.9641 H   0  0  0  0  0  0  0  0  0  0  0  0
    8.0885    8.5838   23.2694 H   0  0  0  0  0  0  0  0  0  0  0  0
    6.5987   10.1800   24.0579 H   0  0  0  0  0  0  0  0  0  0  0  0
    8.0201   11.2486   22.4390 H   0  0  0  0  0  0  0  0  0  0  0  0
   10.0720    9.4003   22.6377 H   0  0  0  0  0  0  0  0  0  0  0  0
   10.8193    9.6087   25.5939 H   0  0  0  0  0  0  0  0  0  0  0  0
   11.9497    9.7008   24.2297 H   0  0  0  0  0  0  0  0  0  0  0  0
   11.0755    8.1920   24.5570 H   0  0  0  0  0  0  0  0  0  0  0  0
   12.5159   17.0982   22.6183 H   0  0  0  0  0  0  0  0  0  0  0  0
   11.0007   17.2175   21.7783 H   0  0  0  0  0  0  0  0  0  0  0  0
   10.1000   11.7896   21.7646 H   0  0  0  0  0  0  0  0  0  0  0  0
   11.5179   11.3656   22.7245 H   0  0  0  0  0  0  0  0  0  0  0  0
  1  2  2  0  0  0  0
  1  3  1  0  0  0  0
  2  4  1  0  0  0  0
  3  5  2  0  0  0  0
  4  6  2  0  0  0  0
  5  6  1  0  0  0  0
  6 18  1  0  0  0  0
  7 18  1  0  0  0  0
  7 20  2  0  0  0  0
  7 23  1  0  0  0  0
  8 19  1  0  0  0  0
  8 21  2  0  0  0  0
  8 23  1  0  0  0  0
  9 10  1  0  0  0  0
  9 11  1  0  0  0  0
 10 12  1  0  0  0  0
 11 14  1  0  0  0  0
 12 15  1  0  0  0  0
 13 14  1  0  0  0  0
 13 16  1  0  0  0  0
 14 15  1  0  0  0  0
 15 22  1  0  0  0  0
 16 17  1  0  0  0  0
 16 22  1  0  0  0  0
 19 22  1  0  0  0  0
 20 21  1  0  0  0  0
  1 24  1  0  0  0  0
  2 25  1  0  0  0  0
  3 26  1  0  0  0  0
  4 27  1  0  0  0  0
  5 28  1  0  0  0  0
  9 29  1  0  0  0  0
  9 30  1  0  0  0  0
 10 31  1  0  0  0  0
 10 32  1  0  0  0  0
 11 33  1  0  0  0  0
 11 34  1  0  0  0  0
 12 35  1  0  0  0  0
 12 36  1  0  0  0  0
 13 37  1  0  0  0  0
 13 38  1  0  0  0  0
 14 39  1  0  0  0  0
 15 40  1  0  0  0  0
 16 41  1  0  0  0  0
 17 42  1  0  0  0  0
 17 43  1  0  0  0  0
 17 44  1  0  0  0  0
 18 45  1  0  0  0  0
 18 46  1  0  0  0  0
 19 47  1  0  0  0  0
 19 48  1  0  0  0  0
M  END
> <Catalog ID>
Z1230424803

> <PlateID>
1041831-R-40

> <Well>
H06

> <MW (desalted)>
311.421

> <ClogP>
2.850

> <HBD>
0

> <TPSA>
42.160

> <RotBonds>
4

> <ROCS_ShapeQuery>
A71EV2A-x0451_0A_A71EV2A-x0310_0A_A71EV2A-x0416_0A_peptide

> <ROCS_TanimotoCombo>
0.534 

> <ROCS_ShapeTanimoto>
0.362 

> <ROCS_ColorTanimoto>
0.171 

> <ROCS_RefTversky>
0.318 

> <ROCS_RefColorTversky>
0.187 

> <ROCS_RefTverskyCombo>
0.505 

> <ROCS_FitTversky>
1.634 

> <ROCS_FitColorTversky>
0.667 

> <ROCS_FitTverskyCombo>
2.301 

> <ROCS_ColorScore>
-5.702

> <ROCS_Overlap>
2207.886

> <ROCS_Rank>
191                 

$$$$
untitled-dbase-269_20
  -OEChem-11132311063D

 36 39  0     0  0  0  0  0  0999 V2000
   11.7393    8.1543   20.5278 C   0  0  0  0  0  0  0  0  0  0  0  0
   12.2406    9.2738   21.1919 C   0  0  0  0  0  0  0  0  0  0  0  0
   10.4262    7.7404   20.7517 C   0  0  0  0  0  0  0  0  0  0  0  0
   11.4287    9.9794   22.0800 C   0  0  0  0  0  0  0  0  0  0  0  0
    9.6144    8.4460   21.6398 C   0  0  0  0  0  0  0  0  0  0  0  0
   12.5552   13.7678   21.5609 C   0  0  0  0  0  0  0  0  0  0  0  0
   12.7996   16.1577   21.7381 C   0  0  0  0  0  0  0  0  0  0  0  0
    8.3959   11.8392   24.3861 C   0  0  0  0  0  0  0  0  0  0  0  0
   10.1156    9.5655   22.3039 C   0  0  0  0  0  0  0  0  0  0  0  0
   11.7926   14.3793   22.5339 C   0  0  0  0  0  0  0  0  0  0  0  0
    7.7986   10.5959   24.5907 C   0  0  0  0  0  0  0  0  0  0  0  0
    9.3804   11.6196   23.4694 C   0  0  0  0  0  0  0  0  0  0  0  0
   10.8741   13.6562   23.4300 C   0  0  0  0  0  0  0  0  0  0  0  0
    7.7753   12.8983   25.1959 C   0  0  0  0  0  0  0  0  0  0  0  0
    6.6956   10.6403   25.5642 C   0  0  0  0  0  0  0  0  0  0  0  0
    6.8979   12.0628   26.1935 C   0  0  0  0  0  0  0  0  0  0  0  0
   11.9318   15.7496   22.6372 N   0  0  0  0  0  0  0  0  0  0  0  0
    8.3298    9.6145   23.8752 N   0  0  0  0  0  0  0  0  0  0  0  0
    9.3036   10.2723   23.1929 N   0  0  0  0  0  0  0  0  0  0  0  0
   10.2849   12.4721   22.8963 N   0  0  0  0  0  0  0  0  0  0  0  0
   10.6196   14.0838   24.5540 O   0  0  0  0  0  0  0  0  0  0  0  0
   13.4867   14.9471   20.7344 S   0  0  0  0  0  0  0  0  0  0  0  0
   12.3704    7.6056   19.8349 H   0  0  0  0  0  0  0  0  0  0  0  0
   13.2625    9.5971   21.0167 H   0  0  0  0  0  0  0  0  0  0  0  0
   10.0362    6.8693   20.2331 H   0  0  0  0  0  0  0  0  0  0  0  0
   11.8316   10.8508   22.5905 H   0  0  0  0  0  0  0  0  0  0  0  0
    8.5925    8.1129   21.8045 H   0  0  0  0  0  0  0  0  0  0  0  0
   12.6111   12.7202   21.2998 H   0  0  0  0  0  0  0  0  0  0  0  0
   13.0699   17.1992   21.6310 H   0  0  0  0  0  0  0  0  0  0  0  0
    8.5046   13.5123   25.7309 H   0  0  0  0  0  0  0  0  0  0  0  0
    7.1405   13.5404   24.5772 H   0  0  0  0  0  0  0  0  0  0  0  0
    5.7265   10.5814   25.0587 H   0  0  0  0  0  0  0  0  0  0  0  0
    6.7601    9.8590   26.3258 H   0  0  0  0  0  0  0  0  0  0  0  0
    7.4437   11.9558   27.1404 H   0  0  0  0  0  0  0  0  0  0  0  0
    5.9461   12.5545   26.4184 H   0  0  0  0  0  0  0  0  0  0  0  0
   10.5853   12.2206   21.9349 H   0  0  0  0  0  0  0  0  0  0  0  0
  1  2  2  0  0  0  0
  1  3  1  0  0  0  0
  2  4  1  0  0  0  0
  3  5  2  0  0  0  0
  4  9  2  0  0  0  0
  5  9  1  0  0  0  0
  6 10  2  0  0  0  0
  6 22  1  0  0  0  0
  7 17  2  0  0  0  0
  7 22  1  0  0  0  0
  8 11  1  0  0  0  0
  8 12  2  0  0  0  0
  8 14  1  0  0  0  0
  9 19  1  0  0  0  0
 10 13  1  0  0  0  0
 10 17  1  0  0  0  0
 11 15  1  0  0  0  0
 11 18  2  0  0  0  0
 12 19  1  0  0  0  0
 12 20  1  0  0  0  0
 13 20  1  0  0  0  0
 13 21  2  0  0  0  0
 14 16  1  0  0  0  0
 15 16  1  0  0  0  0
 18 19  1  0  0  0  0
  1 23  1  0  0  0  0
  2 24  1  0  0  0  0
  3 25  1  0  0  0  0
  4 26  1  0  0  0  0
  5 27  1  0  0  0  0
  6 28  1  0  0  0  0
  7 29  1  0  0  0  0
 14 30  1  0  0  0  0
 14 31  1  0  0  0  0
 15 32  1  0  0  0  0
 15 33  1  0  0  0  0
 16 34  1  0  0  0  0
 16 35  1  0  0  0  0
 20 36  1  0  0  0  0
M  END
> <Catalog ID>
Z915509938

> <PlateID>
1041831-R-04

> <Well>
C10

> <MW (desalted)>
310.374

> <ClogP>
3.270

> <HBD>
1

> <TPSA>
59.810

> <RotBonds>
3

> <ROCS_ShapeQuery>
A71EV2A-x0451_0A_A71EV2A-x0310_0A_A71EV2A-x0416_0A_peptide

> <ROCS_TanimotoCombo>
0.533 

> <ROCS_ShapeTanimoto>
0.329 

> <ROCS_ColorTanimoto>
0.204 

> <ROCS_RefTversky>
0.295 

> <ROCS_RefColorTversky>
0.221 

> <ROCS_RefTverskyCombo>
0.516 

> <ROCS_FitTversky>
1.541 

> <ROCS_FitColorTversky>
0.729 

> <ROCS_FitTverskyCombo>
2.269 

> <ROCS_ColorScore>
-6.731

> <ROCS_Overlap>
2051.144

> <ROCS_Rank>
192                 

$$$$
untitled-dbase-1439_3186
  -OEChem-11132311063D

 52 55  0     1  0  0  0  0  0999 V2000
    6.2780   11.8960   25.6405 C   0  0  0  0  0  0  0  0  0  0  0  0
    7.2030   12.9239   25.7844 C   0  0  0  0  0  0  0  0  0  0  0  0
   13.5681   14.9616   18.6885 C   0  0  0  0  0  0  0  0  0  0  0  0
    6.6450   10.7221   24.9862 C   0  0  0  0  0  0  0  0  0  0  0  0
    8.4946   12.7793   25.2746 C   0  0  0  0  0  0  0  0  0  0  0  0
   12.2306   14.7707   19.1101 C   0  0  0  0  0  0  0  0  0  0  0  0
   14.1459   15.7960   19.6169 C   0  0  0  0  0  0  0  0  0  0  0  0
    7.9386   10.5645   24.4693 C   0  0  0  0  0  0  0  0  0  0  0  0
    8.8741   11.6006   24.6134 C   0  0  0  0  0  0  0  0  0  0  0  0
   12.0864   15.5018   20.2663 C   0  0  0  0  0  0  0  0  0  0  0  0
    9.4325    9.2032   23.3417 C   0  0  0  0  0  0  0  0  0  0  0  0
   10.5124   10.2291   23.4313 C   0  0  0  0  0  0  0  0  0  0  0  0
   10.6858   13.7169   23.5315 C   0  0  0  0  0  0  0  0  0  0  0  0
    9.6546   19.3348   19.2626 C   0  0  0  0  0  0  0  0  0  0  0  0
    8.8358   18.0590   19.1023 C   0  0  0  0  0  0  0  0  0  0  0  0
   10.2684   19.4023   20.6564 C   0  0  0  0  0  0  0  0  0  0  0  0
    9.6523   16.8227   19.4826 C   0  0  0  0  0  0  0  0  0  0  0  0
   11.0394   18.1236   20.9876 C   0  0  0  0  0  0  0  0  0  0  0  0
   11.1800   12.4639   24.2081 C   0  0  0  0  0  0  0  0  0  0  0  0
    9.9610   14.5308   21.2895 C   0  0  0  0  0  0  0  0  0  0  0  0
   10.9209   15.7283   21.2135 C   0  0  2  0  0  0  0  0  0  0  0  0
    8.2468    9.3604   23.8213 N   0  0  0  0  0  0  0  0  0  0  0  0
   10.1805   11.4117   24.0785 N   0  0  0  0  0  0  0  0  0  0  0  0
   10.1832   16.9373   20.8482 N   0  0  0  0  0  0  0  0  0  0  0  0
   10.4447   13.5021   22.1820 N   0  0  0  0  0  0  0  0  0  0  0  0
   11.5848    9.9250   22.9244 O   0  0  0  0  0  0  0  0  0  0  0  0
   10.5215   14.7826   24.1195 O   0  0  0  0  0  0  0  0  0  0  0  0
   13.2494   16.1298   20.5820 O   0  0  0  0  0  0  0  0  0  0  0  0
    5.2731   12.0069   26.0367 H   0  0  0  0  0  0  0  0  0  0  0  0
    6.9215   13.8406   26.2944 H   0  0  0  0  0  0  0  0  0  0  0  0
   14.0506   14.5437   17.8168 H   0  0  0  0  0  0  0  0  0  0  0  0
    5.9126    9.9253   24.8785 H   0  0  0  0  0  0  0  0  0  0  0  0
    9.1853   13.6068   25.4089 H   0  0  0  0  0  0  0  0  0  0  0  0
   11.4689   14.1740   18.6287 H   0  0  0  0  0  0  0  0  0  0  0  0
   15.1322   16.2222   19.7272 H   0  0  0  0  0  0  0  0  0  0  0  0
    9.7089    8.2693   22.8265 H   0  0  0  0  0  0  0  0  0  0  0  0
   10.4523   19.3548   18.5099 H   0  0  0  0  0  0  0  0  0  0  0  0
    9.0226   20.2122   19.0866 H   0  0  0  0  0  0  0  0  0  0  0  0
    7.9405   18.1165   19.7345 H   0  0  0  0  0  0  0  0  0  0  0  0
    8.4898   17.9696   18.0662 H   0  0  0  0  0  0  0  0  0  0  0  0
   10.9390   20.2666   20.7232 H   0  0  0  0  0  0  0  0  0  0  0  0
    9.4749   19.5554   21.3989 H   0  0  0  0  0  0  0  0  0  0  0  0
    8.9969   15.9454   19.4109 H   0  0  0  0  0  0  0  0  0  0  0  0
   10.4652   16.6810   18.7570 H   0  0  0  0  0  0  0  0  0  0  0  0
   11.9225   18.0477   20.3383 H   0  0  0  0  0  0  0  0  0  0  0  0
   11.4018   18.2013   22.0205 H   0  0  0  0  0  0  0  0  0  0  0  0
   12.1120   12.1350   23.7391 H   0  0  0  0  0  0  0  0  0  0  0  0
   11.3584   12.6611   25.2692 H   0  0  0  0  0  0  0  0  0  0  0  0
    8.9852   14.8435   21.6785 H   0  0  0  0  0  0  0  0  0  0  0  0
    9.7942   14.0643   20.3128 H   0  0  0  0  0  0  0  0  0  0  0  0
   11.3237   15.8971   22.2208 H   0  0  0  0  0  0  0  0  0  0  0  0
   10.6169   12.5757   21.8025 H   0  0  0  0  0  0  0  0  0  0  0  0
  1  2  2  0  0  0  0
  1  4  1  0  0  0  0
  2  5  1  0  0  0  0
  3  6  1  0  0  0  0
  3  7  2  0  0  0  0
  4  8  2  0  0  0  0
  5  9  2  0  0  0  0
  6 10  2  0  0  0  0
  7 28  1  0  0  0  0
  8  9  1  0  0  0  0
  8 22  1  0  0  0  0
  9 23  1  0  0  0  0
 10 21  1  0  0  0  0
 10 28  1  0  0  0  0
 11 12  1  0  0  0  0
 11 22  2  0  0  0  0
 12 23  1  0  0  0  0
 12 26  2  0  0  0  0
 13 19  1  0  0  0  0
 13 25  1  0  0  0  0
 13 27  2  0  0  0  0
 14 15  1  0  0  0  0
 14 16  1  0  0  0  0
 15 17  1  0  0  0  0
 16 18  1  0  0  0  0
 17 24  1  0  0  0  0
 18 24  1  0  0  0  0
 19 23  1  0  0  0  0
 20 21  1  0  0  0  0
 20 25  1  0  0  0  0
 21 24  1  0  0  0  0
  1 29  1  0  0  0  0
  2 30  1  0  0  0  0
  3 31  1  0  0  0  0
  4 32  1  0  0  0  0
  5 33  1  0  0  0  0
  6 34  1  0  0  0  0
  7 35  1  0  0  0  0
 11 36  1  0  0  0  0
 14 37  1  0  0  0  0
 14 38  1  0  0  0  0
 15 39  1  0  0  0  0
 15 40  1  0  0  0  0
 16 41  1  0  0  0  0
 16 42  1  0  0  0  0
 17 43  1  0  0  0  0
 17 44  1  0  0  0  0
 18 45  1  0  0  0  0
 18 46  1  0  0  0  0
 19 47  1  0  0  0  0
 19 48  1  0  0  0  0
 20 49  1  0  0  0  0
 20 50  1  0  0  0  0
 21 51  1  0  0  0  0
 25 52  1  0  0  0  0
M  END
> <Catalog ID>
Z26995778

> <PlateID>
1041831-R-18

> <Well>
H10

> <MW (desalted)>
380.440

> <ClogP>
2.488

> <HBD>
1

> <TPSA>
78.150

> <RotBonds>
6

> <ROCS_ShapeQuery>
A71EV2A-x0451_0A_A71EV2A-x0310_0A_A71EV2A-x0416_0A_peptide

> <ROCS_TanimotoCombo>
0.533 

> <ROCS_ShapeTanimoto>
0.350 

> <ROCS_ColorTanimoto>
0.183 

> <ROCS_RefTversky>
0.318 

> <ROCS_RefColorTversky>
0.211 

> <ROCS_RefTverskyCombo>
0.529 

> <ROCS_FitTversky>
1.402 

> <ROCS_FitColorTversky>
0.582 

> <ROCS_FitTverskyCombo>
1.984 

> <ROCS_ColorScore>
-6.460

> <ROCS_Overlap>
2213.250

> <ROCS_Rank>
193                 

$$$$
untitled-dbase-927_1817
  -OEChem-11132311063D

 42 45  0     1  0  0  0  0  0999 V2000
   16.3690   17.2891   21.1140 C   0  0  0  0  0  0  0  0  0  0  0  0
   16.3744   18.2924   20.1470 C   0  0  0  0  0  0  0  0  0  0  0  0
   15.3895   16.2894   21.1036 C   0  0  0  0  0  0  0  0  0  0  0  0
   10.1924   10.9980   23.1731 C   0  0  0  0  0  0  0  0  0  0  0  0
   15.4044   18.3293   19.1413 C   0  0  0  0  0  0  0  0  0  0  0  0
    9.4805    9.8216   23.4194 C   0  0  0  0  0  0  0  0  0  0  0  0
    8.5409   12.3040   24.3959 C   0  0  0  0  0  0  0  0  0  0  0  0
   12.6744   15.9957   18.6741 C   0  0  0  0  0  0  0  0  0  0  0  0
   14.4013   16.3060   20.0994 C   0  0  0  0  0  0  0  0  0  0  0  0
    9.7253   12.2321   23.6587 C   0  0  0  0  0  0  0  0  0  0  0  0
   13.2876   15.4757   19.7906 C   0  0  0  0  0  0  0  0  0  0  0  0
   14.4314   17.3235   19.1433 C   0  0  0  0  0  0  0  0  0  0  0  0
    8.3141    9.9200   24.1498 C   0  0  0  0  0  0  0  0  0  0  0  0
    7.8569   11.1279   24.6251 C   0  0  0  0  0  0  0  0  0  0  0  0
   10.4990   13.4703   23.3839 C   0  0  0  0  0  0  0  0  0  0  0  0
   13.0716   14.9497   22.9572 C   0  0  0  0  0  0  0  0  0  0  0  0
    6.4681    9.5816   25.2268 C   0  0  0  0  0  0  0  0  0  0  0  0
   12.8566   14.2713   20.5291 C   0  0  0  0  0  0  0  0  0  0  0  0
   12.1025   14.5743   21.8458 C   0  0  1  0  0  0  0  0  0  0  0  0
   13.3717   17.1099   18.2909 N   0  0  0  0  0  0  0  0  0  0  0  0
   11.2771   13.4584   22.2348 N   0  0  0  0  0  0  0  0  0  0  0  0
   10.4306   14.4083   24.1739 O   0  0  0  0  0  0  0  0  0  0  0  0
   13.4113   16.1063   23.1842 O   0  0  0  0  0  0  0  0  0  0  0  0
    7.4935    8.8880   24.4868 O   0  0  0  0  0  0  0  0  0  0  0  0
    6.6928   11.0033   25.3189 O   0  0  0  0  0  0  0  0  0  0  0  0
   13.5305   13.9059   23.6884 O   0  0  0  0  0  0  0  0  0  0  0  0
   17.1341   17.2812   21.8857 H   0  0  0  0  0  0  0  0  0  0  0  0
   17.1445   19.0590   20.1741 H   0  0  0  0  0  0  0  0  0  0  0  0
   15.3995   15.5136   21.8639 H   0  0  0  0  0  0  0  0  0  0  0  0
   11.1151   10.9491   22.5999 H   0  0  0  0  0  0  0  0  0  0  0  0
   15.4087   19.1113   18.3896 H   0  0  0  0  0  0  0  0  0  0  0  0
    9.8365    8.8679   23.0468 H   0  0  0  0  0  0  0  0  0  0  0  0
    8.1675   13.2487   24.7775 H   0  0  0  0  0  0  0  0  0  0  0  0
   11.8059   15.6730   18.1166 H   0  0  0  0  0  0  0  0  0  0  0  0
    5.5034    9.4096   24.7357 H   0  0  0  0  0  0  0  0  0  0  0  0
    6.4260    9.1669   26.2405 H   0  0  0  0  0  0  0  0  0  0  0  0
   13.7380   13.6384   20.7573 H   0  0  0  0  0  0  0  0  0  0  0  0
   12.2184   13.6179   19.8982 H   0  0  0  0  0  0  0  0  0  0  0  0
   11.4221   15.4238   21.7156 H   0  0  0  0  0  0  0  0  0  0  0  0
   13.1423   17.6921   17.4972 H   0  0  0  0  0  0  0  0  0  0  0  0
   11.3298   12.6193   21.6635 H   0  0  0  0  0  0  0  0  0  0  0  0
   13.1892   13.0289   23.4138 H   0  0  0  0  0  0  0  0  0  0  0  0
  1  2  2  0  0  0  0
  1  3  1  0  0  0  0
  2  5  1  0  0  0  0
  3  9  2  0  0  0  0
  4  6  1  0  0  0  0
  4 10  2  0  0  0  0
  5 12  2  0  0  0  0
  6 13  2  0  0  0  0
  7 10  1  0  0  0  0
  7 14  2  0  0  0  0
  8 11  2  0  0  0  0
  8 20  1  0  0  0  0
  9 11  1  0  0  0  0
  9 12  1  0  0  0  0
 10 15  1  0  0  0  0
 11 18  1  0  0  0  0
 12 20  1  0  0  0  0
 13 14  1  0  0  0  0
 13 24  1  0  0  0  0
 14 25  1  0  0  0  0
 15 21  1  0  0  0  0
 15 22  2  0  0  0  0
 16 19  1  0  0  0  0
 16 23  2  0  0  0  0
 16 26  1  0  0  0  0
 17 24  1  0  0  0  0
 17 25  1  0  0  0  0
 18 19  1  0  0  0  0
 19 21  1  0  0  0  0
  1 27  1  0  0  0  0
  2 28  1  0  0  0  0
  3 29  1  0  0  0  0
  4 30  1  0  0  0  0
  5 31  1  0  0  0  0
  6 32  1  0  0  0  0
  7 33  1  0  0  0  0
  8 34  1  0  0  0  0
 17 35  1  0  0  0  0
 17 36  1  0  0  0  0
 18 37  1  0  0  0  0
 18 38  1  0  0  0  0
 19 39  1  0  0  0  0
 20 40  1  0  0  0  0
 21 41  1  0  0  0  0
 26 42  1  0  0  0  0
M  END
> <Catalog ID>
Z85881817

> <PlateID>
1041831-R-12

> <Well>
E08

> <MW (desalted)>
352.341

> <ClogP>
2.557

> <HBD>
3

> <TPSA>
100.650

> <RotBonds>
5

> <ROCS_ShapeQuery>
A71EV2A-x0451_0A_A71EV2A-x0310_0A_A71EV2A-x0416_0A_peptide

> <ROCS_TanimotoCombo>
0.533 

> <ROCS_ShapeTanimoto>
0.334 

> <ROCS_ColorTanimoto>
0.199 

> <ROCS_RefTversky>
0.305 

> <ROCS_RefColorTversky>
0.237 

> <ROCS_RefTverskyCombo>
0.542 

> <ROCS_FitTversky>
1.399 

> <ROCS_FitColorTversky>
0.558 

> <ROCS_FitTverskyCombo>
1.957 

> <ROCS_ColorScore>
-7.274

> <ROCS_Overlap>
2120.339

> <ROCS_Rank>
194                 

$$$$
untitled-dbase-2365_7736
  -OEChem-11132311063D

 42 44  0     1  0  0  0  0  0999 V2000
   14.3706   16.3504   20.3187 C   0  0  0  0  0  0  0  0  0  0  0  0
   13.2396   15.9942   21.0449 C   0  0  0  0  0  0  0  0  0  0  0  0
   14.3519   16.1473   18.9482 C   0  0  0  0  0  0  0  0  0  0  0  0
   12.2211   15.2908   19.0141 C   0  0  0  0  0  0  0  0  0  0  0  0
   12.1400   15.4535   20.3877 C   0  0  0  0  0  0  0  0  0  0  0  0
   10.9603   13.7317   23.2524 C   0  0  0  0  0  0  0  0  0  0  0  0
    8.4684   11.4902   25.7875 C   0  0  0  0  0  0  0  0  0  0  0  0
   10.4313   10.0379   23.5517 C   0  0  0  0  0  0  0  0  0  0  0  0
    8.8483   11.8761   23.2632 C   0  0  0  0  0  0  0  0  0  0  0  0
    7.2276   11.1242   26.5795 C   0  0  0  0  0  0  0  0  0  0  0  0
    9.1507    9.2340   23.3687 C   0  0  0  0  0  0  0  0  0  0  0  0
    6.5926   11.5619   24.3808 C   0  0  0  0  0  0  0  0  0  0  0  0
    8.0623   11.1473   24.3623 C   0  0  2  0  0  0  0  0  0  0  0  0
   10.9039   15.0596   21.1435 C   0  0  0  0  0  0  0  0  0  0  0  0
   11.2031   12.3234   23.7318 C   0  0  0  0  0  0  0  0  0  0  0  0
   13.3025   15.6248   18.2748 N   0  0  0  0  0  0  0  0  0  0  0  0
   10.2359   11.4236   23.1157 N   0  0  1  0  0  0  0  0  0  0  0  0
   11.0867   13.8260   21.8738 N   0  0  0  0  0  0  0  0  0  0  0  0
   10.6840   14.6632   24.0037 O   0  0  0  0  0  0  0  0  0  0  0  0
    6.1056   11.3208   25.7115 O   0  0  0  0  0  0  0  0  0  0  0  0
    8.0975    9.7193   24.2008 O   0  0  0  0  0  0  0  0  0  0  0  0
   15.2392   16.7738   20.8099 H   0  0  0  0  0  0  0  0  0  0  0  0
   13.2239   16.1416   22.1214 H   0  0  0  0  0  0  0  0  0  0  0  0
   15.2096   16.4083   18.3370 H   0  0  0  0  0  0  0  0  0  0  0  0
   11.3944   14.8740   18.4471 H   0  0  0  0  0  0  0  0  0  0  0  0
    8.6527   12.5693   25.8820 H   0  0  0  0  0  0  0  0  0  0  0  0
    9.3494   10.9659   26.1698 H   0  0  0  0  0  0  0  0  0  0  0  0
   10.7201   10.0067   24.6121 H   0  0  0  0  0  0  0  0  0  0  0  0
   11.2429    9.5667   22.9753 H   0  0  0  0  0  0  0  0  0  0  0  0
    8.3123   11.7575   22.2921 H   0  0  0  0  0  0  0  0  0  0  0  0
    8.8340   12.9706   23.4697 H   0  0  0  0  0  0  0  0  0  0  0  0
    7.2415   10.0699   26.8781 H   0  0  0  0  0  0  0  0  0  0  0  0
    7.1104   11.7374   27.4784 H   0  0  0  0  0  0  0  0  0  0  0  0
    8.8098    9.3195   22.3295 H   0  0  0  0  0  0  0  0  0  0  0  0
    9.3151    8.1655   23.5563 H   0  0  0  0  0  0  0  0  0  0  0  0
    6.4636   12.6323   24.1794 H   0  0  0  0  0  0  0  0  0  0  0  0
    5.9750   10.9916   23.6780 H   0  0  0  0  0  0  0  0  0  0  0  0
   10.6258   15.8387   21.8616 H   0  0  0  0  0  0  0  0  0  0  0  0
   10.0549   14.9245   20.4652 H   0  0  0  0  0  0  0  0  0  0  0  0
   12.2140   12.0093   23.4556 H   0  0  0  0  0  0  0  0  0  0  0  0
   11.0940   12.2778   24.8193 H   0  0  0  0  0  0  0  0  0  0  0  0
   11.3194   12.9860   21.3519 H   0  0  0  0  0  0  0  0  0  0  0  0
  1  2  1  0  0  0  0
  1  3  2  0  0  0  0
  2  5  2  0  0  0  0
  3 16  1  0  0  0  0
  4  5  1  0  0  0  0
  4 16  2  0  0  0  0
  5 14  1  0  0  0  0
  6 15  1  0  0  0  0
  6 18  1  0  0  0  0
  6 19  2  0  0  0  0
  7 10  1  0  0  0  0
  7 13  1  0  0  0  0
  8 11  1  0  0  0  0
  8 17  1  0  0  0  0
  9 13  1  0  0  0  0
  9 17  1  0  0  0  0
 10 20  1  0  0  0  0
 11 21  1  0  0  0  0
 12 13  1  0  0  0  0
 12 20  1  0  0  0  0
 13 21  1  0  0  0  0
 14 18  1  0  0  0  0
 15 17  1  0  0  0  0
  1 22  1  0  0  0  0
  2 23  1  0  0  0  0
  3 24  1  0  0  0  0
  4 25  1  0  0  0  0
  7 26  1  0  0  0  0
  7 27  1  0  0  0  0
  8 28  1  0  0  0  0
  8 29  1  0  0  0  0
  9 30  1  0  0  0  0
  9 31  1  0  0  0  0
 10 32  1  0  0  0  0
 10 33  1  0  0  0  0
 11 34  1  0  0  0  0
 11 35  1  0  0  0  0
 12 36  1  0  0  0  0
 12 37  1  0  0  0  0
 14 38  1  0  0  0  0
 14 39  1  0  0  0  0
 15 40  1  0  0  0  0
 15 41  1  0  0  0  0
 18 42  1  0  0  0  0
M  END
> <Catalog ID>
Z1708821187

> <PlateID>
1041831-R-30

> <Well>
E06

> <MW (desalted)>
291.346

> <ClogP>
-0.491

> <HBD>
1

> <TPSA>
63.690

> <RotBonds>
4

> <ROCS_ShapeQuery>
A71EV2A-x0451_0A_A71EV2A-x0310_0A_A71EV2A-x0416_0A_peptide

> <ROCS_TanimotoCombo>
0.533 

> <ROCS_ShapeTanimoto>
0.343 

> <ROCS_ColorTanimoto>
0.190 

> <ROCS_RefTversky>
0.302 

> <ROCS_RefColorTversky>
0.212 

> <ROCS_RefTverskyCombo>
0.514 

> <ROCS_FitTversky>
1.668 

> <ROCS_FitColorTversky>
0.640 

> <ROCS_FitTverskyCombo>
2.308 

> <ROCS_ColorScore>
-6.493

> <ROCS_Overlap>
2095.382

> <ROCS_Rank>
195                 

$$$$
untitled-dbase-1477_2596
  -OEChem-11132311063D

 45 48  0     1  0  0  0  0  0999 V2000
    9.2400   10.5453   23.1950 C   0  0  0  0  0  0  0  0  0  0  0  0
    9.0511   12.6764   24.3173 C   0  0  0  0  0  0  0  0  0  0  0  0
    8.1536   10.0642   23.9257 C   0  0  0  0  0  0  0  0  0  0  0  0
    7.9647   12.1954   25.0479 C   0  0  0  0  0  0  0  0  0  0  0  0
    4.6734   12.9248   28.2083 C   0  0  0  0  0  0  0  0  0  0  0  0
    6.0459   12.8265   28.1455 C   0  0  0  0  0  0  0  0  0  0  0  0
    4.4861   11.3772   26.5351 C   0  0  0  0  0  0  0  0  0  0  0  0
    9.6888   11.8514   23.3908 C   0  0  0  0  0  0  0  0  0  0  0  0
    7.5159   10.8892   24.8521 C   0  0  0  0  0  0  0  0  0  0  0  0
    5.8586   11.2794   26.4718 C   0  0  0  0  0  0  0  0  0  0  0  0
   11.3658   13.6055   22.7181 C   0  0  0  0  0  0  0  0  0  0  0  0
   12.9649   17.2404   19.2054 C   0  0  0  0  0  0  0  0  0  0  0  0
   14.1937   16.7089   19.9586 C   0  0  0  0  0  0  0  0  0  0  0  0
   13.1434   14.8938   18.8490 C   0  0  0  0  0  0  0  0  0  0  0  0
   11.4879   15.6045   20.4029 C   0  0  0  0  0  0  0  0  0  0  0  0
   12.0918   15.9851   19.0388 C   0  0  1  0  0  0  0  0  0  0  0  0
   13.8552   15.2203   20.1638 C   0  0  2  0  0  0  0  0  0  0  0  0
   12.7151   15.1214   21.2057 C   0  0  2  0  0  0  0  0  0  0  0  0
   12.5308   13.7087   21.7489 C   0  0  0  0  0  0  0  0  0  0  0  0
    3.8688   12.2018   27.4043 N   0  0  0  0  0  0  0  0  0  0  0  0
    6.6632   12.0021   27.2761 N   0  0  0  0  0  0  0  0  0  0  0  0
   10.7911   12.3396   22.6496 N   0  0  0  0  0  0  0  0  0  0  0  0
   11.0262   14.5408   23.4354 O   0  0  0  0  0  0  0  0  0  0  0  0
    6.4558   10.4198   25.5651 O   0  0  0  0  0  0  0  0  0  0  0  0
    9.7294    9.8936   22.4756 H   0  0  0  0  0  0  0  0  0  0  0  0
    9.3922   13.6960   24.4783 H   0  0  0  0  0  0  0  0  0  0  0  0
    7.8087    9.0458   23.7687 H   0  0  0  0  0  0  0  0  0  0  0  0
    7.4720   12.8428   25.7683 H   0  0  0  0  0  0  0  0  0  0  0  0
    4.1784   13.5882   28.9068 H   0  0  0  0  0  0  0  0  0  0  0  0
    6.6910   13.4086   28.7921 H   0  0  0  0  0  0  0  0  0  0  0  0
    3.8347   10.7975   25.8918 H   0  0  0  0  0  0  0  0  0  0  0  0
   12.4553   18.0357   19.7583 H   0  0  0  0  0  0  0  0  0  0  0  0
   13.2655   17.6395   18.2301 H   0  0  0  0  0  0  0  0  0  0  0  0
   15.0919   16.8214   19.3405 H   0  0  0  0  0  0  0  0  0  0  0  0
   14.3613   17.2395   20.9010 H   0  0  0  0  0  0  0  0  0  0  0  0
   12.7195   13.8856   18.8158 H   0  0  0  0  0  0  0  0  0  0  0  0
   13.7738   15.0516   17.9673 H   0  0  0  0  0  0  0  0  0  0  0  0
   10.9972   16.4553   20.8870 H   0  0  0  0  0  0  0  0  0  0  0  0
   10.7446   14.8079   20.2828 H   0  0  0  0  0  0  0  0  0  0  0  0
   11.3505   16.0701   18.2418 H   0  0  0  0  0  0  0  0  0  0  0  0
   14.7288   14.6055   20.3911 H   0  0  0  0  0  0  0  0  0  0  0  0
   12.9038   15.7908   22.0537 H   0  0  0  0  0  0  0  0  0  0  0  0
   13.4454   13.4000   22.2636 H   0  0  0  0  0  0  0  0  0  0  0  0
   12.3568   13.0230   20.9146 H   0  0  0  0  0  0  0  0  0  0  0  0
   11.2018   11.6779   21.9942 H   0  0  0  0  0  0  0  0  0  0  0  0
  1  3  1  0  0  0  0
  1  8  2  0  0  0  0
  2  4  2  0  0  0  0
  2  8  1  0  0  0  0
  3  9  2  0  0  0  0
  4  9  1  0  0  0  0
  5  6  1  0  0  0  0
  5 20  2  0  0  0  0
  6 21  2  0  0  0  0
  7 10  2  0  0  0  0
  7 20  1  0  0  0  0
  8 22  1  0  0  0  0
  9 24  1  0  0  0  0
 10 21  1  0  0  0  0
 10 24  1  0  0  0  0
 11 19  1  0  0  0  0
 11 22  1  0  0  0  0
 11 23  2  0  0  0  0
 12 13  1  0  0  0  0
 12 16  1  0  0  0  0
 13 17  1  0  0  0  0
 14 16  1  0  0  0  0
 14 17  1  0  0  0  0
 15 16  1  0  0  0  0
 15 18  1  0  0  0  0
 17 18  1  0  0  0  0
 18 19  1  0  0  0  0
  1 25  1  0  0  0  0
  2 26  1  0  0  0  0
  3 27  1  0  0  0  0
  4 28  1  0  0  0  0
  5 29  1  0  0  0  0
  6 30  1  0  0  0  0
  7 31  1  0  0  0  0
 12 32  1  0  0  0  0
 12 33  1  0  0  0  0
 13 34  1  0  0  0  0
 13 35  1  0  0  0  0
 14 36  1  0  0  0  0
 14 37  1  0  0  0  0
 15 38  1  0  0  0  0
 15 39  1  0  0  0  0
 16 40  1  0  0  0  0
 17 41  1  0  0  0  0
 18 42  1  0  0  0  0
 19 43  1  0  0  0  0
 19 44  1  0  0  0  0
 22 45  1  0  0  0  0
M  END
> <Catalog ID>
Z422269110

> <PlateID>
1041831-R-19

> <Well>
D08

> <MW (desalted)>
323.389

> <ClogP>
3.730

> <HBD>
1

> <TPSA>
64.110

> <RotBonds>
5

> <ROCS_ShapeQuery>
A71EV2A-x0451_0A_A71EV2A-x0310_0A_A71EV2A-x0416_0A_peptide

> <ROCS_TanimotoCombo>
0.533 

> <ROCS_ShapeTanimoto>
0.337 

> <ROCS_ColorTanimoto>
0.196 

> <ROCS_RefTversky>
0.303 

> <ROCS_RefColorTversky>
0.240 

> <ROCS_RefTverskyCombo>
0.543 

> <ROCS_FitTversky>
1.495 

> <ROCS_FitColorTversky>
0.518 

> <ROCS_FitTverskyCombo>
2.012 

> <ROCS_ColorScore>
-7.374

> <ROCS_Overlap>
2108.584

> <ROCS_Rank>
196                 

$$$$
untitled-dbase-2842_11
  -OEChem-11132311063D

 51 54  0     1  0  0  0  0  0999 V2000
   11.4256   13.8926   21.7649 C   0  0  0  0  0  0  0  0  0  0  0  0
   11.2749   15.3784   23.9964 C   0  0  0  0  0  0  0  0  0  0  0  0
   12.0309   15.1285   21.8673 C   0  0  0  0  0  0  0  0  0  0  0  0
   10.7379   13.4701   22.8843 C   0  0  0  0  0  0  0  0  0  0  0  0
    7.2189   11.8773   25.2360 C   0  0  0  0  0  0  0  0  0  0  0  0
    7.0363   10.3663   25.1916 C   0  0  0  0  0  0  0  0  0  0  0  0
   10.2607    8.0171   23.2019 C   0  0  0  0  0  0  0  0  0  0  0  0
    8.9977    8.1825   22.3588 C   0  0  0  0  0  0  0  0  0  0  0  0
    8.0153   12.3860   24.0393 C   0  0  0  0  0  0  0  0  0  0  0  0
    8.3708    9.6375   25.0359 C   0  0  0  0  0  0  0  0  0  0  0  0
   10.5616    9.3947   23.7885 C   0  0  0  0  0  0  0  0  0  0  0  0
    8.5902    9.6499   22.4854 C   0  0  0  0  0  0  0  0  0  0  0  0
   13.8873   16.4802   20.9831 C   0  0  0  0  0  0  0  0  0  0  0  0
   12.0457   15.7866   19.4753 C   0  0  0  0  0  0  0  0  0  0  0  0
   14.8037   16.4609   19.7650 C   0  0  0  0  0  0  0  0  0  0  0  0
   13.0603   15.8049   18.3374 C   0  0  0  0  0  0  0  0  0  0  0  0
    9.3657   11.6692   23.9176 C   0  0  1  0  0  0  0  0  0  0  0  0
    9.2041   10.1283   23.8184 C   0  0  0  0  0  0  0  0  0  0  0  0
   11.9756   15.9010   22.9720 N   0  0  0  0  0  0  0  0  0  0  0  0
   10.6419   14.1900   24.0213 N   0  0  0  0  0  0  0  0  0  0  0  0
   12.7384   15.5934   20.7539 N   0  0  0  0  0  0  0  0  0  0  0  0
   10.1178   12.2378   22.8222 N   0  0  0  0  0  0  0  0  0  0  0  0
   14.0701   16.7829   18.5835 O   0  0  0  0  0  0  0  0  0  0  0  0
   11.4863   13.2927   20.8640 H   0  0  0  0  0  0  0  0  0  0  0  0
   11.2140   15.9779   24.8964 H   0  0  0  0  0  0  0  0  0  0  0  0
    6.2379   12.3653   25.2731 H   0  0  0  0  0  0  0  0  0  0  0  0
    7.7365   12.1540   26.1621 H   0  0  0  0  0  0  0  0  0  0  0  0
    6.5322   10.0315   26.1034 H   0  0  0  0  0  0  0  0  0  0  0  0
    6.3790   10.1030   24.3570 H   0  0  0  0  0  0  0  0  0  0  0  0
   10.0858    7.2873   24.0004 H   0  0  0  0  0  0  0  0  0  0  0  0
   11.1014    7.6501   22.6043 H   0  0  0  0  0  0  0  0  0  0  0  0
    9.1683    7.9071   21.3126 H   0  0  0  0  0  0  0  0  0  0  0  0
    8.2047    7.5292   22.7411 H   0  0  0  0  0  0  0  0  0  0  0  0
    7.4332   12.2504   23.1246 H   0  0  0  0  0  0  0  0  0  0  0  0
    8.1828   13.4605   24.1483 H   0  0  0  0  0  0  0  0  0  0  0  0
    8.9354    9.7408   25.9701 H   0  0  0  0  0  0  0  0  0  0  0  0
    8.1692    8.5636   24.9258 H   0  0  0  0  0  0  0  0  0  0  0  0
   11.0465    9.3158   24.7646 H   0  0  0  0  0  0  0  0  0  0  0  0
   11.2617    9.9137   23.1219 H   0  0  0  0  0  0  0  0  0  0  0  0
    9.0169   10.2106   21.6449 H   0  0  0  0  0  0  0  0  0  0  0  0
    7.5035    9.7682   22.4440 H   0  0  0  0  0  0  0  0  0  0  0  0
   14.4523   16.1708   21.8745 H   0  0  0  0  0  0  0  0  0  0  0  0
   13.5216   17.5042   21.1551 H   0  0  0  0  0  0  0  0  0  0  0  0
   11.5018   16.7436   19.5018 H   0  0  0  0  0  0  0  0  0  0  0  0
   11.3097   14.9884   19.3002 H   0  0  0  0  0  0  0  0  0  0  0  0
   15.5913   17.2121   19.8825 H   0  0  0  0  0  0  0  0  0  0  0  0
   15.2932   15.4870   19.6447 H   0  0  0  0  0  0  0  0  0  0  0  0
   13.5227   14.8206   18.1946 H   0  0  0  0  0  0  0  0  0  0  0  0
   12.5600   16.0717   17.4009 H   0  0  0  0  0  0  0  0  0  0  0  0
    9.9358   11.9109   24.8448 H   0  0  0  0  0  0  0  0  0  0  0  0
   10.1887   11.6975   21.9720 H   0  0  0  0  0  0  0  0  0  0  0  0
  1  3  1  0  0  0  0
  1  4  2  0  0  0  0
  2 19  1  0  0  0  0
  2 20  2  0  0  0  0
  3 19  2  0  0  0  0
  3 21  1  0  0  0  0
  4 20  1  0  0  0  0
  4 22  1  0  0  0  0
  5  6  1  0  0  0  0
  5  9  1  0  0  0  0
  6 10  1  0  0  0  0
  7  8  1  0  0  0  0
  7 11  1  0  0  0  0
  8 12  1  0  0  0  0
  9 17  1  0  0  0  0
 10 18  1  0  0  0  0
 11 18  1  0  0  0  0
 12 18  1  0  0  0  0
 13 15  1  0  0  0  0
 13 21  1  0  0  0  0
 14 16  1  0  0  0  0
 14 21  1  0  0  0  0
 15 23  1  0  0  0  0
 16 23  1  0  0  0  0
 17 18  1  0  0  0  0
 17 22  1  0  0  0  0
  1 24  1  0  0  0  0
  2 25  1  0  0  0  0
  5 26  1  0  0  0  0
  5 27  1  0  0  0  0
  6 28  1  0  0  0  0
  6 29  1  0  0  0  0
  7 30  1  0  0  0  0
  7 31  1  0  0  0  0
  8 32  1  0  0  0  0
  8 33  1  0  0  0  0
  9 34  1  0  0  0  0
  9 35  1  0  0  0  0
 10 36  1  0  0  0  0
 10 37  1  0  0  0  0
 11 38  1  0  0  0  0
 11 39  1  0  0  0  0
 12 40  1  0  0  0  0
 12 41  1  0  0  0  0
 13 42  1  0  0  0  0
 13 43  1  0  0  0  0
 14 44  1  0  0  0  0
 14 45  1  0  0  0  0
 15 46  1  0  0  0  0
 15 47  1  0  0  0  0
 16 48  1  0  0  0  0
 16 49  1  0  0  0  0
 17 50  1  0  0  0  0
 22 51  1  0  0  0  0
M  END
> <Catalog ID>
Z2185980256

> <PlateID>
1041831-R-36

> <Well>
E03

> <MW (desalted)>
316.441

> <ClogP>
4.159

> <HBD>
1

> <TPSA>
50.280

> <RotBonds>
3

> <ROCS_ShapeQuery>
A71EV2A-x0451_0A_A71EV2A-x0310_0A_A71EV2A-x0416_0A_peptide

> <ROCS_TanimotoCombo>
0.533 

> <ROCS_ShapeTanimoto>
0.359 

> <ROCS_ColorTanimoto>
0.174 

> <ROCS_RefTversky>
0.315 

> <ROCS_RefColorTversky>
0.192 

> <ROCS_RefTverskyCombo>
0.508 

> <ROCS_FitTversky>
1.630 

> <ROCS_FitColorTversky>
0.639 

> <ROCS_FitTverskyCombo>
2.269 

> <ROCS_ColorScore>
-5.875

> <ROCS_Overlap>
2191.890

> <ROCS_Rank>
197                 

$$$$
untitled-dbase-1900_1179
  -OEChem-11132311063D

 47 51  0     1  0  0  0  0  0999 V2000
   12.6757   16.5235   21.5754 C   0  0  0  0  0  0  0  0  0  0  0  0
   11.4716   14.7327   21.9229 C   0  0  0  0  0  0  0  0  0  0  0  0
   13.4703   17.4027   20.7880 C   0  0  0  0  0  0  0  0  0  0  0  0
   13.7114   17.0980   19.4975 C   0  0  0  0  0  0  0  0  0  0  0  0
   13.1779   15.8881   18.8870 C   0  0  0  0  0  0  0  0  0  0  0  0
   12.4276   15.0572   19.6297 C   0  0  0  0  0  0  0  0  0  0  0  0
    8.3295    8.1550   21.8346 C   0  0  0  0  0  0  0  0  0  0  0  0
    9.5701    7.6804   22.5904 C   0  0  0  0  0  0  0  0  0  0  0  0
    7.5574    9.0149   22.8264 C   0  0  0  0  0  0  0  0  0  0  0  0
    9.7008    8.5717   23.8296 C   0  0  0  0  0  0  0  0  0  0  0  0
    8.0836   12.8354   24.5412 C   0  0  0  0  0  0  0  0  0  0  0  0
    6.9172   12.2764   25.3527 C   0  0  0  0  0  0  0  0  0  0  0  0
    9.0876   11.6896   24.4015 C   0  0  2  0  0  0  0  0  0  0  0  0
    9.1942   11.0319   22.9998 C   0  0  2  0  0  0  0  0  0  0  0  0
    8.2865   10.4695   24.8916 C   0  0  2  0  0  0  0  0  0  0  0  0
    8.6760    9.6911   23.6147 C   0  0  0  0  0  0  0  0  0  0  0  0
   10.7561   13.4246   21.6906 C   0  0  0  0  0  0  0  0  0  0  0  0
   11.2344   12.3111   22.6192 C   0  0  0  0  0  0  0  0  0  0  0  0
   12.2741   16.5451   22.8285 N   0  0  0  0  0  0  0  0  0  0  0  0
   11.5136   15.4133   23.0467 N   0  0  0  0  0  0  0  0  0  0  0  0
   12.1863   15.3830   20.9582 N   0  0  0  0  0  0  0  0  0  0  0  0
   10.5569   11.0456   22.3698 N   0  0  0  0  0  0  0  0  0  0  0  0
    6.9124   10.8756   25.0696 O   0  0  0  0  0  0  0  0  0  0  0  0
   13.8709   18.3062   21.2335 H   0  0  0  0  0  0  0  0  0  0  0  0
   14.3132   17.7524   18.8761 H   0  0  0  0  0  0  0  0  0  0  0  0
   13.3997   15.6840   17.8466 H   0  0  0  0  0  0  0  0  0  0  0  0
   12.0029   14.1422   19.2358 H   0  0  0  0  0  0  0  0  0  0  0  0
    8.5871    8.7058   20.9173 H   0  0  0  0  0  0  0  0  0  0  0  0
    7.7225    7.2850   21.5332 H   0  0  0  0  0  0  0  0  0  0  0  0
    9.5053    6.6060   22.8613 H   0  0  0  0  0  0  0  0  0  0  0  0
   10.4696    7.7861   21.9464 H   0  0  0  0  0  0  0  0  0  0  0  0
    6.9654    9.7473   22.2801 H   0  0  0  0  0  0  0  0  0  0  0  0
    6.8954    8.4096   23.4372 H   0  0  0  0  0  0  0  0  0  0  0  0
    9.4292    7.9698   24.7113 H   0  0  0  0  0  0  0  0  0  0  0  0
   10.7344    8.9022   23.9911 H   0  0  0  0  0  0  0  0  0  0  0  0
    7.7606   13.2351   23.5736 H   0  0  0  0  0  0  0  0  0  0  0  0
    8.5538   13.6560   25.0998 H   0  0  0  0  0  0  0  0  0  0  0  0
    7.0422   12.4443   26.4253 H   0  0  0  0  0  0  0  0  0  0  0  0
    5.9604   12.6975   25.0297 H   0  0  0  0  0  0  0  0  0  0  0  0
   10.0341   11.8601   24.9209 H   0  0  0  0  0  0  0  0  0  0  0  0
    8.4239   11.4908   22.2573 H   0  0  0  0  0  0  0  0  0  0  0  0
    8.6591   10.0456   25.8362 H   0  0  0  0  0  0  0  0  0  0  0  0
   10.9156   13.1210   20.6482 H   0  0  0  0  0  0  0  0  0  0  0  0
    9.6737   13.5691   21.8006 H   0  0  0  0  0  0  0  0  0  0  0  0
   12.3035   12.1321   22.4670 H   0  0  0  0  0  0  0  0  0  0  0  0
   11.0778   12.5678   23.6720 H   0  0  0  0  0  0  0  0  0  0  0  0
   10.4637   10.9079   21.3635 H   0  0  0  0  0  0  0  0  0  0  0  0
  1  3  1  0  0  0  0
  1 19  2  0  0  0  0
  1 21  1  0  0  0  0
  2 17  1  0  0  0  0
  2 20  2  0  0  0  0
  2 21  1  0  0  0  0
  3  4  2  0  0  0  0
  4  5  1  0  0  0  0
  5  6  2  0  0  0  0
  6 21  1  0  0  0  0
  7  8  1  0  0  0  0
  7  9  1  0  0  0  0
  8 10  1  0  0  0  0
  9 16  1  0  0  0  0
 10 16  1  0  0  0  0
 11 12  1  0  0  0  0
 11 13  1  0  0  0  0
 12 23  1  0  0  0  0
 13 14  1  0  0  0  0
 13 15  1  0  0  0  0
 14 16  1  0  0  0  0
 14 22  1  0  0  0  0
 15 16  1  0  0  0  0
 15 23  1  0  0  0  0
 17 18  1  0  0  0  0
 18 22  1  0  0  0  0
 19 20  1  0  0  0  0
  3 24  1  0  0  0  0
  4 25  1  0  0  0  0
  5 26  1  0  0  0  0
  6 27  1  0  0  0  0
  7 28  1  0  0  0  0
  7 29  1  0  0  0  0
  8 30  1  0  0  0  0
  8 31  1  0  0  0  0
  9 32  1  0  0  0  0
  9 33  1  0  0  0  0
 10 34  1  0  0  0  0
 10 35  1  0  0  0  0
 11 36  1  0  0  0  0
 11 37  1  0  0  0  0
 12 38  1  0  0  0  0
 12 39  1  0  0  0  0
 13 40  1  0  0  0  0
 14 41  1  0  0  0  0
 15 42  1  0  0  0  0
 17 43  1  0  0  0  0
 17 44  1  0  0  0  0
 18 45  1  0  0  0  0
 18 46  1  0  0  0  0
 22 47  1  0  0  0  0
M  END
> <Catalog ID>
Z1597703225

> <PlateID>
1041831-R-24

> <Well>
F11

> <MW (desalted)>
312.409

> <ClogP>
1.506

> <HBD>
1

> <TPSA>
51.450

> <RotBonds>
4

> <ROCS_ShapeQuery>
A71EV2A-x0451_0A_A71EV2A-x0310_0A_A71EV2A-x0416_0A_peptide

> <ROCS_TanimotoCombo>
0.533 

> <ROCS_ShapeTanimoto>
0.339 

> <ROCS_ColorTanimoto>
0.194 

> <ROCS_RefTversky>
0.303 

> <ROCS_RefColorTversky>
0.239 

> <ROCS_RefTverskyCombo>
0.542 

> <ROCS_FitTversky>
1.542 

> <ROCS_FitColorTversky>
0.503 

> <ROCS_FitTverskyCombo>
2.045 

> <ROCS_ColorScore>
-7.373

> <ROCS_Overlap>
2106.549

> <ROCS_Rank>
198                 

$$$$
untitled-dbase-2739_3582
  -OEChem-11132311063D

 55 58  0     0  0  0  0  0  0999 V2000
   11.5782   15.6308   19.3599 C   0  0  0  0  0  0  0  0  0  0  0  0
   12.7286   15.9782   18.6511 C   0  0  0  0  0  0  0  0  0  0  0  0
   10.0356   10.8122   23.0638 C   0  0  0  0  0  0  0  0  0  0  0  0
   12.8564   15.5537   21.4108 C   0  0  0  0  0  0  0  0  0  0  0  0
    7.6166   12.9450   25.0358 C   0  0  0  0  0  0  0  0  0  0  0  0
    8.4276   12.0198   24.3489 C   0  0  0  0  0  0  0  0  0  0  0  0
    9.5718   12.0380   23.5417 C   0  0  0  0  0  0  0  0  0  0  0  0
   11.6410   15.4240   20.7382 C   0  0  0  0  0  0  0  0  0  0  0  0
   13.9420   16.1210   19.3250 C   0  0  0  0  0  0  0  0  0  0  0  0
   14.0100   15.8877   20.7008 C   0  0  0  0  0  0  0  0  0  0  0  0
    9.3489    9.6527   23.4080 C   0  0  0  0  0  0  0  0  0  0  0  0
    7.8399   10.7929   24.6149 C   0  0  0  0  0  0  0  0  0  0  0  0
   10.2611   13.2944   23.2074 C   0  0  0  0  0  0  0  0  0  0  0  0
   16.1151   16.9324   19.3980 C   0  0  0  0  0  0  0  0  0  0  0  0
   16.3245   15.9800   20.5590 C   0  0  0  0  0  0  0  0  0  0  0  0
    9.8584    8.3464   22.8879 C   0  0  0  0  0  0  0  0  0  0  0  0
    9.1332   12.3488   20.2218 C   0  0  0  0  0  0  0  0  0  0  0  0
    4.4118   10.3149   25.4237 C   0  0  0  0  0  0  0  0  0  0  0  0
    5.8664   10.0635   27.4798 C   0  0  0  0  0  0  0  0  0  0  0  0
   10.4074   15.0595   21.4936 C   0  0  0  0  0  0  0  0  0  0  0  0
   10.4809   12.7057   20.7498 C   0  0  0  0  0  0  0  0  0  0  0  0
    5.8313   10.0955   25.9507 C   0  0  0  0  0  0  0  0  0  0  0  0
    6.6013   12.3636   25.6831 N   0  0  0  0  0  0  0  0  0  0  0  0
    8.2402    9.5839   24.1840 N   0  0  0  0  0  0  0  0  0  0  0  0
    6.7631   11.0564   25.4090 N   0  0  0  0  0  0  0  0  0  0  0  0
   10.3793   13.6653   21.8561 N   0  0  0  0  0  0  0  0  0  0  0  0
   10.6822   13.9537   24.1572 O   0  0  0  0  0  0  0  0  0  0  0  0
   15.0324   16.4835   18.5781 O   0  0  0  0  0  0  0  0  0  0  0  0
   15.1773   15.9798   21.4129 O   0  0  0  0  0  0  0  0  0  0  0  0
   10.6351   15.5273   18.8296 H   0  0  0  0  0  0  0  0  0  0  0  0
   12.6688   16.1450   17.5791 H   0  0  0  0  0  0  0  0  0  0  0  0
   10.9191   10.7658   22.4331 H   0  0  0  0  0  0  0  0  0  0  0  0
   12.9071   15.3851   22.4838 H   0  0  0  0  0  0  0  0  0  0  0  0
    7.7204   14.0193   25.0938 H   0  0  0  0  0  0  0  0  0  0  0  0
   15.8942   17.9497   19.7443 H   0  0  0  0  0  0  0  0  0  0  0  0
   17.0121   16.9727   18.7723 H   0  0  0  0  0  0  0  0  0  0  0  0
   16.5045   14.9543   20.2134 H   0  0  0  0  0  0  0  0  0  0  0  0
   17.1852   16.2938   21.1579 H   0  0  0  0  0  0  0  0  0  0  0  0
   10.5781    7.9143   23.5918 H   0  0  0  0  0  0  0  0  0  0  0  0
    9.0387    7.6333   22.7416 H   0  0  0  0  0  0  0  0  0  0  0  0
   10.3503    8.4736   21.9163 H   0  0  0  0  0  0  0  0  0  0  0  0
    8.6288   13.2565   19.8589 H   0  0  0  0  0  0  0  0  0  0  0  0
    9.2418   11.6336   19.3931 H   0  0  0  0  0  0  0  0  0  0  0  0
    8.5344   11.8925   21.0238 H   0  0  0  0  0  0  0  0  0  0  0  0
    4.0065   11.2843   25.7326 H   0  0  0  0  0  0  0  0  0  0  0  0
    3.7379    9.5374   25.7992 H   0  0  0  0  0  0  0  0  0  0  0  0
    4.3919   10.2784   24.3288 H   0  0  0  0  0  0  0  0  0  0  0  0
    5.5482   11.0249   27.8978 H   0  0  0  0  0  0  0  0  0  0  0  0
    6.8816    9.8601   27.8369 H   0  0  0  0  0  0  0  0  0  0  0  0
    5.2085    9.2886   27.8876 H   0  0  0  0  0  0  0  0  0  0  0  0
   10.3240   15.6434   22.4208 H   0  0  0  0  0  0  0  0  0  0  0  0
    9.5011   15.2638   20.9073 H   0  0  0  0  0  0  0  0  0  0  0  0
   10.9784   11.7933   21.1105 H   0  0  0  0  0  0  0  0  0  0  0  0
   11.0768   13.1527   19.9404 H   0  0  0  0  0  0  0  0  0  0  0  0
    6.1590    9.1090   25.5982 H   0  0  0  0  0  0  0  0  0  0  0  0
  1  2  1  0  0  0  0
  1  8  2  0  0  0  0
  2  9  2  0  0  0  0
  3  7  1  0  0  0  0
  3 11  2  0  0  0  0
  4  8  1  0  0  0  0
  4 10  2  0  0  0  0
  5  6  1  0  0  0  0
  5 23  2  0  0  0  0
  6  7  2  0  0  0  0
  6 12  1  0  0  0  0
  7 13  1  0  0  0  0
  8 20  1  0  0  0  0
  9 10  1  0  0  0  0
  9 28  1  0  0  0  0
 10 29  1  0  0  0  0
 11 16  1  0  0  0  0
 11 24  1  0  0  0  0
 12 24  2  0  0  0  0
 12 25  1  0  0  0  0
 13 26  1  0  0  0  0
 13 27  2  0  0  0  0
 14 15  1  0  0  0  0
 14 28  1  0  0  0  0
 15 29  1  0  0  0  0
 17 21  1  0  0  0  0
 18 22  1  0  0  0  0
 19 22  1  0  0  0  0
 20 26  1  0  0  0  0
 21 26  1  0  0  0  0
 22 25  1  0  0  0  0
 23 25  1  0  0  0  0
  1 30  1  0  0  0  0
  2 31  1  0  0  0  0
  3 32  1  0  0  0  0
  4 33  1  0  0  0  0
  5 34  1  0  0  0  0
 14 35  1  0  0  0  0
 14 36  1  0  0  0  0
 15 37  1  0  0  0  0
 15 38  1  0  0  0  0
 16 39  1  0  0  0  0
 16 40  1  0  0  0  0
 16 41  1  0  0  0  0
 17 42  1  0  0  0  0
 17 43  1  0  0  0  0
 17 44  1  0  0  0  0
 18 45  1  0  0  0  0
 18 46  1  0  0  0  0
 18 47  1  0  0  0  0
 19 48  1  0  0  0  0
 19 49  1  0  0  0  0
 19 50  1  0  0  0  0
 20 51  1  0  0  0  0
 20 52  1  0  0  0  0
 21 53  1  0  0  0  0
 21 54  1  0  0  0  0
 22 55  1  0  0  0  0
M  END
> <Catalog ID>
Z203369510

> <PlateID>
1041831-R-35

> <Well>
B10

> <MW (desalted)>
394.467

> <ClogP>
3.299

> <HBD>
0

> <TPSA>
69.480

> <RotBonds>
5

> <ROCS_ShapeQuery>
A71EV2A-x0451_0A_A71EV2A-x0310_0A_A71EV2A-x0416_0A_peptide

> <ROCS_TanimotoCombo>
0.533 

> <ROCS_ShapeTanimoto>
0.369 

> <ROCS_ColorTanimoto>
0.164 

> <ROCS_RefTversky>
0.333 

> <ROCS_RefColorTversky>
0.192 

> <ROCS_RefTverskyCombo>
0.525 

> <ROCS_FitTversky>
1.417 

> <ROCS_FitColorTversky>
0.528 

> <ROCS_FitTverskyCombo>
1.945 

> <ROCS_ColorScore>
-5.872

> <ROCS_Overlap>
2317.020

> <ROCS_Rank>
199                 

$$$$
untitled-dbase-770_382
  -OEChem-11132311063D

 40 42  0     1  0  0  0  0  0999 V2000
    6.2661   11.8375   25.9437 C   0  0  0  0  0  0  0  0  0  0  0  0
    7.0114   13.0016   25.7024 C   0  0  0  0  0  0  0  0  0  0  0  0
    6.6939   10.6038   25.4499 C   0  0  0  0  0  0  0  0  0  0  0  0
    8.1955   12.9495   24.9634 C   0  0  0  0  0  0  0  0  0  0  0  0
    7.8624   10.5622   24.7072 C   0  0  0  0  0  0  0  0  0  0  0  0
    8.6114   11.7234   24.4644 C   0  0  0  0  0  0  0  0  0  0  0  0
   12.6638   15.7659   22.3843 C   0  0  0  0  0  0  0  0  0  0  0  0
   10.4954   13.6677   22.8278 C   0  0  0  0  0  0  0  0  0  0  0  0
    8.5279    9.3571   24.1194 C   0  0  0  0  0  0  0  0  0  0  0  0
   14.1214   15.8852   22.0051 C   0  0  0  0  0  0  0  0  0  0  0  0
    9.4705   10.0118   23.0969 C   0  0  0  0  0  0  0  0  0  0  0  0
   14.1533   15.3817   20.5671 C   0  0  0  0  0  0  0  0  0  0  0  0
   13.0197   14.3776   20.5077 C   0  0  0  0  0  0  0  0  0  0  0  0
    9.8551   11.3996   23.6732 C   0  0  2  0  0  0  0  0  0  0  0  0
   10.7145   14.4077   21.5329 C   0  0  0  0  0  0  0  0  0  0  0  0
   11.0776   11.3124   24.5937 C   0  0  0  0  0  0  0  0  0  0  0  0
   12.0772   14.8899   21.4740 N   0  0  0  0  0  0  0  0  0  0  0  0
   10.1286   12.3516   22.5984 N   0  0  0  0  0  0  0  0  0  0  0  0
   12.1481   16.3155   23.3460 O   0  0  0  0  0  0  0  0  0  0  0  0
   10.6329   14.1849   23.9332 O   0  0  0  0  0  0  0  0  0  0  0  0
   10.8939   10.3514   25.5114 F   0  0  0  0  0  0  0  0  0  0  0  0
   12.1735   11.0245   23.8756 F   0  0  0  0  0  0  0  0  0  0  0  0
   11.2640   12.4832   25.2214 F   0  0  0  0  0  0  0  0  0  0  0  0
    5.3444   11.8994   26.5160 H   0  0  0  0  0  0  0  0  0  0  0  0
    6.6595   13.9541   26.0894 H   0  0  0  0  0  0  0  0  0  0  0  0
    6.1212    9.7037   25.6460 H   0  0  0  0  0  0  0  0  0  0  0  0
    8.7656   13.8544   24.7843 H   0  0  0  0  0  0  0  0  0  0  0  0
    9.0855    8.7813   24.8644 H   0  0  0  0  0  0  0  0  0  0  0  0
    7.7871    8.7169   23.6278 H   0  0  0  0  0  0  0  0  0  0  0  0
   14.4637   16.9200   22.0815 H   0  0  0  0  0  0  0  0  0  0  0  0
   14.7107   15.2435   22.6676 H   0  0  0  0  0  0  0  0  0  0  0  0
   10.3684    9.3854   22.9983 H   0  0  0  0  0  0  0  0  0  0  0  0
    9.0201   10.0708   22.1005 H   0  0  0  0  0  0  0  0  0  0  0  0
   13.9556   16.2123   19.8783 H   0  0  0  0  0  0  0  0  0  0  0  0
   15.1197   14.9431   20.3026 H   0  0  0  0  0  0  0  0  0  0  0  0
   12.5667   14.3192   19.5123 H   0  0  0  0  0  0  0  0  0  0  0  0
   13.3351   13.3788   20.8318 H   0  0  0  0  0  0  0  0  0  0  0  0
   10.5336   13.7352   20.6891 H   0  0  0  0  0  0  0  0  0  0  0  0
   10.0295   15.2584   21.4714 H   0  0  0  0  0  0  0  0  0  0  0  0
   10.0458   12.0336   21.6391 H   0  0  0  0  0  0  0  0  0  0  0  0
  1  2  2  0  0  0  0
  1  3  1  0  0  0  0
  2  4  1  0  0  0  0
  3  5  2  0  0  0  0
  4  6  2  0  0  0  0
  5  6  1  0  0  0  0
  5  9  1  0  0  0  0
  6 14  1  0  0  0  0
  7 10  1  0  0  0  0
  7 17  1  0  0  0  0
  7 19  2  0  0  0  0
  8 15  1  0  0  0  0
  8 18  1  0  0  0  0
  8 20  2  0  0  0  0
  9 11  1  0  0  0  0
 10 12  1  0  0  0  0
 11 14  1  0  0  0  0
 12 13  1  0  0  0  0
 13 17  1  0  0  0  0
 14 16  1  0  0  0  0
 14 18  1  0  0  0  0
 15 17  1  0  0  0  0
 16 21  1  0  0  0  0
 16 22  1  0  0  0  0
 16 23  1  0  0  0  0
  1 24  1  0  0  0  0
  2 25  1  0  0  0  0
  3 26  1  0  0  0  0
  4 27  1  0  0  0  0
  9 28  1  0  0  0  0
  9 29  1  0  0  0  0
 10 30  1  0  0  0  0
 10 31  1  0  0  0  0
 11 32  1  0  0  0  0
 11 33  1  0  0  0  0
 12 34  1  0  0  0  0
 12 35  1  0  0  0  0
 13 36  1  0  0  0  0
 13 37  1  0  0  0  0
 15 38  1  0  0  0  0
 15 39  1  0  0  0  0
 18 40  1  0  0  0  0
M  END
> <Catalog ID>
Z1639641975

> <PlateID>
1041831-R-10

> <Well>
E11

> <MW (desalted)>
326.314

> <ClogP>
2.272

> <HBD>
1

> <TPSA>
49.410

> <RotBonds>
4

> <ROCS_ShapeQuery>
A71EV2A-x0451_0A_A71EV2A-x0310_0A_A71EV2A-x0416_0A_peptide

> <ROCS_TanimotoCombo>
0.533 

> <ROCS_ShapeTanimoto>
0.351 

> <ROCS_ColorTanimoto>
0.181 

> <ROCS_RefTversky>
0.311 

> <ROCS_RefColorTversky>
0.190 

> <ROCS_RefTverskyCombo>
0.502 

> <ROCS_FitTversky>
1.573 

> <ROCS_FitColorTversky>
0.793 

> <ROCS_FitTverskyCombo>
2.366 

> <ROCS_ColorScore>
-5.791

> <ROCS_Overlap>
2163.529

> <ROCS_Rank>
200                 

$$$$
untitled-dbase-3304_1168
  -OEChem-11132311063D

 48 51  0     1  0  0  0  0  0999 V2000
    6.6006   10.4818   25.0879 C   0  0  0  0  0  0  0  0  0  0  0  0
    5.8320   11.4818   25.6904 C   0  0  0  0  0  0  0  0  0  0  0  0
    7.4274   13.1882   25.0271 C   0  0  0  0  0  0  0  0  0  0  0  0
    8.2188   12.1974   24.4128 C   0  0  0  0  0  0  0  0  0  0  0  0
    9.4498   12.2134   23.6990 C   0  0  0  0  0  0  0  0  0  0  0  0
    7.7881   10.8698   24.4573 C   0  0  0  0  0  0  0  0  0  0  0  0
    6.2371   12.8148   25.6617 C   0  0  0  0  0  0  0  0  0  0  0  0
    9.7373   10.9191   23.3312 C   0  0  0  0  0  0  0  0  0  0  0  0
   10.2943   13.3775   23.3878 C   0  0  0  0  0  0  0  0  0  0  0  0
    8.7502    8.0626   22.2311 C   0  0  0  0  0  0  0  0  0  0  0  0
    7.4538    8.0251   22.9780 C   0  0  0  0  0  0  0  0  0  0  0  0
   11.7033   14.2828   20.0992 C   0  0  0  0  0  0  0  0  0  0  0  0
   11.7589   14.3081   21.6191 C   0  0  0  0  0  0  0  0  0  0  0  0
    9.6230   13.4422   20.9259 C   0  0  0  0  0  0  0  0  0  0  0  0
   10.2038   14.2758   19.7830 C   0  0  1  0  0  0  0  0  0  0  0  0
    8.6619    8.6770   23.6085 C   0  0  0  0  0  0  0  0  0  0  0  0
   10.8882   10.3751   22.5774 C   0  0  0  0  0  0  0  0  0  0  0  0
    4.2654   13.3279   26.8885 C   0  0  0  0  0  0  0  0  0  0  0  0
    9.6168   15.6857   19.7541 C   0  0  0  0  0  0  0  0  0  0  0  0
    8.7291   10.1161   23.7928 N   0  0  0  0  0  0  0  0  0  0  0  0
   10.5312   13.6591   22.0509 N   0  0  0  0  0  0  0  0  0  0  0  0
   10.7264   14.0312   24.3352 O   0  0  0  0  0  0  0  0  0  0  0  0
    9.7960   16.2826   21.0281 O   0  0  0  0  0  0  0  0  0  0  0  0
    5.4664   13.7677   26.2580 O   0  0  0  0  0  0  0  0  0  0  0  0
    6.2796    9.4457   25.1139 H   0  0  0  0  0  0  0  0  0  0  0  0
    4.9045   11.2074   26.1877 H   0  0  0  0  0  0  0  0  0  0  0  0
    7.7349   14.2303   25.0099 H   0  0  0  0  0  0  0  0  0  0  0  0
    9.3009    7.1352   22.1290 H   0  0  0  0  0  0  0  0  0  0  0  0
    8.8200    8.7214   21.3743 H   0  0  0  0  0  0  0  0  0  0  0  0
    6.6504    8.6599   22.6245 H   0  0  0  0  0  0  0  0  0  0  0  0
    7.1289    7.0732   23.3800 H   0  0  0  0  0  0  0  0  0  0  0  0
   12.1849   15.1841   19.6905 H   0  0  0  0  0  0  0  0  0  0  0  0
   12.2183   13.4078   19.6805 H   0  0  0  0  0  0  0  0  0  0  0  0
   12.5994   13.7161   21.9997 H   0  0  0  0  0  0  0  0  0  0  0  0
   11.8299   15.3204   22.0295 H   0  0  0  0  0  0  0  0  0  0  0  0
    8.6265   13.7887   21.2312 H   0  0  0  0  0  0  0  0  0  0  0  0
    9.5619   12.3763   20.6749 H   0  0  0  0  0  0  0  0  0  0  0  0
   10.0258   13.7861   18.8372 H   0  0  0  0  0  0  0  0  0  0  0  0
    9.1431    8.1369   24.4163 H   0  0  0  0  0  0  0  0  0  0  0  0
   11.7071   10.0938   23.2576 H   0  0  0  0  0  0  0  0  0  0  0  0
   10.6115    9.4820   21.9940 H   0  0  0  0  0  0  0  0  0  0  0  0
   11.2860   11.1045   21.8529 H   0  0  0  0  0  0  0  0  0  0  0  0
    3.7463   14.1854   27.3236 H   0  0  0  0  0  0  0  0  0  0  0  0
    4.5072   12.6008   27.6678 H   0  0  0  0  0  0  0  0  0  0  0  0
    3.6231   12.8572   26.1404 H   0  0  0  0  0  0  0  0  0  0  0  0
    8.5488   15.6475   19.5267 H   0  0  0  0  0  0  0  0  0  0  0  0
   10.1255   16.2934   19.0021 H   0  0  0  0  0  0  0  0  0  0  0  0
    9.4142   17.1749   20.9789 H   0  0  0  0  0  0  0  0  0  0  0  0
  1  2  1  0  0  0  0
  1  6  2  0  0  0  0
  2  7  2  0  0  0  0
  3  4  2  0  0  0  0
  3  7  1  0  0  0  0
  4  5  1  0  0  0  0
  4  6  1  0  0  0  0
  5  8  2  0  0  0  0
  5  9  1  0  0  0  0
  6 20  1  0  0  0  0
  7 24  1  0  0  0  0
  8 17  1  0  0  0  0
  8 20  1  0  0  0  0
  9 21  1  0  0  0  0
  9 22  2  0  0  0  0
 10 11  1  0  0  0  0
 10 16  1  0  0  0  0
 11 16  1  0  0  0  0
 12 13  1  0  0  0  0
 12 15  1  0  0  0  0
 13 21  1  0  0  0  0
 14 15  1  0  0  0  0
 14 21  1  0  0  0  0
 15 19  1  0  0  0  0
 16 20  1  0  0  0  0
 18 24  1  0  0  0  0
 19 23  1  0  0  0  0
  1 25  1  0  0  0  0
  2 26  1  0  0  0  0
  3 27  1  0  0  0  0
 10 28  1  0  0  0  0
 10 29  1  0  0  0  0
 11 30  1  0  0  0  0
 11 31  1  0  0  0  0
 12 32  1  0  0  0  0
 12 33  1  0  0  0  0
 13 34  1  0  0  0  0
 13 35  1  0  0  0  0
 14 36  1  0  0  0  0
 14 37  1  0  0  0  0
 15 38  1  0  0  0  0
 16 39  1  0  0  0  0
 17 40  1  0  0  0  0
 17 41  1  0  0  0  0
 17 42  1  0  0  0  0
 18 43  1  0  0  0  0
 18 44  1  0  0  0  0
 18 45  1  0  0  0  0
 19 46  1  0  0  0  0
 19 47  1  0  0  0  0
 23 48  1  0  0  0  0
M  END
> <Catalog ID>
Z1529862162

> <PlateID>
1041831-R-42

> <Well>
C05

> <MW (desalted)>
328.405

> <ClogP>
1.531

> <HBD>
1

> <TPSA>
54.700

> <RotBonds>
4

> <ROCS_ShapeQuery>
A71EV2A-x0451_0A_A71EV2A-x0310_0A_A71EV2A-x0416_0A_peptide

> <ROCS_TanimotoCombo>
0.532 

> <ROCS_ShapeTanimoto>
0.369 

> <ROCS_ColorTanimoto>
0.163 

> <ROCS_RefTversky>
0.324 

> <ROCS_RefColorTversky>
0.179 

> <ROCS_RefTverskyCombo>
0.502 

> <ROCS_FitTversky>
1.608 

> <ROCS_FitColorTversky>
0.659 

> <ROCS_FitTverskyCombo>
2.267 

> <ROCS_ColorScore>
-5.440

> <ROCS_Overlap>
2250.412

> <ROCS_Rank>
201                 

$$$$
untitled-dbase-902_186
  -OEChem-11132311063D

 38 40  0     1  0  0  0  0  0999 V2000
    6.5495   12.5001   25.7833 C   0  0  0  0  0  0  0  0  0  0  0  0
    6.3513   11.2741   26.4154 C   0  0  0  0  0  0  0  0  0  0  0  0
    7.4530   12.6206   24.7212 C   0  0  0  0  0  0  0  0  0  0  0  0
   14.0421   16.2377   20.8871 C   0  0  0  0  0  0  0  0  0  0  0  0
   12.5206   15.0731   19.4154 C   0  0  0  0  0  0  0  0  0  0  0  0
    7.0472   10.1324   26.0081 C   0  0  0  0  0  0  0  0  0  0  0  0
   14.3396   17.1398   19.8657 C   0  0  0  0  0  0  0  0  0  0  0  0
   12.8180   15.9753   18.3940 C   0  0  0  0  0  0  0  0  0  0  0  0
    9.4779    9.9130   23.3324 C   0  0  0  0  0  0  0  0  0  0  0  0
    8.1661   11.4832   24.2931 C   0  0  0  0  0  0  0  0  0  0  0  0
   13.1326   15.2043   20.6619 C   0  0  0  0  0  0  0  0  0  0  0  0
    9.1341   11.2440   23.2779 C   0  0  0  0  0  0  0  0  0  0  0  0
    7.9472   10.2678   24.9451 C   0  0  0  0  0  0  0  0  0  0  0  0
   13.7276   17.0087   18.6192 C   0  0  0  0  0  0  0  0  0  0  0  0
   12.8158   14.2437   21.7500 C   0  0  0  0  0  0  0  0  0  0  0  0
   11.2429   13.5012   23.9984 C   0  0  0  0  0  0  0  0  0  0  0  0
    9.6802   12.2378   22.3314 C   0  0  0  0  0  0  0  0  0  0  0  0
   11.0994   12.7166   22.6870 C   0  0  1  0  0  0  0  0  0  0  0  0
    8.7567    9.3324   24.3409 N   0  0  0  0  0  0  0  0  0  0  0  0
   11.5771   13.6791   21.6603 N   0  0  0  0  0  0  0  0  0  0  0  0
   10.4807   14.5063   24.0950 O   0  5  0  0  0  0  0  0  0  0  0  0
   13.6449   14.0434   22.6338 O   0  0  0  0  0  0  0  0  0  0  0  0
   12.0898   13.0587   24.8237 O   0  0  0  0  0  0  0  0  0  0  0  0
   14.0131   17.8750   17.6384 F   0  0  0  0  0  0  0  0  0  0  0  0
    5.9963   13.3736   26.1176 H   0  0  0  0  0  0  0  0  0  0  0  0
    5.6447   11.2033   27.2384 H   0  0  0  0  0  0  0  0  0  0  0  0
    7.5956   13.5831   24.2382 H   0  0  0  0  0  0  0  0  0  0  0  0
   14.5247   16.3492   21.8546 H   0  0  0  0  0  0  0  0  0  0  0  0
   11.8097   14.2719   19.2291 H   0  0  0  0  0  0  0  0  0  0  0  0
    6.8931    9.1787   26.5015 H   0  0  0  0  0  0  0  0  0  0  0  0
   15.0475   17.9445   20.0409 H   0  0  0  0  0  0  0  0  0  0  0  0
   12.3418   15.8731   17.4231 H   0  0  0  0  0  0  0  0  0  0  0  0
   10.1695    9.3259   22.7438 H   0  0  0  0  0  0  0  0  0  0  0  0
    9.7035   11.8108   21.3098 H   0  0  0  0  0  0  0  0  0  0  0  0
    9.0095   13.1137   22.2370 H   0  0  0  0  0  0  0  0  0  0  0  0
   11.7913   11.8654   22.6939 H   0  0  0  0  0  0  0  0  0  0  0  0
    8.8102    8.3582   24.6045 H   0  0  0  0  0  0  0  0  0  0  0  0
   10.9070   13.9151   20.9611 H   0  0  0  0  0  0  0  0  0  0  0  0
  1  2  2  0  0  0  0
  1  3  1  0  0  0  0
  2  6  1  0  0  0  0
  3 10  2  0  0  0  0
  4  7  1  0  0  0  0
  4 11  2  0  0  0  0
  5  8  2  0  0  0  0
  5 11  1  0  0  0  0
  6 13  2  0  0  0  0
  7 14  2  0  0  0  0
  8 14  1  0  0  0  0
  9 12  2  0  0  0  0
  9 19  1  0  0  0  0
 10 12  1  0  0  0  0
 10 13  1  0  0  0  0
 11 15  1  0  0  0  0
 12 17  1  0  0  0  0
 13 19  1  0  0  0  0
 14 24  1  0  0  0  0
 15 20  1  0  0  0  0
 15 22  2  0  0  0  0
 16 18  1  0  0  0  0
 16 21  1  0  0  0  0
 16 23  2  0  0  0  0
 17 18  1  0  0  0  0
 18 20  1  0  0  0  0
  1 25  1  0  0  0  0
  2 26  1  0  0  0  0
  3 27  1  0  0  0  0
  4 28  1  0  0  0  0
  5 29  1  0  0  0  0
  6 30  1  0  0  0  0
  7 31  1  0  0  0  0
  8 32  1  0  0  0  0
  9 33  1  0  0  0  0
 17 34  1  0  0  0  0
 17 35  1  0  0  0  0
 18 36  1  0  0  0  0
 19 37  1  0  0  0  0
 20 38  1  0  0  0  0
M  CHG  1  21  -1
M  END
> <Catalog ID>
Z90667808

> <PlateID>
1041831-R-12

> <Well>
C03

> <MW (desalted)>
326.322

> <ClogP>
-0.293

> <HBD>
2

> <TPSA>
85.020

> <RotBonds>
5

> <ROCS_ShapeQuery>
A71EV2A-x0451_0A_A71EV2A-x0310_0A_A71EV2A-x0416_0A_peptide

> <ROCS_TanimotoCombo>
0.532 

> <ROCS_ShapeTanimoto>
0.349 

> <ROCS_ColorTanimoto>
0.183 

> <ROCS_RefTversky>
0.311 

> <ROCS_RefColorTversky>
0.207 

> <ROCS_RefTverskyCombo>
0.517 

> <ROCS_FitTversky>
1.539 

> <ROCS_FitColorTversky>
0.621 

> <ROCS_FitTverskyCombo>
2.160 

> <ROCS_ColorScore>
-6.316

> <ROCS_Overlap>
2160.782

> <ROCS_Rank>
202                 

$$$$
untitled-dbase-406_5958
  -OEChem-11132311063D

 45 48  0     0  0  0  0  0  0999 V2000
   14.1224   13.4246   24.7991 C   0  0  0  0  0  0  0  0  0  0  0  0
   14.3439   14.7986   24.7059 C   0  0  0  0  0  0  0  0  0  0  0  0
   13.3023   12.7856   23.8691 C   0  0  0  0  0  0  0  0  0  0  0  0
   13.7451   15.5336   23.6827 C   0  0  0  0  0  0  0  0  0  0  0  0
    8.9747   11.8758   24.1830 C   0  0  0  0  0  0  0  0  0  0  0  0
   12.7036   13.5206   22.8460 C   0  0  0  0  0  0  0  0  0  0  0  0
   12.9250   14.8947   22.7527 C   0  0  0  0  0  0  0  0  0  0  0  0
    7.8470   12.3032   24.8970 C   0  0  0  0  0  0  0  0  0  0  0  0
    8.8308   10.5110   24.0799 C   0  0  0  0  0  0  0  0  0  0  0  0
    7.9109    7.8890   24.2565 C   0  0  0  0  0  0  0  0  0  0  0  0
    7.1951    8.8745   24.8071 C   0  0  0  0  0  0  0  0  0  0  0  0
    9.1616    8.3323   23.5900 C   0  0  0  0  0  0  0  0  0  0  0  0
   10.0624   12.6447   23.6550 C   0  0  0  0  0  0  0  0  0  0  0  0
   12.9482   15.6739   18.8418 C   0  0  0  0  0  0  0  0  0  0  0  0
   14.0488   15.4389   19.8930 C   0  0  0  0  0  0  0  0  0  0  0  0
   12.5647   16.9491   19.6153 C   0  0  0  0  0  0  0  0  0  0  0  0
   13.2316   16.3241   20.8612 C   0  0  0  0  0  0  0  0  0  0  0  0
    7.4958   13.6795   25.2899 C   0  0  0  0  0  0  0  0  0  0  0  0
   11.8237   12.8162   21.8542 C   0  0  0  0  0  0  0  0  0  0  0  0
    7.0346   11.3015   25.2322 N   0  0  0  0  0  0  0  0  0  0  0  0
    9.6043    9.5497   23.4987 N   0  0  0  0  0  0  0  0  0  0  0  0
    7.6375   10.1922   24.7300 N   0  0  0  0  0  0  0  0  0  0  0  0
   10.7009   12.1675   22.4924 N   0  0  0  0  0  0  0  0  0  0  0  0
   10.4510   13.6974   24.2168 O   0  0  0  0  0  0  0  0  0  0  0  0
   12.3472   15.6274   21.7600 O   0  0  0  0  0  0  0  0  0  0  0  0
   14.5880   12.8518   25.5961 H   0  0  0  0  0  0  0  0  0  0  0  0
   14.9817   15.2958   25.4307 H   0  0  0  0  0  0  0  0  0  0  0  0
   13.1349   11.7149   23.9514 H   0  0  0  0  0  0  0  0  0  0  0  0
   13.9213   16.6038   23.6153 H   0  0  0  0  0  0  0  0  0  0  0  0
    7.6335    6.8455   24.2746 H   0  0  0  0  0  0  0  0  0  0  0  0
    6.2610    8.6947   25.3255 H   0  0  0  0  0  0  0  0  0  0  0  0
    9.7549    7.5219   23.1355 H   0  0  0  0  0  0  0  0  0  0  0  0
   13.3356   15.8695   17.8342 H   0  0  0  0  0  0  0  0  0  0  0  0
   12.1749   14.9025   18.7813 H   0  0  0  0  0  0  0  0  0  0  0  0
   14.1447   14.3941   20.2134 H   0  0  0  0  0  0  0  0  0  0  0  0
   15.0395   15.8185   19.6250 H   0  0  0  0  0  0  0  0  0  0  0  0
   13.0200   17.8734   19.2468 H   0  0  0  0  0  0  0  0  0  0  0  0
   11.4828   17.1017   19.7152 H   0  0  0  0  0  0  0  0  0  0  0  0
   13.8529   17.0354   21.4181 H   0  0  0  0  0  0  0  0  0  0  0  0
    6.8876   14.1738   24.5136 H   0  0  0  0  0  0  0  0  0  0  0  0
    6.9214   13.7094   26.2325 H   0  0  0  0  0  0  0  0  0  0  0  0
    8.3902   14.3044   25.4606 H   0  0  0  0  0  0  0  0  0  0  0  0
   11.4297   13.5239   21.1166 H   0  0  0  0  0  0  0  0  0  0  0  0
   12.3839   12.0522   21.3050 H   0  0  0  0  0  0  0  0  0  0  0  0
   10.3989   11.2799   22.1041 H   0  0  0  0  0  0  0  0  0  0  0  0
  1  2  2  0  0  0  0
  1  3  1  0  0  0  0
  2  4  1  0  0  0  0
  3  6  2  0  0  0  0
  4  7  2  0  0  0  0
  5  8  1  0  0  0  0
  5  9  2  0  0  0  0
  5 13  1  0  0  0  0
  6  7  1  0  0  0  0
  6 19  1  0  0  0  0
  7 25  1  0  0  0  0
  8 18  1  0  0  0  0
  8 20  2  0  0  0  0
  9 21  1  0  0  0  0
  9 22  1  0  0  0  0
 10 11  2  0  0  0  0
 10 12  1  0  0  0  0
 11 22  1  0  0  0  0
 12 21  2  0  0  0  0
 13 23  1  0  0  0  0
 13 24  2  0  0  0  0
 14 15  1  0  0  0  0
 14 16  1  0  0  0  0
 15 17  1  0  0  0  0
 16 17  1  0  0  0  0
 17 25  1  0  0  0  0
 19 23  1  0  0  0  0
 20 22  1  0  0  0  0
  1 26  1  0  0  0  0
  2 27  1  0  0  0  0
  3 28  1  0  0  0  0
  4 29  1  0  0  0  0
 10 30  1  0  0  0  0
 11 31  1  0  0  0  0
 12 32  1  0  0  0  0
 14 33  1  0  0  0  0
 14 34  1  0  0  0  0
 15 35  1  0  0  0  0
 15 36  1  0  0  0  0
 16 37  1  0  0  0  0
 16 38  1  0  0  0  0
 17 39  1  0  0  0  0
 18 40  1  0  0  0  0
 18 41  1  0  0  0  0
 18 42  1  0  0  0  0
 19 43  1  0  0  0  0
 19 44  1  0  0  0  0
 23 45  1  0  0  0  0
M  END
> <Catalog ID>
Z1228019729

> <PlateID>
1041831-R-06

> <Well>
A07

> <MW (desalted)>
336.388

> <ClogP>
2.405

> <HBD>
1

> <TPSA>
68.520

> <RotBonds>
5

> <ROCS_ShapeQuery>
A71EV2A-x0451_0A_A71EV2A-x0310_0A_A71EV2A-x0416_0A_peptide

> <ROCS_TanimotoCombo>
0.532 

> <ROCS_ShapeTanimoto>
0.366 

> <ROCS_ColorTanimoto>
0.166 

> <ROCS_RefTversky>
0.324 

> <ROCS_RefColorTversky>
0.190 

> <ROCS_RefTverskyCombo>
0.514 

> <ROCS_FitTversky>
1.545 

> <ROCS_FitColorTversky>
0.571 

> <ROCS_FitTverskyCombo>
2.116 

> <ROCS_ColorScore>
-5.804

> <ROCS_Overlap>
2254.297

> <ROCS_Rank>
203                 

$$$$
untitled-dbase-1003_120
  -OEChem-11132311063D

 41 43  0     0  0  0  0  0  0999 V2000
    6.2628   11.7833   26.3062 C   0  0  0  0  0  0  0  0  0  0  0  0
    7.0392   12.9262   26.1657 C   0  0  0  0  0  0  0  0  0  0  0  0
    6.5718   10.6509   25.5618 C   0  0  0  0  0  0  0  0  0  0  0  0
    8.1327   12.9334   25.2924 C   0  0  0  0  0  0  0  0  0  0  0  0
    7.6621   10.6622   24.6798 C   0  0  0  0  0  0  0  0  0  0  0  0
    8.4774   11.7951   24.5442 C   0  0  0  0  0  0  0  0  0  0  0  0
   15.2301   14.2439   24.4165 C   0  0  0  0  0  0  0  0  0  0  0  0
   14.6705   14.7546   23.1957 C   0  0  0  0  0  0  0  0  0  0  0  0
   14.6672   13.2097   25.0513 C   0  0  0  0  0  0  0  0  0  0  0  0
   13.5672   14.2078   22.6587 C   0  0  0  0  0  0  0  0  0  0  0  0
   13.4376   12.5716   24.4866 C   0  0  0  0  0  0  0  0  0  0  0  0
    8.9049    9.3898   23.0132 C   0  0  0  0  0  0  0  0  0  0  0  0
   15.3044   12.7545   26.2905 C   0  0  0  0  0  0  0  0  0  0  0  0
   10.6189   12.7354   23.6773 C   0  0  0  0  0  0  0  0  0  0  0  0
    9.6540   10.6587   22.6856 C   0  0  0  0  0  0  0  0  0  0  0  0
   11.7455   12.5453   22.6843 C   0  0  0  0  0  0  0  0  0  0  0  0
   12.9942   14.7547   21.3808 C   0  0  0  0  0  0  0  0  0  0  0  0
    7.9214    9.4924   23.9583 N   0  0  0  0  0  0  0  0  0  0  0  0
    9.6036   11.7582   23.6529 N   0  0  0  0  0  0  0  0  0  0  0  0
   12.9182   13.1101   23.2757 N   0  0  0  0  0  0  0  0  0  0  0  0
   14.6619   11.6894   26.8761 N   0  0  0  0  0  0  0  0  0  0  0  0
   12.9314   11.6204   25.0823 O   0  0  0  0  0  0  0  0  0  0  0  0
    9.1086    8.3550   22.3761 O   0  0  0  0  0  0  0  0  0  0  0  0
   16.3145   13.2957   26.7335 O   0  0  0  0  0  0  0  0  0  0  0  0
   10.6782   13.6992   24.4438 O   0  0  0  0  0  0  0  0  0  0  0  0
   13.7299   15.7897   20.9330 F   0  0  0  0  0  0  0  0  0  0  0  0
   12.9749   13.8094   20.4221 F   0  0  0  0  0  0  0  0  0  0  0  0
   11.7325   15.1876   21.5662 F   0  0  0  0  0  0  0  0  0  0  0  0
    5.4272   11.7713   26.9991 H   0  0  0  0  0  0  0  0  0  0  0  0
    6.8017   13.8170   26.7405 H   0  0  0  0  0  0  0  0  0  0  0  0
    5.9607    9.7590   25.6778 H   0  0  0  0  0  0  0  0  0  0  0  0
    8.7124   13.8492   25.2553 H   0  0  0  0  0  0  0  0  0  0  0  0
   16.1221   14.7365   24.7911 H   0  0  0  0  0  0  0  0  0  0  0  0
   15.1751   15.5954   22.7314 H   0  0  0  0  0  0  0  0  0  0  0  0
   10.7097   10.3951   22.5503 H   0  0  0  0  0  0  0  0  0  0  0  0
    9.2613   11.0099   21.7257 H   0  0  0  0  0  0  0  0  0  0  0  0
   11.4739   13.0605   21.7700 H   0  0  0  0  0  0  0  0  0  0  0  0
   11.8606   11.4813   22.5108 H   0  0  0  0  0  0  0  0  0  0  0  0
    7.3510    8.6738   24.1511 H   0  0  0  0  0  0  0  0  0  0  0  0
   15.0363   11.3097   27.7394 H   0  0  0  0  0  0  0  0  0  0  0  0
   13.8278   11.2675   26.4795 H   0  0  0  0  0  0  0  0  0  0  0  0
  1  2  2  0  0  0  0
  1  3  1  0  0  0  0
  2  4  1  0  0  0  0
  3  5  2  0  0  0  0
  4  6  2  0  0  0  0
  5  6  1  0  0  0  0
  5 18  1  0  0  0  0
  6 19  1  0  0  0  0
  7  8  1  0  0  0  0
  7  9  2  0  0  0  0
  8 10  2  0  0  0  0
  9 11  1  0  0  0  0
  9 13  1  0  0  0  0
 10 17  1  0  0  0  0
 10 20  1  0  0  0  0
 11 20  1  0  0  0  0
 11 22  2  0  0  0  0
 12 15  1  0  0  0  0
 12 18  1  0  0  0  0
 12 23  2  0  0  0  0
 13 21  1  0  0  0  0
 13 24  2  0  0  0  0
 14 16  1  0  0  0  0
 14 19  1  0  0  0  0
 14 25  2  0  0  0  0
 15 19  1  0  0  0  0
 16 20  1  0  0  0  0
 17 26  1  0  0  0  0
 17 27  1  0  0  0  0
 17 28  1  0  0  0  0
  1 29  1  0  0  0  0
  2 30  1  0  0  0  0
  3 31  1  0  0  0  0
  4 32  1  0  0  0  0
  7 33  1  0  0  0  0
  8 34  1  0  0  0  0
 15 35  1  0  0  0  0
 15 36  1  0  0  0  0
 16 37  1  0  0  0  0
 16 38  1  0  0  0  0
 18 39  1  0  0  0  0
 21 40  1  0  0  0  0
 21 41  1  0  0  0  0
M  END
> <Catalog ID>
Z223060082

> <PlateID>
1041831-R-13

> <Well>
E04

> <MW (desalted)>
394.305

> <ClogP>
0.508

> <HBD>
2

> <TPSA>
112.810

> <RotBonds>
4

> <ROCS_ShapeQuery>
A71EV2A-x0451_0A_A71EV2A-x0310_0A_A71EV2A-x0416_0A_peptide

> <ROCS_TanimotoCombo>
0.532 

> <ROCS_ShapeTanimoto>
0.369 

> <ROCS_ColorTanimoto>
0.163 

> <ROCS_RefTversky>
0.332 

> <ROCS_RefColorTversky>
0.187 

> <ROCS_RefTverskyCombo>
0.519 

> <ROCS_FitTversky>
1.436 

> <ROCS_FitColorTversky>
0.564 

> <ROCS_FitTverskyCombo>
2.000 

> <ROCS_ColorScore>
-5.715

> <ROCS_Overlap>
2309.165

> <ROCS_Rank>
204                 

$$$$
untitled-dbase-2744_1006
  -OEChem-11132311063D

 54 57  0     1  0  0  0  0  0999 V2000
   13.9770   14.8184   19.5005 C   0  0  0  0  0  0  0  0  0  0  0  0
   13.2571   14.7028   20.6896 C   0  0  0  0  0  0  0  0  0  0  0  0
   13.4728   15.5877   18.4519 C   0  0  0  0  0  0  0  0  0  0  0  0
   10.2624   10.9775   23.1048 C   0  0  0  0  0  0  0  0  0  0  0  0
   11.5285   16.1255   19.7814 C   0  0  0  0  0  0  0  0  0  0  0  0
    8.4808   11.9809   24.3353 C   0  0  0  0  0  0  0  0  0  0  0  0
    9.7001   12.1261   23.6620 C   0  0  0  0  0  0  0  0  0  0  0  0
   12.0328   15.3563   20.8300 C   0  0  0  0  0  0  0  0  0  0  0  0
   12.2485   16.2412   18.5923 C   0  0  0  0  0  0  0  0  0  0  0  0
    9.5942    9.7656   23.2442 C   0  0  0  0  0  0  0  0  0  0  0  0
    7.5647   12.7965   25.0289 C   0  0  0  0  0  0  0  0  0  0  0  0
    7.9218   10.7141   24.4006 C   0  0  0  0  0  0  0  0  0  0  0  0
   10.3721   13.4295   23.5393 C   0  0  0  0  0  0  0  0  0  0  0  0
    7.3794   14.0037   18.7907 C   0  0  0  0  0  0  0  0  0  0  0  0
    8.3986   13.0108   19.2903 C   0  0  0  0  0  0  0  0  0  0  0  0
    8.0120   15.3234   19.1783 C   0  0  0  0  0  0  0  0  0  0  0  0
    8.8480   13.6645   20.5855 C   0  0  1  0  0  0  0  0  0  0  0  0
   10.2101    8.5428   22.6425 C   0  0  0  0  0  0  0  0  0  0  0  0
    7.6461   14.2475   25.2742 C   0  0  0  0  0  0  0  0  0  0  0  0
    5.8184    9.8076   25.4296 C   0  0  0  0  0  0  0  0  0  0  0  0
   11.2589   15.2311   22.1105 C   0  0  0  0  0  0  0  0  0  0  0  0
   10.2473   13.2647   21.0111 C   0  0  0  0  0  0  0  0  0  0  0  0
    8.4155    9.5749   23.8850 N   0  0  0  0  0  0  0  0  0  0  0  0
    6.5140   12.1142   25.4962 N   0  0  0  0  0  0  0  0  0  0  0  0
    6.7588   10.8522   25.0991 N   0  0  0  0  0  0  0  0  0  0  0  0
   10.5989   13.9219   22.2290 N   0  0  0  0  0  0  0  0  0  0  0  0
   10.6725   13.9884   24.5936 O   0  0  0  0  0  0  0  0  0  0  0  0
    8.7935   15.0828   20.3580 O   0  0  0  0  0  0  0  0  0  0  0  0
   11.7639   16.9796   17.5853 F   0  0  0  0  0  0  0  0  0  0  0  0
   14.9306   14.3099   19.3913 H   0  0  0  0  0  0  0  0  0  0  0  0
   13.6578   14.1010   21.5012 H   0  0  0  0  0  0  0  0  0  0  0  0
   14.0331   15.6771   17.5262 H   0  0  0  0  0  0  0  0  0  0  0  0
   11.2075   11.0298   22.5714 H   0  0  0  0  0  0  0  0  0  0  0  0
   10.5761   16.6389   19.8816 H   0  0  0  0  0  0  0  0  0  0  0  0
    7.1764   13.9257   17.7195 H   0  0  0  0  0  0  0  0  0  0  0  0
    6.4339   13.8693   19.3293 H   0  0  0  0  0  0  0  0  0  0  0  0
    7.9908   12.0073   19.4395 H   0  0  0  0  0  0  0  0  0  0  0  0
    9.2270   12.9429   18.5747 H   0  0  0  0  0  0  0  0  0  0  0  0
    8.6910   15.6815   18.3971 H   0  0  0  0  0  0  0  0  0  0  0  0
    7.2704   16.1014   19.3795 H   0  0  0  0  0  0  0  0  0  0  0  0
    8.1384   13.4385   21.3904 H   0  0  0  0  0  0  0  0  0  0  0  0
   10.8707    8.0564   23.3684 H   0  0  0  0  0  0  0  0  0  0  0  0
    9.4410    7.8260   22.3319 H   0  0  0  0  0  0  0  0  0  0  0  0
   10.7939    8.7942   21.7493 H   0  0  0  0  0  0  0  0  0  0  0  0
    7.1614   14.8175   24.4637 H   0  0  0  0  0  0  0  0  0  0  0  0
    7.1596   14.5371   26.2223 H   0  0  0  0  0  0  0  0  0  0  0  0
    8.6904   14.5985   25.3503 H   0  0  0  0  0  0  0  0  0  0  0  0
    6.1103    9.3839   26.3941 H   0  0  0  0  0  0  0  0  0  0  0  0
    4.8110   10.2292   25.4864 H   0  0  0  0  0  0  0  0  0  0  0  0
    5.8421    9.0404   24.6508 H   0  0  0  0  0  0  0  0  0  0  0  0
   11.9202   15.3549   22.9750 H   0  0  0  0  0  0  0  0  0  0  0  0
   10.4855   16.0033   22.1793 H   0  0  0  0  0  0  0  0  0  0  0  0
   10.2567   12.1818   21.1514 H   0  0  0  0  0  0  0  0  0  0  0  0
   10.9345   13.5561   20.2141 H   0  0  0  0  0  0  0  0  0  0  0  0
  1  2  1  0  0  0  0
  1  3  2  0  0  0  0
  2  8  2  0  0  0  0
  3  9  1  0  0  0  0
  4  7  1  0  0  0  0
  4 10  2  0  0  0  0
  5  8  1  0  0  0  0
  5  9  2  0  0  0  0
  6  7  2  0  0  0  0
  6 11  1  0  0  0  0
  6 12  1  0  0  0  0
  7 13  1  0  0  0  0
  8 21  1  0  0  0  0
  9 29  1  0  0  0  0
 10 18  1  0  0  0  0
 10 23  1  0  0  0  0
 11 19  1  0  0  0  0
 11 24  2  0  0  0  0
 12 23  2  0  0  0  0
 12 25  1  0  0  0  0
 13 26  1  0  0  0  0
 13 27  2  0  0  0  0
 14 15  1  0  0  0  0
 14 16  1  0  0  0  0
 15 17  1  0  0  0  0
 16 28  1  0  0  0  0
 17 22  1  0  0  0  0
 17 28  1  0  0  0  0
 20 25  1  0  0  0  0
 21 26  1  0  0  0  0
 22 26  1  0  0  0  0
 24 25  1  0  0  0  0
  1 30  1  0  0  0  0
  2 31  1  0  0  0  0
  3 32  1  0  0  0  0
  4 33  1  0  0  0  0
  5 34  1  0  0  0  0
 14 35  1  0  0  0  0
 14 36  1  0  0  0  0
 15 37  1  0  0  0  0
 15 38  1  0  0  0  0
 16 39  1  0  0  0  0
 16 40  1  0  0  0  0
 17 41  1  0  0  0  0
 18 42  1  0  0  0  0
 18 43  1  0  0  0  0
 18 44  1  0  0  0  0
 19 45  1  0  0  0  0
 19 46  1  0  0  0  0
 19 47  1  0  0  0  0
 20 48  1  0  0  0  0
 20 49  1  0  0  0  0
 20 50  1  0  0  0  0
 21 51  1  0  0  0  0
 21 52  1  0  0  0  0
 22 53  1  0  0  0  0
 22 54  1  0  0  0  0
M  END
> <Catalog ID>
Z959909812

> <PlateID>
1041831-R-35

> <Well>
C05

> <MW (desalted)>
396.458

> <ClogP>
3.150

> <HBD>
0

> <TPSA>
60.250

> <RotBonds>
5

> <ROCS_ShapeQuery>
A71EV2A-x0451_0A_A71EV2A-x0310_0A_A71EV2A-x0416_0A_peptide

> <ROCS_TanimotoCombo>
0.532 

> <ROCS_ShapeTanimoto>
0.364 

> <ROCS_ColorTanimoto>
0.168 

> <ROCS_RefTversky>
0.329 

> <ROCS_RefColorTversky>
0.187 

> <ROCS_RefTverskyCombo>
0.517 

> <ROCS_FitTversky>
1.406 

> <ROCS_FitColorTversky>
0.621 

> <ROCS_FitTverskyCombo>
2.028 

> <ROCS_ColorScore>
-5.718

> <ROCS_Overlap>
2292.042

> <ROCS_Rank>
205                 

$$$$
untitled-dbase-1428_15901
  -OEChem-11132311063D

 45 47  0     0  0  0  0  0  0999 V2000
    7.5873    9.7950   24.2771 C   0  0  0  0  0  0  0  0  0  0  0  0
    7.2242   10.4619   25.4471 C   0  0  0  0  0  0  0  0  0  0  0  0
    8.5161   10.3671   23.4078 C   0  0  0  0  0  0  0  0  0  0  0  0
    8.7187   12.2731   24.8785 C   0  0  0  0  0  0  0  0  0  0  0  0
   15.3867   12.8281   22.9157 C   0  0  0  0  0  0  0  0  0  0  0  0
    7.7898   11.7009   25.7479 C   0  0  0  0  0  0  0  0  0  0  0  0
    9.0818   11.6062   23.7085 C   0  0  0  0  0  0  0  0  0  0  0  0
   14.3484   13.7355   22.8902 C   0  0  0  0  0  0  0  0  0  0  0  0
   14.3000   13.2389   25.0258 C   0  0  0  0  0  0  0  0  0  0  0  0
    4.5104   10.5830   28.3892 C   0  0  0  0  0  0  0  0  0  0  0  0
    5.7442   10.9103   28.0071 C   0  0  0  0  0  0  0  0  0  0  0  0
    3.4987   11.6096   28.1131 C   0  0  0  0  0  0  0  0  0  0  0  0
    5.0121   13.0685   27.1613 C   0  0  0  0  0  0  0  0  0  0  0  0
   10.6886   13.4076   22.9645 C   0  0  0  0  0  0  0  0  0  0  0  0
   13.9014   13.2252   26.4502 C   0  0  0  0  0  0  0  0  0  0  0  0
    7.3987   12.4184   27.0074 C   0  0  0  0  0  0  0  0  0  0  0  0
   13.8525   14.4733   21.6708 C   0  0  0  0  0  0  0  0  0  0  0  0
   12.3629   14.8009   21.7380 C   0  0  0  0  0  0  0  0  0  0  0  0
   13.7239   13.9720   24.0992 N   0  0  0  0  0  0  0  0  0  0  0  0
    3.7195   12.7517   27.5511 N   0  0  0  0  0  0  0  0  0  0  0  0
    6.0270   12.1184   27.4029 N   0  0  0  0  0  0  0  0  0  0  0  0
   10.0113   12.1778   22.8391 N   0  0  0  0  0  0  0  0  0  0  0  0
   11.5413   13.6206   21.8765 N   0  0  0  0  0  0  0  0  0  0  0  0
    5.2516   14.1503   26.6221 O   0  0  0  0  0  0  0  0  0  0  0  0
   10.5693   14.2063   23.8905 O   0  0  0  0  0  0  0  0  0  0  0  0
   15.5997   12.2422   24.5134 S   0  0  0  0  0  0  0  0  0  0  0  0
    7.1472    8.8300   24.0431 H   0  0  0  0  0  0  0  0  0  0  0  0
    6.4994   10.0086   26.1176 H   0  0  0  0  0  0  0  0  0  0  0  0
    8.7916    9.8385   22.4987 H   0  0  0  0  0  0  0  0  0  0  0  0
    9.1578   13.2399   25.1149 H   0  0  0  0  0  0  0  0  0  0  0  0
   16.0122   12.4906   22.1013 H   0  0  0  0  0  0  0  0  0  0  0  0
    4.2446    9.6504   28.8642 H   0  0  0  0  0  0  0  0  0  0  0  0
    6.5771   10.2326   28.1586 H   0  0  0  0  0  0  0  0  0  0  0  0
    2.4724   11.3559   28.4232 H   0  0  0  0  0  0  0  0  0  0  0  0
   13.1336   12.4584   26.6373 H   0  0  0  0  0  0  0  0  0  0  0  0
   14.7562   13.0162   27.1139 H   0  0  0  0  0  0  0  0  0  0  0  0
   13.4933   14.1975   26.7717 H   0  0  0  0  0  0  0  0  0  0  0  0
    8.0581   12.1337   27.8346 H   0  0  0  0  0  0  0  0  0  0  0  0
    7.4818   13.5032   26.8837 H   0  0  0  0  0  0  0  0  0  0  0  0
   14.0481   13.8542   20.7861 H   0  0  0  0  0  0  0  0  0  0  0  0
   14.4355   15.3926   21.5308 H   0  0  0  0  0  0  0  0  0  0  0  0
   12.1587   15.4317   22.6089 H   0  0  0  0  0  0  0  0  0  0  0  0
   12.0260   15.3348   20.8433 H   0  0  0  0  0  0  0  0  0  0  0  0
   10.2415   11.6436   21.9946 H   0  0  0  0  0  0  0  0  0  0  0  0
   11.5849   12.9128   21.1501 H   0  0  0  0  0  0  0  0  0  0  0  0
  1  2  2  0  0  0  0
  1  3  1  0  0  0  0
  2  6  1  0  0  0  0
  3  7  2  0  0  0  0
  4  6  2  0  0  0  0
  4  7  1  0  0  0  0
  5  8  2  0  0  0  0
  5 26  1  0  0  0  0
  6 16  1  0  0  0  0
  7 22  1  0  0  0  0
  8 17  1  0  0  0  0
  8 19  1  0  0  0  0
  9 15  1  0  0  0  0
  9 19  2  0  0  0  0
  9 26  1  0  0  0  0
 10 11  2  0  0  0  0
 10 12  1  0  0  0  0
 11 21  1  0  0  0  0
 12 20  2  0  0  0  0
 13 20  1  0  0  0  0
 13 21  1  0  0  0  0
 13 24  2  0  0  0  0
 14 22  1  0  0  0  0
 14 23  1  0  0  0  0
 14 25  2  0  0  0  0
 16 21  1  0  0  0  0
 17 18  1  0  0  0  0
 18 23  1  0  0  0  0
  1 27  1  0  0  0  0
  2 28  1  0  0  0  0
  3 29  1  0  0  0  0
  4 30  1  0  0  0  0
  5 31  1  0  0  0  0
 10 32  1  0  0  0  0
 11 33  1  0  0  0  0
 12 34  1  0  0  0  0
 15 35  1  0  0  0  0
 15 36  1  0  0  0  0
 15 37  1  0  0  0  0
 16 38  1  0  0  0  0
 16 39  1  0  0  0  0
 17 40  1  0  0  0  0
 17 41  1  0  0  0  0
 18 42  1  0  0  0  0
 18 43  1  0  0  0  0
 22 44  1  0  0  0  0
 23 45  1  0  0  0  0
M  END
> <Catalog ID>
Z595930260

> <PlateID>
1041831-R-18

> <Well>
G09

> <MW (desalted)>
369.441

> <ClogP>
0.494

> <HBD>
2

> <TPSA>
86.690

> <RotBonds>
6

> <ROCS_ShapeQuery>
A71EV2A-x0451_0A_A71EV2A-x0310_0A_A71EV2A-x0416_0A_peptide

> <ROCS_TanimotoCombo>
0.532 

> <ROCS_ShapeTanimoto>
0.303 

> <ROCS_ColorTanimoto>
0.229 

> <ROCS_RefTversky>
0.281 

> <ROCS_RefColorTversky>
0.254 

> <ROCS_RefTverskyCombo>
0.535 

> <ROCS_FitTversky>
1.336 

> <ROCS_FitColorTversky>
0.701 

> <ROCS_FitTverskyCombo>
2.036 

> <ROCS_ColorScore>
-7.782

> <ROCS_Overlap>
1955.110

> <ROCS_Rank>
206                 

$$$$
untitled-dbase-925_11271
  -OEChem-11132311063D

 49 51  0     1  0  0  0  0  0999 V2000
    5.6085   12.2659   29.4338 C   0  0  0  0  0  0  0  0  0  0  0  0
    4.6772   13.2717   29.2007 C   0  0  0  0  0  0  0  0  0  0  0  0
   13.2576   16.2780   18.8803 C   0  0  0  0  0  0  0  0  0  0  0  0
    9.9076    9.5214   23.1819 C   0  0  0  0  0  0  0  0  0  0  0  0
   10.7020   10.6664   23.1236 C   0  0  0  0  0  0  0  0  0  0  0  0
    5.7617   11.2398   28.5081 C   0  0  0  0  0  0  0  0  0  0  0  0
   12.3492   15.1928   18.8622 C   0  0  0  0  0  0  0  0  0  0  0  0
    8.8864   11.9726   24.0371 C   0  0  0  0  0  0  0  0  0  0  0  0
    3.9298   13.2062   28.0359 C   0  0  0  0  0  0  0  0  0  0  0  0
   13.7679   16.3277   20.1567 C   0  0  0  0  0  0  0  0  0  0  0  0
    8.0920   10.8276   24.0953 C   0  0  0  0  0  0  0  0  0  0  0  0
    8.6025    9.6020   23.6677 C   0  0  0  0  0  0  0  0  0  0  0  0
   10.1915   11.8920   23.5512 C   0  0  0  0  0  0  0  0  0  0  0  0
    4.9655   11.2651   27.3744 C   0  0  0  0  0  0  0  0  0  0  0  0
   12.3693   14.6565   20.1287 C   0  0  0  0  0  0  0  0  0  0  0  0
    6.7325   10.9394   24.6054 C   0  0  0  0  0  0  0  0  0  0  0  0
    7.7740    8.3598   23.7194 C   0  0  0  0  0  0  0  0  0  0  0  0
    4.7955    8.7837   26.9208 C   0  0  0  0  0  0  0  0  0  0  0  0
   11.6476   13.5056   20.7680 C   0  0  0  0  0  0  0  0  0  0  0  0
    5.1051   10.1642   26.3453 C   0  0  2  0  0  0  0  0  0  0  0  0
    4.0504   12.2254   27.1134 N   0  0  0  0  0  0  0  0  0  0  0  0
    6.4155   10.1788   25.7358 N   0  0  0  0  0  0  0  0  0  0  0  0
   10.8388   13.9341   21.9182 N   0  0  0  0  0  0  0  0  0  0  0  0
    5.9036   11.6675   24.0333 O   0  0  0  0  0  0  0  0  0  0  0  0
   10.7063   14.2806   24.4675 O   0  0  0  0  0  0  0  0  0  0  0  0
   12.5794   12.9017   23.5112 O   0  0  0  0  0  0  0  0  0  0  0  0
   13.2317   15.3426   20.9239 O   0  0  0  0  0  0  0  0  0  0  0  0
   11.1859   13.3253   23.4770 S   0  0  0  0  0  0  0  0  0  0  0  0
    6.2137   12.2818   30.3352 H   0  0  0  0  0  0  0  0  0  0  0  0
    4.5409   14.0814   29.9084 H   0  0  0  0  0  0  0  0  0  0  0  0
   13.5086   16.9412   18.0653 H   0  0  0  0  0  0  0  0  0  0  0  0
   10.3150    8.5710   22.8470 H   0  0  0  0  0  0  0  0  0  0  0  0
   11.7177   10.5922   22.7440 H   0  0  0  0  0  0  0  0  0  0  0  0
    6.4846   10.4492   28.6782 H   0  0  0  0  0  0  0  0  0  0  0  0
   11.7550   14.8474   18.0282 H   0  0  0  0  0  0  0  0  0  0  0  0
    8.4890   12.9290   24.3696 H   0  0  0  0  0  0  0  0  0  0  0  0
    3.1901   13.9665   27.8072 H   0  0  0  0  0  0  0  0  0  0  0  0
   14.4824   16.9690   20.6514 H   0  0  0  0  0  0  0  0  0  0  0  0
    7.9060    7.8557   24.6835 H   0  0  0  0  0  0  0  0  0  0  0  0
    6.7095    8.5883   23.5866 H   0  0  0  0  0  0  0  0  0  0  0  0
    8.0538    7.6639   22.9191 H   0  0  0  0  0  0  0  0  0  0  0  0
    5.4696    8.5415   27.7497 H   0  0  0  0  0  0  0  0  0  0  0  0
    3.7672    8.7468   27.2979 H   0  0  0  0  0  0  0  0  0  0  0  0
    4.8901    7.9944   26.1666 H   0  0  0  0  0  0  0  0  0  0  0  0
   10.9795   13.0208   20.0478 H   0  0  0  0  0  0  0  0  0  0  0  0
   12.3534   12.7457   21.1196 H   0  0  0  0  0  0  0  0  0  0  0  0
    4.4014   10.3482   25.5242 H   0  0  0  0  0  0  0  0  0  0  0  0
    7.1127    9.5529   26.1254 H   0  0  0  0  0  0  0  0  0  0  0  0
   10.3900   14.8545   21.8356 H   0  0  0  0  0  0  0  0  0  0  0  0
  1  2  2  0  0  0  0
  1  6  1  0  0  0  0
  2  9  1  0  0  0  0
  3  7  1  0  0  0  0
  3 10  2  0  0  0  0
  4  5  1  0  0  0  0
  4 12  2  0  0  0  0
  5 13  2  0  0  0  0
  6 14  2  0  0  0  0
  7 15  2  0  0  0  0
  8 11  2  0  0  0  0
  8 13  1  0  0  0  0
  9 21  2  0  0  0  0
 10 27  1  0  0  0  0
 11 12  1  0  0  0  0
 11 16  1  0  0  0  0
 12 17  1  0  0  0  0
 13 28  1  0  0  0  0
 14 20  1  0  0  0  0
 14 21  1  0  0  0  0
 15 19  1  0  0  0  0
 15 27  1  0  0  0  0
 16 22  1  0  0  0  0
 16 24  2  0  0  0  0
 18 20  1  0  0  0  0
 19 23  1  0  0  0  0
 20 22  1  0  0  0  0
 23 28  1  0  0  0  0
 25 28  2  0  0  0  0
 26 28  2  0  0  0  0
  1 29  1  0  0  0  0
  2 30  1  0  0  0  0
  3 31  1  0  0  0  0
  4 32  1  0  0  0  0
  5 33  1  0  0  0  0
  6 34  1  0  0  0  0
  7 35  1  0  0  0  0
  8 36  1  0  0  0  0
  9 37  1  0  0  0  0
 10 38  1  0  0  0  0
 17 39  1  0  0  0  0
 17 40  1  0  0  0  0
 17 41  1  0  0  0  0
 18 42  1  0  0  0  0
 18 43  1  0  0  0  0
 18 44  1  0  0  0  0
 19 45  1  0  0  0  0
 19 46  1  0  0  0  0
 20 47  1  0  0  0  0
 22 48  1  0  0  0  0
 23 49  1  0  0  0  0
M  END
> <Catalog ID>
Z32287127

> <PlateID>
1041831-R-12

> <Well>
E06

> <MW (desalted)>
399.463

> <ClogP>
2.121

> <HBD>
2

> <TPSA>
101.300

> <RotBonds>
6

> <ROCS_ShapeQuery>
A71EV2A-x0451_0A_A71EV2A-x0310_0A_A71EV2A-x0416_0A_peptide

> <ROCS_TanimotoCombo>
0.531 

> <ROCS_ShapeTanimoto>
0.356 

> <ROCS_ColorTanimoto>
0.175 

> <ROCS_RefTversky>
0.321 

> <ROCS_RefColorTversky>
0.203 

> <ROCS_RefTverskyCombo>
0.524 

> <ROCS_FitTversky>
1.446 

> <ROCS_FitColorTversky>
0.560 

> <ROCS_FitTverskyCombo>
2.006 

> <ROCS_ColorScore>
-6.212

> <ROCS_Overlap>
2234.987

> <ROCS_Rank>
207                 

$$$$
untitled-dbase-1827_171
  -OEChem-11132311063D

 46 50  0     0  0  0  0  0  0999 V2000
   14.0086   15.9781   19.1917 C   0  0  0  0  0  0  0  0  0  0  0  0
   12.5138   15.4008   20.6551 C   0  0  0  0  0  0  0  0  0  0  0  0
   10.6048   13.3318   23.2971 C   0  0  0  0  0  0  0  0  0  0  0  0
   11.8495   16.9545   23.2885 C   0  0  0  0  0  0  0  0  0  0  0  0
   10.7110   16.3201   22.4716 C   0  0  0  0  0  0  0  0  0  0  0  0
   12.4818   15.5546   23.3702 C   0  0  0  0  0  0  0  0  0  0  0  0
    7.4015   10.2660   24.8590 C   0  0  0  0  0  0  0  0  0  0  0  0
    9.3443   11.6806   25.5731 C   0  0  0  0  0  0  0  0  0  0  0  0
    7.6846   12.5726   23.9182 C   0  0  0  0  0  0  0  0  0  0  0  0
    9.7238    9.6778   24.1194 C   0  0  0  0  0  0  0  0  0  0  0  0
    8.0585   10.5728   22.4590 C   0  0  0  0  0  0  0  0  0  0  0  0
   10.0166   11.9577   23.1482 C   0  0  0  0  0  0  0  0  0  0  0  0
    7.8595   11.7007   25.1730 C   0  0  0  0  0  0  0  0  0  0  0  0
    8.2397    9.6870   23.7062 C   0  0  0  0  0  0  0  0  0  0  0  0
   10.1988   11.1135   24.4214 C   0  0  0  0  0  0  0  0  0  0  0  0
    8.5295   12.0106   22.7570 C   0  0  0  0  0  0  0  0  0  0  0  0
   11.7237   15.1952   22.0379 C   0  0  0  0  0  0  0  0  0  0  0  0
   13.0459   15.3568   18.5486 N   0  0  0  0  0  0  0  0  0  0  0  0
   12.0949   14.9895   19.4796 N   0  0  0  0  0  0  0  0  0  0  0  0
   13.7149   16.0286   20.5206 N   0  0  0  0  0  0  0  0  0  0  0  0
   11.1038   13.8604   22.1219 N   0  0  0  0  0  0  0  0  0  0  0  0
   10.6046   13.8733   24.3964 O   0  0  0  0  0  0  0  0  0  0  0  0
   14.9078   16.3974   18.7653 H   0  0  0  0  0  0  0  0  0  0  0  0
   12.4402   17.7138   22.7710 H   0  0  0  0  0  0  0  0  0  0  0  0
   11.5292   17.3514   24.2582 H   0  0  0  0  0  0  0  0  0  0  0  0
    9.8482   15.9912   23.0547 H   0  0  0  0  0  0  0  0  0  0  0  0
   10.3579   16.9531   21.6506 H   0  0  0  0  0  0  0  0  0  0  0  0
   13.5732   15.5647   23.2808 H   0  0  0  0  0  0  0  0  0  0  0  0
   12.2093   14.9726   24.2530 H   0  0  0  0  0  0  0  0  0  0  0  0
    7.5040    9.6358   25.7508 H   0  0  0  0  0  0  0  0  0  0  0  0
    6.3388   10.2632   24.5875 H   0  0  0  0  0  0  0  0  0  0  0  0
    9.6759   12.6933   25.8319 H   0  0  0  0  0  0  0  0  0  0  0  0
    9.4793   11.0676   26.4728 H   0  0  0  0  0  0  0  0  0  0  0  0
    6.6268   12.6005   23.6286 H   0  0  0  0  0  0  0  0  0  0  0  0
    7.9765   13.6065   24.1375 H   0  0  0  0  0  0  0  0  0  0  0  0
    9.8615    9.0443   25.0042 H   0  0  0  0  0  0  0  0  0  0  0  0
   10.3325    9.2417   23.3180 H   0  0  0  0  0  0  0  0  0  0  0  0
    8.6294   10.1575   21.6194 H   0  0  0  0  0  0  0  0  0  0  0  0
    7.0048   10.5794   22.1542 H   0  0  0  0  0  0  0  0  0  0  0  0
   10.5851   11.4961   22.3293 H   0  0  0  0  0  0  0  0  0  0  0  0
    7.2596   12.1084   25.9943 H   0  0  0  0  0  0  0  0  0  0  0  0
    7.9103    8.6655   23.4859 H   0  0  0  0  0  0  0  0  0  0  0  0
   11.2523   11.0977   24.7249 H   0  0  0  0  0  0  0  0  0  0  0  0
    8.3875   12.6371   21.8686 H   0  0  0  0  0  0  0  0  0  0  0  0
   14.2732   16.4460   21.2539 H   0  0  0  0  0  0  0  0  0  0  0  0
   11.0404   13.3026   21.2756 H   0  0  0  0  0  0  0  0  0  0  0  0
  1 18  2  0  0  0  0
  1 20  1  0  0  0  0
  2 17  1  0  0  0  0
  2 19  2  0  0  0  0
  2 20  1  0  0  0  0
  3 12  1  0  0  0  0
  3 21  1  0  0  0  0
  3 22  2  0  0  0  0
  4  5  1  0  0  0  0
  4  6  1  0  0  0  0
  5 17  1  0  0  0  0
  6 17  1  0  0  0  0
  7 13  1  0  0  0  0
  7 14  1  0  0  0  0
  8 13  1  0  0  0  0
  8 15  1  0  0  0  0
  9 13  1  0  0  0  0
  9 16  1  0  0  0  0
 10 14  1  0  0  0  0
 10 15  1  0  0  0  0
 11 14  1  0  0  0  0
 11 16  1  0  0  0  0
 12 15  1  0  0  0  0
 12 16  1  0  0  0  0
 17 21  1  0  0  0  0
 18 19  1  0  0  0  0
  1 23  1  0  0  0  0
  4 24  1  0  0  0  0
  4 25  1  0  0  0  0
  5 26  1  0  0  0  0
  5 27  1  0  0  0  0
  6 28  1  0  0  0  0
  6 29  1  0  0  0  0
  7 30  1  0  0  0  0
  7 31  1  0  0  0  0
  8 32  1  0  0  0  0
  8 33  1  0  0  0  0
  9 34  1  0  0  0  0
  9 35  1  0  0  0  0
 10 36  1  0  0  0  0
 10 37  1  0  0  0  0
 11 38  1  0  0  0  0
 11 39  1  0  0  0  0
 12 40  1  0  0  0  0
 13 41  1  0  0  0  0
 14 42  1  0  0  0  0
 15 43  1  0  0  0  0
 16 44  1  0  0  0  0
 20 45  1  0  0  0  0
 21 46  1  0  0  0  0
M  END
> <Catalog ID>
Z1972779690

> <PlateID>
1041831-R-23

> <Well>
G08

> <MW (desalted)>
300.399

> <ClogP>
2.514

> <HBD>
2

> <TPSA>
70.670

> <RotBonds>
3

> <ROCS_ShapeQuery>
A71EV2A-x0451_0A_A71EV2A-x0310_0A_A71EV2A-x0416_0A_peptide

> <ROCS_TanimotoCombo>
0.531 

> <ROCS_ShapeTanimoto>
0.331 

> <ROCS_ColorTanimoto>
0.201 

> <ROCS_RefTversky>
0.296 

> <ROCS_RefColorTversky>
0.247 

> <ROCS_RefTverskyCombo>
0.543 

> <ROCS_FitTversky>
1.547 

> <ROCS_FitColorTversky>
0.519 

> <ROCS_FitTverskyCombo>
2.066 

> <ROCS_ColorScore>
-7.610

> <ROCS_Overlap>
2055.680

> <ROCS_Rank>
208                 

$$$$
untitled-dbase-1764_855
  -OEChem-11132311063D

 43 46  0     0  0  0  0  0  0999 V2000
   10.0817    8.1304   22.9792 C   0  0  0  0  0  0  0  0  0  0  0  0
    8.9924    7.5540   23.6206 C   0  0  0  0  0  0  0  0  0  0  0  0
   16.7869   11.4318   26.8912 C   0  0  0  0  0  0  0  0  0  0  0  0
   10.2063    9.5164   22.9480 C   0  0  0  0  0  0  0  0  0  0  0  0
    8.0306    8.3643   24.2291 C   0  0  0  0  0  0  0  0  0  0  0  0
   16.1587   11.2357   25.6382 C   0  0  0  0  0  0  0  0  0  0  0  0
    8.3675   12.5058   24.1574 C   0  0  0  0  0  0  0  0  0  0  0  0
   16.6385   12.7666   27.1882 C   0  0  0  0  0  0  0  0  0  0  0  0
    9.2388   10.3312   23.5601 C   0  0  0  0  0  0  0  0  0  0  0  0
    8.1302    9.7529   24.2133 C   0  0  0  0  0  0  0  0  0  0  0  0
    9.3394   11.7289   23.5437 C   0  0  0  0  0  0  0  0  0  0  0  0
   15.6708   12.4647   25.2590 C   0  0  0  0  0  0  0  0  0  0  0  0
    7.3198   11.8498   24.7713 C   0  0  0  0  0  0  0  0  0  0  0  0
   13.4483   13.4207   22.7584 C   0  0  0  0  0  0  0  0  0  0  0  0
   14.5098   13.0066   21.9927 C   0  0  0  0  0  0  0  0  0  0  0  0
   14.9606   12.7786   24.0714 C   0  0  0  0  0  0  0  0  0  0  0  0
   10.9760   13.6224   23.2584 C   0  0  0  0  0  0  0  0  0  0  0  0
    6.2511   12.6448   25.4442 C   0  0  0  0  0  0  0  0  0  0  0  0
   14.7820   12.9276   20.5535 C   0  0  0  0  0  0  0  0  0  0  0  0
   12.1175   13.9703   22.3160 C   0  0  0  0  0  0  0  0  0  0  0  0
    7.1854   10.5043   24.8097 N   0  0  0  0  0  0  0  0  0  0  0  0
   13.7430   13.2719   24.0895 N   0  0  0  0  0  0  0  0  0  0  0  0
   10.4051   12.3876   22.9192 N   0  0  0  0  0  0  0  0  0  0  0  0
   10.6370   14.3603   24.1781 O   0  0  0  0  0  0  0  0  0  0  0  0
   15.9591   13.4032   26.1984 O   0  0  0  0  0  0  0  0  0  0  0  0
   15.4958   12.5883   22.8343 O   0  0  0  0  0  0  0  0  0  0  0  0
   10.8311    7.5038   22.5053 H   0  0  0  0  0  0  0  0  0  0  0  0
    8.8872    6.4734   23.6498 H   0  0  0  0  0  0  0  0  0  0  0  0
   17.2856   10.6925   27.5010 H   0  0  0  0  0  0  0  0  0  0  0  0
   11.0687    9.9403   22.4391 H   0  0  0  0  0  0  0  0  0  0  0  0
    7.1867    7.8882   24.7250 H   0  0  0  0  0  0  0  0  0  0  0  0
   16.0767   10.3092   25.0867 H   0  0  0  0  0  0  0  0  0  0  0  0
    8.4267   13.5897   24.1562 H   0  0  0  0  0  0  0  0  0  0  0  0
   16.9420   13.3864   28.0192 H   0  0  0  0  0  0  0  0  0  0  0  0
    5.4456   12.8758   24.7369 H   0  0  0  0  0  0  0  0  0  0  0  0
    5.8231   12.0969   26.2933 H   0  0  0  0  0  0  0  0  0  0  0  0
    6.6477   13.5879   25.8413 H   0  0  0  0  0  0  0  0  0  0  0  0
   15.2440   13.8582   20.1754 H   0  0  0  0  0  0  0  0  0  0  0  0
   15.4655   12.0954   20.2973 H   0  0  0  0  0  0  0  0  0  0  0  0
   13.8650   12.7522   19.9586 H   0  0  0  0  0  0  0  0  0  0  0  0
   12.1808   15.0625   22.2287 H   0  0  0  0  0  0  0  0  0  0  0  0
   11.8776   13.5895   21.3152 H   0  0  0  0  0  0  0  0  0  0  0  0
   10.8193   11.9078   22.1142 H   0  0  0  0  0  0  0  0  0  0  0  0
  1  2  2  0  0  0  0
  1  4  1  0  0  0  0
  2  5  1  0  0  0  0
  3  6  1  0  0  0  0
  3  8  2  0  0  0  0
  4  9  2  0  0  0  0
  5 10  2  0  0  0  0
  6 12  2  0  0  0  0
  7 11  2  0  0  0  0
  7 13  1  0  0  0  0
  8 25  1  0  0  0  0
  9 10  1  0  0  0  0
  9 11  1  0  0  0  0
 10 21  1  0  0  0  0
 11 23  1  0  0  0  0
 12 16  1  0  0  0  0
 12 25  1  0  0  0  0
 13 18  1  0  0  0  0
 13 21  2  0  0  0  0
 14 15  2  0  0  0  0
 14 20  1  0  0  0  0
 14 22  1  0  0  0  0
 15 19  1  0  0  0  0
 15 26  1  0  0  0  0
 16 22  2  0  0  0  0
 16 26  1  0  0  0  0
 17 20  1  0  0  0  0
 17 23  1  0  0  0  0
 17 24  2  0  0  0  0
  1 27  1  0  0  0  0
  2 28  1  0  0  0  0
  3 29  1  0  0  0  0
  4 30  1  0  0  0  0
  5 31  1  0  0  0  0
  6 32  1  0  0  0  0
  7 33  1  0  0  0  0
  8 34  1  0  0  0  0
 18 35  1  0  0  0  0
 18 36  1  0  0  0  0
 18 37  1  0  0  0  0
 19 38  1  0  0  0  0
 19 39  1  0  0  0  0
 19 40  1  0  0  0  0
 20 41  1  0  0  0  0
 20 42  1  0  0  0  0
 23 43  1  0  0  0  0
M  END
> <Catalog ID>
Z981810422

> <PlateID>
1041831-R-23

> <Well>
A05

> <MW (desalted)>
347.367

> <ClogP>
3.295

> <HBD>
1

> <TPSA>
81.160

> <RotBonds>
4

> <ROCS_ShapeQuery>
A71EV2A-x0451_0A_A71EV2A-x0310_0A_A71EV2A-x0416_0A_peptide

> <ROCS_TanimotoCombo>
0.531 

> <ROCS_ShapeTanimoto>
0.338 

> <ROCS_ColorTanimoto>
0.193 

> <ROCS_RefTversky>
0.308 

> <ROCS_RefColorTversky>
0.215 

> <ROCS_RefTverskyCombo>
0.524 

> <ROCS_FitTversky>
1.407 

> <ROCS_FitColorTversky>
0.649 

> <ROCS_FitTverskyCombo>
2.056 

> <ROCS_ColorScore>
-6.587

> <ROCS_Overlap>
2143.342

> <ROCS_Rank>
209                 

$$$$
untitled-dbase-1020_322
  -OEChem-11132311063D

 47 50  0     0  0  0  0  0  0999 V2000
    4.4365   13.0213   28.1895 C   0  0  0  0  0  0  0  0  0  0  0  0
   12.0407   13.8466   22.0400 C   0  0  0  0  0  0  0  0  0  0  0  0
   10.6899   15.1552   20.5234 C   0  0  0  0  0  0  0  0  0  0  0  0
   13.1893   14.2297   21.3476 C   0  0  0  0  0  0  0  0  0  0  0  0
   11.8386   15.5384   19.8310 C   0  0  0  0  0  0  0  0  0  0  0  0
    4.9856   13.1977   26.8970 C   0  0  0  0  0  0  0  0  0  0  0  0
    7.8450   12.9753   25.2817 C   0  0  0  0  0  0  0  0  0  0  0  0
    5.1885   12.0406   28.7934 C   0  0  0  0  0  0  0  0  0  0  0  0
    8.7502   11.3112   23.8303 C   0  0  0  0  0  0  0  0  0  0  0  0
    8.7575   12.6366   24.2825 C   0  0  0  0  0  0  0  0  0  0  0  0
   10.7910   14.3093   21.6279 C   0  0  0  0  0  0  0  0  0  0  0  0
   13.0883   15.0756   20.2431 C   0  0  0  0  0  0  0  0  0  0  0  0
    6.9879   11.9949   25.7704 C   0  0  0  0  0  0  0  0  0  0  0  0
    6.0342   12.3124   26.8033 C   0  0  0  0  0  0  0  0  0  0  0  0
    9.4414   10.5228   22.8889 C   0  0  0  0  0  0  0  0  0  0  0  0
    7.8425   10.4344   24.4036 C   0  0  0  0  0  0  0  0  0  0  0  0
    9.6711   13.6267   23.7442 C   0  0  0  0  0  0  0  0  0  0  0  0
   10.5281   10.9355   21.9831 C   0  0  0  0  0  0  0  0  0  0  0  0
    7.5739   15.0949   21.6592 C   0  0  0  0  0  0  0  0  0  0  0  0
    7.3367    8.0002   24.0507 C   0  0  0  0  0  0  0  0  0  0  0  0
    8.3152   13.8017   21.6343 C   0  0  0  0  0  0  0  0  0  0  0  0
    6.9428   10.7024   25.3660 N   0  0  0  0  0  0  0  0  0  0  0  0
    9.0153    9.2557   22.8616 N   0  0  0  0  0  0  0  0  0  0  0  0
    8.0439    9.2322   23.7922 N   0  0  0  0  0  0  0  0  0  0  0  0
    9.5969   13.9109   22.3474 N   0  0  0  0  0  0  0  0  0  0  0  0
   10.4961   14.1873   24.4819 O   0  0  0  0  0  0  0  0  0  0  0  0
    6.1646   11.6033   27.9552 O   0  0  0  0  0  0  0  0  0  0  0  0
   14.1913   15.4446   19.5786 F   0  0  0  0  0  0  0  0  0  0  0  0
    3.5976   13.5436   28.6260 H   0  0  0  0  0  0  0  0  0  0  0  0
   12.1316   13.1867   22.8991 H   0  0  0  0  0  0  0  0  0  0  0  0
    9.7211   15.5199   20.1919 H   0  0  0  0  0  0  0  0  0  0  0  0
   14.1623   13.8691   21.6676 H   0  0  0  0  0  0  0  0  0  0  0  0
   11.7604   16.1979   18.9718 H   0  0  0  0  0  0  0  0  0  0  0  0
    4.6541   13.8864   26.1326 H   0  0  0  0  0  0  0  0  0  0  0  0
    7.8101   13.9906   25.6686 H   0  0  0  0  0  0  0  0  0  0  0  0
    5.1592   11.5671   29.7639 H   0  0  0  0  0  0  0  0  0  0  0  0
   11.5157   10.7981   22.4551 H   0  0  0  0  0  0  0  0  0  0  0  0
   10.5260   10.3594   21.0411 H   0  0  0  0  0  0  0  0  0  0  0  0
   10.4442   11.9967   21.6889 H   0  0  0  0  0  0  0  0  0  0  0  0
    8.1816   15.8759   21.1789 H   0  0  0  0  0  0  0  0  0  0  0  0
    6.6241   14.9834   21.1157 H   0  0  0  0  0  0  0  0  0  0  0  0
    7.3685   15.3796   22.7017 H   0  0  0  0  0  0  0  0  0  0  0  0
    6.4694    7.9634   23.3863 H   0  0  0  0  0  0  0  0  0  0  0  0
    8.0006    7.1524   23.8601 H   0  0  0  0  0  0  0  0  0  0  0  0
    7.0193    7.9784   25.0970 H   0  0  0  0  0  0  0  0  0  0  0  0
    7.7012   13.0265   22.1161 H   0  0  0  0  0  0  0  0  0  0  0  0
    8.5088   13.5189   20.5890 H   0  0  0  0  0  0  0  0  0  0  0  0
  1  6  1  0  0  0  0
  1  8  2  0  0  0  0
  2  4  1  0  0  0  0
  2 11  2  0  0  0  0
  3  5  2  0  0  0  0
  3 11  1  0  0  0  0
  4 12  2  0  0  0  0
  5 12  1  0  0  0  0
  6 14  2  0  0  0  0
  7 10  1  0  0  0  0
  7 13  2  0  0  0  0
  8 27  1  0  0  0  0
  9 10  2  0  0  0  0
  9 15  1  0  0  0  0
  9 16  1  0  0  0  0
 10 17  1  0  0  0  0
 11 25  1  0  0  0  0
 12 28  1  0  0  0  0
 13 14  1  0  0  0  0
 13 22  1  0  0  0  0
 14 27  1  0  0  0  0
 15 18  1  0  0  0  0
 15 23  2  0  0  0  0
 16 22  2  0  0  0  0
 16 24  1  0  0  0  0
 17 25  1  0  0  0  0
 17 26  2  0  0  0  0
 19 21  1  0  0  0  0
 20 24  1  0  0  0  0
 21 25  1  0  0  0  0
 23 24  1  0  0  0  0
  1 29  1  0  0  0  0
  2 30  1  0  0  0  0
  3 31  1  0  0  0  0
  4 32  1  0  0  0  0
  5 33  1  0  0  0  0
  6 34  1  0  0  0  0
  7 35  1  0  0  0  0
  8 36  1  0  0  0  0
 18 37  1  0  0  0  0
 18 38  1  0  0  0  0
 18 39  1  0  0  0  0
 19 40  1  0  0  0  0
 19 41  1  0  0  0  0
 19 42  1  0  0  0  0
 20 43  1  0  0  0  0
 20 44  1  0  0  0  0
 20 45  1  0  0  0  0
 21 46  1  0  0  0  0
 21 47  1  0  0  0  0
M  END
> <Catalog ID>
Z240461336

> <PlateID>
1041831-R-13

> <Well>
F11

> <MW (desalted)>
378.400

> <ClogP>
3.515

> <HBD>
0

> <TPSA>
64.160

> <RotBonds>
4

> <ROCS_ShapeQuery>
A71EV2A-x0451_0A_A71EV2A-x0310_0A_A71EV2A-x0416_0A_peptide

> <ROCS_TanimotoCombo>
0.531 

> <ROCS_ShapeTanimoto>
0.388 

> <ROCS_ColorTanimoto>
0.143 

> <ROCS_RefTversky>
0.344 

> <ROCS_RefColorTversky>
0.163 

> <ROCS_RefTverskyCombo>
0.507 

> <ROCS_FitTversky>
1.486 

> <ROCS_FitColorTversky>
0.540 

> <ROCS_FitTverskyCombo>
2.026 

> <ROCS_ColorScore>
-4.971

> <ROCS_Overlap>
2397.354

> <ROCS_Rank>
210                 

$$$$
untitled-dbase-3250_82
  -OEChem-11132311063D

 44 48  0     1  0  0  0  0  0999 V2000
   14.2596   16.7683   19.8416 C   0  0  0  0  0  0  0  0  0  0  0  0
   11.3110   14.6956   20.4490 C   0  0  0  0  0  0  0  0  0  0  0  0
   12.2099   15.4015   22.5389 C   0  0  0  0  0  0  0  0  0  0  0  0
   14.0604   16.5830   18.4929 C   0  0  0  0  0  0  0  0  0  0  0  0
   11.2499   14.6975   21.8364 C   0  0  0  0  0  0  0  0  0  0  0  0
   13.2787   16.0978   20.6330 C   0  0  0  0  0  0  0  0  0  0  0  0
   12.3517   15.4146   19.8446 C   0  0  0  0  0  0  0  0  0  0  0  0
   10.4585    8.4258   22.7764 C   0  0  0  0  0  0  0  0  0  0  0  0
   11.0596    9.7424   23.3315 C   0  0  0  0  0  0  0  0  0  0  0  0
    9.2623    9.2611   22.2541 C   0  0  0  0  0  0  0  0  0  0  0  0
    7.4217   12.2047   24.7612 C   0  0  0  0  0  0  0  0  0  0  0  0
    6.6461   10.9728   24.3082 C   0  0  0  0  0  0  0  0  0  0  0  0
    8.8874   11.8800   24.4941 C   0  0  2  0  0  0  0  0  0  0  0  0
    9.3687   11.7541   23.0166 C   0  0  2  0  0  0  0  0  0  0  0  0
    8.8818   10.3311   24.6019 C   0  0  2  0  0  0  0  0  0  0  0  0
    9.6465   10.2978   23.2894 C   0  0  0  0  0  0  0  0  0  0  0  0
    9.7754   14.5967   23.8877 C   0  0  0  0  0  0  0  0  0  0  0  0
   10.1557   13.9432   22.5607 C   0  0  2  0  0  0  0  0  0  0  0  0
   13.2238   16.1030   21.9938 N   0  0  0  0  0  0  0  0  0  0  0  0
   10.5202   12.5478   22.7625 N   0  0  0  0  0  0  0  0  0  0  0  0
    7.5080    9.8706   24.6129 O   0  0  0  0  0  0  0  0  0  0  0  0
   12.6971   15.6055   18.1715 S   0  0  0  0  0  0  0  0  0  0  0  0
   15.0735   17.3588   20.2430 H   0  0  0  0  0  0  0  0  0  0  0  0
   10.5804   14.1576   19.8526 H   0  0  0  0  0  0  0  0  0  0  0  0
   12.1908   15.4223   23.6257 H   0  0  0  0  0  0  0  0  0  0  0  0
   14.6539   16.9771   17.6796 H   0  0  0  0  0  0  0  0  0  0  0  0
   11.0517    7.9176   22.0120 H   0  0  0  0  0  0  0  0  0  0  0  0
   10.1846    7.7046   23.5552 H   0  0  0  0  0  0  0  0  0  0  0  0
   11.5366    9.6618   24.3122 H   0  0  0  0  0  0  0  0  0  0  0  0
   11.7722   10.1938   22.6319 H   0  0  0  0  0  0  0  0  0  0  0  0
    9.3889    9.5958   21.2176 H   0  0  0  0  0  0  0  0  0  0  0  0
    8.2830    8.7856   22.3483 H   0  0  0  0  0  0  0  0  0  0  0  0
    7.0878   13.1147   24.2546 H   0  0  0  0  0  0  0  0  0  0  0  0
    7.2770   12.3456   25.8392 H   0  0  0  0  0  0  0  0  0  0  0  0
    5.6953   10.8630   24.8360 H   0  0  0  0  0  0  0  0  0  0  0  0
    6.4631   10.9810   23.2289 H   0  0  0  0  0  0  0  0  0  0  0  0
    9.5787   12.3754   25.1866 H   0  0  0  0  0  0  0  0  0  0  0  0
    8.5328   11.9114   22.2654 H   0  0  0  0  0  0  0  0  0  0  0  0
    9.4188    9.9380   25.4715 H   0  0  0  0  0  0  0  0  0  0  0  0
   10.6364   14.6486   24.5630 H   0  0  0  0  0  0  0  0  0  0  0  0
    9.4115   15.6171   23.7228 H   0  0  0  0  0  0  0  0  0  0  0  0
    8.9765   14.0491   24.4002 H   0  0  0  0  0  0  0  0  0  0  0  0
    9.2577   13.9202   21.9312 H   0  0  0  0  0  0  0  0  0  0  0  0
   10.9895   12.1987   21.9277 H   0  0  0  0  0  0  0  0  0  0  0  0
  1  4  2  0  0  0  0
  1  6  1  0  0  0  0
  2  5  1  0  0  0  0
  2  7  2  0  0  0  0
  3  5  2  0  0  0  0
  3 19  1  0  0  0  0
  4 22  1  0  0  0  0
  5 18  1  0  0  0  0
  6  7  1  0  0  0  0
  6 19  2  0  0  0  0
  7 22  1  0  0  0  0
  8  9  1  0  0  0  0
  8 10  1  0  0  0  0
  9 16  1  0  0  0  0
 10 16  1  0  0  0  0
 11 12  1  0  0  0  0
 11 13  1  0  0  0  0
 12 21  1  0  0  0  0
 13 14  1  0  0  0  0
 13 15  1  0  0  0  0
 14 16  1  0  0  0  0
 14 20  1  0  0  0  0
 15 16  1  0  0  0  0
 15 21  1  0  0  0  0
 17 18  1  0  0  0  0
 18 20  1  0  0  0  0
  1 23  1  0  0  0  0
  2 24  1  0  0  0  0
  3 25  1  0  0  0  0
  4 26  1  0  0  0  0
  8 27  1  0  0  0  0
  8 28  1  0  0  0  0
  9 29  1  0  0  0  0
  9 30  1  0  0  0  0
 10 31  1  0  0  0  0
 10 32  1  0  0  0  0
 11 33  1  0  0  0  0
 11 34  1  0  0  0  0
 12 35  1  0  0  0  0
 12 36  1  0  0  0  0
 13 37  1  0  0  0  0
 14 38  1  0  0  0  0
 15 39  1  0  0  0  0
 17 40  1  0  0  0  0
 17 41  1  0  0  0  0
 17 42  1  0  0  0  0
 18 43  1  0  0  0  0
 20 44  1  0  0  0  0
M  END
> <Catalog ID>
Z1701585379

> <PlateID>
1041831-R-41

> <Well>
E11

> <MW (desalted)>
314.445

> <ClogP>
3.000

> <HBD>
1

> <TPSA>
34.150

> <RotBonds>
3

> <ROCS_ShapeQuery>
A71EV2A-x0451_0A_A71EV2A-x0310_0A_A71EV2A-x0416_0A_peptide

> <ROCS_TanimotoCombo>
0.531 

> <ROCS_ShapeTanimoto>
0.343 

> <ROCS_ColorTanimoto>
0.188 

> <ROCS_RefTversky>
0.304 

> <ROCS_RefColorTversky>
0.227 

> <ROCS_RefTverskyCombo>
0.531 

> <ROCS_FitTversky>
1.606 

> <ROCS_FitColorTversky>
0.520 

> <ROCS_FitTverskyCombo>
2.126 

> <ROCS_ColorScore>
-6.994

> <ROCS_Overlap>
2109.442

> <ROCS_Rank>
211                 

$$$$
untitled-dbase-2089_2139
  -OEChem-11132311063D

 55 58  0     1  0  0  0  0  0999 V2000
   13.4809   15.5037   17.7907 C   0  0  0  0  0  0  0  0  0  0  0  0
   12.6556   15.0890   18.8300 C   0  0  0  0  0  0  0  0  0  0  0  0
   14.3598   17.1826   19.2279 C   0  0  0  0  0  0  0  0  0  0  0  0
   14.3522   16.5697   17.9853 C   0  0  0  0  0  0  0  0  0  0  0  0
   12.7393   15.7680   20.0349 C   0  0  0  0  0  0  0  0  0  0  0  0
   10.6373   12.9994   23.6736 C   0  0  0  0  0  0  0  0  0  0  0  0
    7.4426   12.2500   26.8514 C   0  0  0  0  0  0  0  0  0  0  0  0
    8.1694   11.1204   26.1258 C   0  0  0  0  0  0  0  0  0  0  0  0
   12.7774   14.1195   23.0020 C   0  0  0  0  0  0  0  0  0  0  0  0
   11.2843   12.9899   21.2665 C   0  0  0  0  0  0  0  0  0  0  0  0
   12.2820   15.4685   22.4746 C   0  0  0  0  0  0  0  0  0  0  0  0
   10.8295   14.3815   20.8118 C   0  0  0  0  0  0  0  0  0  0  0  0
   10.1029   10.6675   23.0487 C   0  0  0  0  0  0  0  0  0  0  0  0
    8.2527   12.1169   23.7616 C   0  0  0  0  0  0  0  0  0  0  0  0
    5.9392   12.1594   26.6385 C   0  0  0  0  0  0  0  0  0  0  0  0
    6.1820   10.9633   24.6172 C   0  0  0  0  0  0  0  0  0  0  0  0
   11.7981   12.9744   22.7121 C   0  0  0  0  0  0  0  0  0  0  0  0
    9.5524    9.5670   23.9527 C   0  0  2  0  0  0  0  0  0  0  0  0
    7.7206   10.9755   24.6550 C   0  0  2  0  0  0  0  0  0  0  0  0
    9.8071    8.1921   23.3477 C   0  0  0  0  0  0  0  0  0  0  0  0
   13.5730   16.8078   20.2614 N   0  0  0  0  0  0  0  0  0  0  0  0
   11.9080   15.3411   21.0650 N   0  0  0  0  0  0  0  0  0  0  0  0
    9.6959   11.9811   23.5411 N   0  0  0  0  0  0  0  0  0  0  0  0
   10.5687   13.8998   24.5142 O   0  0  0  0  0  0  0  0  0  0  0  0
    5.6272   12.1148   25.2478 O   0  0  0  0  0  0  0  0  0  0  0  0
    8.1373    9.7098   24.1121 O   0  0  0  0  0  0  0  0  0  0  0  0
   15.3844   17.1085   16.7262 Cl  0  0  0  0  0  0  0  0  0  0  0  0
   13.4371   14.9872   16.8354 H   0  0  0  0  0  0  0  0  0  0  0  0
   11.9727   14.2579   18.6867 H   0  0  0  0  0  0  0  0  0  0  0  0
   15.0171   18.0197   19.4426 H   0  0  0  0  0  0  0  0  0  0  0  0
    7.6633   12.1840   27.9269 H   0  0  0  0  0  0  0  0  0  0  0  0
    7.8154   13.2235   26.5049 H   0  0  0  0  0  0  0  0  0  0  0  0
    9.2541   11.3226   26.1578 H   0  0  0  0  0  0  0  0  0  0  0  0
    8.0248   10.1876   26.6919 H   0  0  0  0  0  0  0  0  0  0  0  0
   13.7326   13.8853   22.5243 H   0  0  0  0  0  0  0  0  0  0  0  0
   12.9634   14.1994   24.0751 H   0  0  0  0  0  0  0  0  0  0  0  0
   10.4530   12.2867   21.1517 H   0  0  0  0  0  0  0  0  0  0  0  0
   12.0879   12.6460   20.6056 H   0  0  0  0  0  0  0  0  0  0  0  0
   11.4228   15.8067   23.0606 H   0  0  0  0  0  0  0  0  0  0  0  0
   13.0815   16.2048   22.5938 H   0  0  0  0  0  0  0  0  0  0  0  0
   10.6012   14.3378   19.7458 H   0  0  0  0  0  0  0  0  0  0  0  0
    9.9245   14.6800   21.3413 H   0  0  0  0  0  0  0  0  0  0  0  0
   11.1938   10.5949   22.9718 H   0  0  0  0  0  0  0  0  0  0  0  0
    9.6923   10.5779   22.0340 H   0  0  0  0  0  0  0  0  0  0  0  0
    7.7937   12.0616   22.7657 H   0  0  0  0  0  0  0  0  0  0  0  0
    7.9875   13.0898   24.1828 H   0  0  0  0  0  0  0  0  0  0  0  0
    5.5521   11.2438   27.0972 H   0  0  0  0  0  0  0  0  0  0  0  0
    5.4183   13.0062   27.1015 H   0  0  0  0  0  0  0  0  0  0  0  0
    5.8022   10.8992   23.5869 H   0  0  0  0  0  0  0  0  0  0  0  0
    5.7956   10.0926   25.1644 H   0  0  0  0  0  0  0  0  0  0  0  0
   12.3035   12.0173   22.8932 H   0  0  0  0  0  0  0  0  0  0  0  0
   10.0368    9.5987   24.9333 H   0  0  0  0  0  0  0  0  0  0  0  0
    9.3374    8.1238   22.3665 H   0  0  0  0  0  0  0  0  0  0  0  0
    9.3920    7.4182   23.9933 H   0  0  0  0  0  0  0  0  0  0  0  0
   10.8789    8.0254   23.2393 H   0  0  0  0  0  0  0  0  0  0  0  0
  1  2  1  0  0  0  0
  1  4  2  0  0  0  0
  2  5  2  0  0  0  0
  3  4  1  0  0  0  0
  3 21  2  0  0  0  0
  4 27  1  0  0  0  0
  5 21  1  0  0  0  0
  5 22  1  0  0  0  0
  6 17  1  0  0  0  0
  6 23  1  0  0  0  0
  6 24  2  0  0  0  0
  7  8  1  0  0  0  0
  7 15  1  0  0  0  0
  8 19  1  0  0  0  0
  9 11  1  0  0  0  0
  9 17  1  0  0  0  0
 10 12  1  0  0  0  0
 10 17  1  0  0  0  0
 11 22  1  0  0  0  0
 12 22  1  0  0  0  0
 13 18  1  0  0  0  0
 13 23  1  0  0  0  0
 14 19  1  0  0  0  0
 14 23  1  0  0  0  0
 15 25  1  0  0  0  0
 16 19  1  0  0  0  0
 16 25  1  0  0  0  0
 18 20  1  0  0  0  0
 18 26  1  0  0  0  0
 19 26  1  0  0  0  0
  1 28  1  0  0  0  0
  2 29  1  0  0  0  0
  3 30  1  0  0  0  0
  7 31  1  0  0  0  0
  7 32  1  0  0  0  0
  8 33  1  0  0  0  0
  8 34  1  0  0  0  0
  9 35  1  0  0  0  0
  9 36  1  0  0  0  0
 10 37  1  0  0  0  0
 10 38  1  0  0  0  0
 11 39  1  0  0  0  0
 11 40  1  0  0  0  0
 12 41  1  0  0  0  0
 12 42  1  0  0  0  0
 13 43  1  0  0  0  0
 13 44  1  0  0  0  0
 14 45  1  0  0  0  0
 14 46  1  0  0  0  0
 15 47  1  0  0  0  0
 15 48  1  0  0  0  0
 16 49  1  0  0  0  0
 16 50  1  0  0  0  0
 17 51  1  0  0  0  0
 18 52  1  0  0  0  0
 20 53  1  0  0  0  0
 20 54  1  0  0  0  0
 20 55  1  0  0  0  0
M  END
> <Catalog ID>
Z1961544235

> <PlateID>
1041831-R-27

> <Well>
A10

> <MW (desalted)>
393.908

> <ClogP>
1.330

> <HBD>
0

> <TPSA>
54.900

> <RotBonds>
2

> <ROCS_ShapeQuery>
A71EV2A-x0451_0A_A71EV2A-x0310_0A_A71EV2A-x0416_0A_peptide

> <ROCS_TanimotoCombo>
0.531 

> <ROCS_ShapeTanimoto>
0.377 

> <ROCS_ColorTanimoto>
0.154 

> <ROCS_RefTversky>
0.333 

> <ROCS_RefColorTversky>
0.174 

> <ROCS_RefTverskyCombo>
0.507 

> <ROCS_FitTversky>
1.532 

> <ROCS_FitColorTversky>
0.577 

> <ROCS_FitTverskyCombo>
2.110 

> <ROCS_ColorScore>
-5.303

> <ROCS_Overlap>
2316.884

> <ROCS_Rank>
212                 

$$$$
untitled-dbase-434_1048
  -OEChem-11132311063D

 50 53  0     1  0  0  0  0  0999 V2000
   14.4140   16.9064   19.1039 C   0  0  0  0  0  0  0  0  0  0  0  0
   14.6813   15.5527   19.3472 C   0  0  0  0  0  0  0  0  0  0  0  0
   13.1854   17.4592   19.4622 C   0  0  0  0  0  0  0  0  0  0  0  0
   13.7225   14.7341   19.9516 C   0  0  0  0  0  0  0  0  0  0  0  0
   12.2468   16.6383   20.0689 C   0  0  0  0  0  0  0  0  0  0  0  0
   12.4945   15.2770   20.3132 C   0  0  0  0  0  0  0  0  0  0  0  0
    8.8027   11.6511   23.8740 C   0  0  0  0  0  0  0  0  0  0  0  0
    8.3899   10.3306   24.1344 C   0  0  0  0  0  0  0  0  0  0  0  0
    8.0986   12.4145   24.7729 C   0  0  0  0  0  0  0  0  0  0  0  0
   10.5461   13.2387   22.9999 C   0  0  0  0  0  0  0  0  0  0  0  0
   10.8547   17.0169   20.4968 C   0  0  0  0  0  0  0  0  0  0  0  0
   10.3959   15.8171   21.3615 C   0  0  0  0  0  0  0  0  0  0  0  0
   10.6953   13.3847   20.4435 C   0  0  0  0  0  0  0  0  0  0  0  0
   11.3681   13.3900   21.7925 C   0  0  1  0  0  0  0  0  0  0  0  0
   11.3039   14.6579   20.9715 C   0  0  1  0  0  0  0  0  0  0  0  0
    8.8259    9.0966   23.4568 C   0  0  0  0  0  0  0  0  0  0  0  0
    8.0788   13.8707   25.0123 C   0  0  0  0  0  0  0  0  0  0  0  0
    4.0922   13.6027   27.3862 C   0  0  0  0  0  0  0  0  0  0  0  0
    6.4200   11.8585   26.5588 C   0  0  0  0  0  0  0  0  0  0  0  0
    4.9660   11.8355   26.1070 C   0  0  0  0  0  0  0  0  0  0  0  0
    7.4932   10.2558   25.1215 N   0  0  0  0  0  0  0  0  0  0  0  0
    7.3368   11.5389   25.4894 N   0  0  0  0  0  0  0  0  0  0  0  0
    9.7282   12.1194   22.9115 N   0  0  0  0  0  0  0  0  0  0  0  0
   10.6340   14.0405   23.9241 O   0  0  0  0  0  0  0  0  0  0  0  0
    4.1213   12.1952   27.1925 O   0  0  0  0  0  0  0  0  0  0  0  0
   15.1688   17.5274   18.6296 H   0  0  0  0  0  0  0  0  0  0  0  0
   15.6429   15.1350   19.0614 H   0  0  0  0  0  0  0  0  0  0  0  0
   12.9733   18.5049   19.2672 H   0  0  0  0  0  0  0  0  0  0  0  0
   13.9439   13.6867   20.1309 H   0  0  0  0  0  0  0  0  0  0  0  0
   10.8352   17.9473   21.0718 H   0  0  0  0  0  0  0  0  0  0  0  0
   10.2160   17.1178   19.6126 H   0  0  0  0  0  0  0  0  0  0  0  0
   10.5476   16.0596   22.4208 H   0  0  0  0  0  0  0  0  0  0  0  0
    9.3317   15.6075   21.2110 H   0  0  0  0  0  0  0  0  0  0  0  0
   11.1963   12.8598   19.6380 H   0  0  0  0  0  0  0  0  0  0  0  0
    9.6148   13.3046   20.4057 H   0  0  0  0  0  0  0  0  0  0  0  0
   12.3231   12.8779   21.8512 H   0  0  0  0  0  0  0  0  0  0  0  0
    9.7073    8.6577   23.9541 H   0  0  0  0  0  0  0  0  0  0  0  0
    8.0337    8.3274   23.4429 H   0  0  0  0  0  0  0  0  0  0  0  0
    9.0935    9.2745   22.4002 H   0  0  0  0  0  0  0  0  0  0  0  0
    7.3118   14.3648   24.3935 H   0  0  0  0  0  0  0  0  0  0  0  0
    7.8659   14.1140   26.0673 H   0  0  0  0  0  0  0  0  0  0  0  0
    9.0499   14.3413   24.7812 H   0  0  0  0  0  0  0  0  0  0  0  0
    3.4353   13.8422   28.2259 H   0  0  0  0  0  0  0  0  0  0  0  0
    3.7307   14.0891   26.4767 H   0  0  0  0  0  0  0  0  0  0  0  0
    5.1036   13.9522   27.6065 H   0  0  0  0  0  0  0  0  0  0  0  0
    6.5939   11.1405   27.3687 H   0  0  0  0  0  0  0  0  0  0  0  0
    6.6911   12.8542   26.9282 H   0  0  0  0  0  0  0  0  0  0  0  0
    4.8149   12.5678   25.3077 H   0  0  0  0  0  0  0  0  0  0  0  0
    4.6681   10.8471   25.7421 H   0  0  0  0  0  0  0  0  0  0  0  0
    9.7927   11.5627   22.0618 H   0  0  0  0  0  0  0  0  0  0  0  0
  1  2  2  0  0  0  0
  1  3  1  0  0  0  0
  2  4  1  0  0  0  0
  3  5  2  0  0  0  0
  4  6  2  0  0  0  0
  5  6  1  0  0  0  0
  5 11  1  0  0  0  0
  6 15  1  0  0  0  0
  7  8  1  0  0  0  0
  7  9  2  0  0  0  0
  7 23  1  0  0  0  0
  8 16  1  0  0  0  0
  8 21  2  0  0  0  0
  9 17  1  0  0  0  0
  9 22  1  0  0  0  0
 10 14  1  0  0  0  0
 10 23  1  0  0  0  0
 10 24  2  0  0  0  0
 11 12  1  0  0  0  0
 12 15  1  0  0  0  0
 13 14  1  0  0  0  0
 13 15  1  0  0  0  0
 14 15  1  0  0  0  0
 18 25  1  0  0  0  0
 19 20  1  0  0  0  0
 19 22  1  0  0  0  0
 20 25  1  0  0  0  0
 21 22  1  0  0  0  0
  1 26  1  0  0  0  0
  2 27  1  0  0  0  0
  3 28  1  0  0  0  0
  4 29  1  0  0  0  0
 11 30  1  0  0  0  0
 11 31  1  0  0  0  0
 12 32  1  0  0  0  0
 12 33  1  0  0  0  0
 13 34  1  0  0  0  0
 13 35  1  0  0  0  0
 14 36  1  0  0  0  0
 16 37  1  0  0  0  0
 16 38  1  0  0  0  0
 16 39  1  0  0  0  0
 17 40  1  0  0  0  0
 17 41  1  0  0  0  0
 17 42  1  0  0  0  0
 18 43  1  0  0  0  0
 18 44  1  0  0  0  0
 18 45  1  0  0  0  0
 19 46  1  0  0  0  0
 19 47  1  0  0  0  0
 20 48  1  0  0  0  0
 20 49  1  0  0  0  0
 23 50  1  0  0  0  0
M  END
> <Catalog ID>
Z1355110637

> <PlateID>
1041831-R-06

> <Well>
D05

> <MW (desalted)>
339.431

> <ClogP>
1.512

> <HBD>
1

> <TPSA>
56.150

> <RotBonds>
5

> <ROCS_ShapeQuery>
A71EV2A-x0451_0A_A71EV2A-x0310_0A_A71EV2A-x0416_0A_peptide

> <ROCS_TanimotoCombo>
0.531 

> <ROCS_ShapeTanimoto>
0.339 

> <ROCS_ColorTanimoto>
0.191 

> <ROCS_RefTversky>
0.306 

> <ROCS_RefColorTversky>
0.204 

> <ROCS_RefTverskyCombo>
0.510 

> <ROCS_FitTversky>
1.478 

> <ROCS_FitColorTversky>
0.754 

> <ROCS_FitTverskyCombo>
2.232 

> <ROCS_ColorScore>
-6.217

> <ROCS_Overlap>
2126.398

> <ROCS_Rank>
213                 

$$$$
untitled-dbase-791_345
  -OEChem-11132311063D

 47 50  0     1  0  0  0  0  0999 V2000
   13.2478   16.6355   20.7150 C   0  0  0  0  0  0  0  0  0  0  0  0
   11.8909   16.3963   20.4977 C   0  0  0  0  0  0  0  0  0  0  0  0
   13.9233   15.9519   21.7260 C   0  0  0  0  0  0  0  0  0  0  0  0
   11.2095   15.4736   21.2914 C   0  0  0  0  0  0  0  0  0  0  0  0
   13.2419   15.0292   22.5197 C   0  0  0  0  0  0  0  0  0  0  0  0
    6.2073   13.5925   26.2221 C   0  0  0  0  0  0  0  0  0  0  0  0
    4.0580   13.6116   26.6583 C   0  0  0  0  0  0  0  0  0  0  0  0
   11.8850   14.7900   22.3024 C   0  0  0  0  0  0  0  0  0  0  0  0
    6.0045   12.2322   26.3250 C   0  0  0  0  0  0  0  0  0  0  0  0
   11.1661   13.8167   23.1397 C   0  0  0  0  0  0  0  0  0  0  0  0
    7.2923   10.3559   23.2598 C   0  0  0  0  0  0  0  0  0  0  0  0
    8.2280    9.4012   24.0051 C   0  0  0  0  0  0  0  0  0  0  0  0
    8.7012   12.4783   23.1644 C   0  0  0  0  0  0  0  0  0  0  0  0
   10.2595   10.8889   24.4056 C   0  0  0  0  0  0  0  0  0  0  0  0
    7.5614   11.7284   23.8867 C   0  0  2  0  0  0  0  0  0  0  0  0
    8.9696   10.2917   25.0082 C   0  0  1  0  0  0  0  0  0  0  0  0
    9.9951   11.6494   23.0941 C   0  0  0  0  0  0  0  0  0  0  0  0
   12.1649   11.8237   21.9292 C   0  0  0  0  0  0  0  0  0  0  0  0
    6.9807   11.1011   26.1774 C   0  0  0  0  0  0  0  0  0  0  0  0
    5.0922   14.3850   26.4125 N   0  0  0  0  0  0  0  0  0  0  0  0
    8.0556   11.4251   25.2426 N   0  0  0  0  0  0  0  0  0  0  0  0
   11.1205   12.4734   22.7290 N   0  0  0  0  0  0  0  0  0  0  0  0
   10.6569   14.2561   24.1701 O   0  0  0  0  0  0  0  0  0  0  0  0
    4.3548   11.9214   26.6760 S   0  0  0  0  0  0  0  0  0  0  0  0
   13.7783   17.3540   20.0971 H   0  0  0  0  0  0  0  0  0  0  0  0
   11.3650   16.9288   19.7106 H   0  0  0  0  0  0  0  0  0  0  0  0
   14.9799   16.1379   21.8950 H   0  0  0  0  0  0  0  0  0  0  0  0
   10.1522   15.2949   21.1134 H   0  0  0  0  0  0  0  0  0  0  0  0
   13.7785   14.5024   23.3046 H   0  0  0  0  0  0  0  0  0  0  0  0
    7.1565   14.0654   26.0074 H   0  0  0  0  0  0  0  0  0  0  0  0
    3.0705   14.0125   26.8408 H   0  0  0  0  0  0  0  0  0  0  0  0
    7.4698   10.3410   22.1795 H   0  0  0  0  0  0  0  0  0  0  0  0
    6.2522   10.0518   23.4268 H   0  0  0  0  0  0  0  0  0  0  0  0
    7.6339    8.6419   24.5276 H   0  0  0  0  0  0  0  0  0  0  0  0
    8.9045    8.8768   23.3222 H   0  0  0  0  0  0  0  0  0  0  0  0
    8.3822   12.7465   22.1495 H   0  0  0  0  0  0  0  0  0  0  0  0
    8.8920   13.4210   23.6957 H   0  0  0  0  0  0  0  0  0  0  0  0
   10.7102   11.5664   25.1439 H   0  0  0  0  0  0  0  0  0  0  0  0
   10.9880   10.0887   24.2246 H   0  0  0  0  0  0  0  0  0  0  0  0
    6.6670   12.3615   23.8917 H   0  0  0  0  0  0  0  0  0  0  0  0
    9.2238    9.7529   25.9279 H   0  0  0  0  0  0  0  0  0  0  0  0
    9.8981   10.9201   22.2807 H   0  0  0  0  0  0  0  0  0  0  0  0
   12.9162   11.3787   22.5982 H   0  0  0  0  0  0  0  0  0  0  0  0
   11.7140   11.0353   21.3085 H   0  0  0  0  0  0  0  0  0  0  0  0
   12.6474   12.5698   21.2808 H   0  0  0  0  0  0  0  0  0  0  0  0
    7.4361   10.8557   27.1431 H   0  0  0  0  0  0  0  0  0  0  0  0
    6.4821   10.1965   25.8137 H   0  0  0  0  0  0  0  0  0  0  0  0
  1  2  2  0  0  0  0
  1  3  1  0  0  0  0
  2  4  1  0  0  0  0
  3  5  2  0  0  0  0
  4  8  2  0  0  0  0
  5  8  1  0  0  0  0
  6  9  2  0  0  0  0
  6 20  1  0  0  0  0
  7 20  2  0  0  0  0
  7 24  1  0  0  0  0
  8 10  1  0  0  0  0
  9 19  1  0  0  0  0
  9 24  1  0  0  0  0
 10 22  1  0  0  0  0
 10 23  2  0  0  0  0
 11 12  1  0  0  0  0
 11 15  1  0  0  0  0
 12 16  1  0  0  0  0
 13 15  1  0  0  0  0
 13 17  1  0  0  0  0
 14 16  1  0  0  0  0
 14 17  1  0  0  0  0
 15 21  1  0  0  0  0
 16 21  1  0  0  0  0
 17 22  1  0  0  0  0
 18 22  1  0  0  0  0
 19 21  1  0  0  0  0
  1 25  1  0  0  0  0
  2 26  1  0  0  0  0
  3 27  1  0  0  0  0
  4 28  1  0  0  0  0
  5 29  1  0  0  0  0
  6 30  1  0  0  0  0
  7 31  1  0  0  0  0
 11 32  1  0  0  0  0
 11 33  1  0  0  0  0
 12 34  1  0  0  0  0
 12 35  1  0  0  0  0
 13 36  1  0  0  0  0
 13 37  1  0  0  0  0
 14 38  1  0  0  0  0
 14 39  1  0  0  0  0
 15 40  1  0  0  0  0
 16 41  1  0  0  0  0
 17 42  1  0  0  0  0
 18 43  1  0  0  0  0
 18 44  1  0  0  0  0
 18 45  1  0  0  0  0
 19 46  1  0  0  0  0
 19 47  1  0  0  0  0
M  END
> <Catalog ID>
Z1610263076

> <PlateID>
1041831-R-10

> <Well>
H02

> <MW (desalted)>
341.470

> <ClogP>
1.111

> <HBD>
0

> <TPSA>
36.440

> <RotBonds>
4

> <ROCS_ShapeQuery>
A71EV2A-x0451_0A_A71EV2A-x0310_0A_A71EV2A-x0416_0A_peptide

> <ROCS_TanimotoCombo>
0.531 

> <ROCS_ShapeTanimoto>
0.338 

> <ROCS_ColorTanimoto>
0.193 

> <ROCS_RefTversky>
0.303 

> <ROCS_RefColorTversky>
0.225 

> <ROCS_RefTverskyCombo>
0.527 

> <ROCS_FitTversky>
1.517 

> <ROCS_FitColorTversky>
0.580 

> <ROCS_FitTverskyCombo>
2.098 

> <ROCS_ColorScore>
-6.885

> <ROCS_Overlap>
2103.642

> <ROCS_Rank>
214                 

$$$$
untitled-dbase-2454_3800
  -OEChem-11132311063D

 49 52  0     1  0  0  0  0  0999 V2000
   11.3402   15.6440   16.1721 C   0  0  0  0  0  0  0  0  0  0  0  0
   12.4660   16.3232   15.7106 C   0  0  0  0  0  0  0  0  0  0  0  0
   11.1879   15.3511   17.5323 C   0  0  0  0  0  0  0  0  0  0  0  0
   13.4731   16.7305   16.5902 C   0  0  0  0  0  0  0  0  0  0  0  0
   10.0136   10.4210   22.8386 C   0  0  0  0  0  0  0  0  0  0  0  0
    9.1583    9.4634   23.3844 C   0  0  0  0  0  0  0  0  0  0  0  0
    8.7558   12.1755   23.9276 C   0  0  0  0  0  0  0  0  0  0  0  0
   13.5587   16.2210   20.1748 C   0  0  0  0  0  0  0  0  0  0  0  0
   12.1902   15.7518   18.4380 C   0  0  0  0  0  0  0  0  0  0  0  0
   12.3624   15.6267   19.8450 C   0  0  0  0  0  0  0  0  0  0  0  0
   13.3074   16.4309   17.9471 C   0  0  0  0  0  0  0  0  0  0  0  0
    9.8158   11.7744   23.1139 C   0  0  0  0  0  0  0  0  0  0  0  0
    8.1059    9.8625   24.2090 C   0  0  0  0  0  0  0  0  0  0  0  0
    7.8919   11.2196   24.4628 C   0  0  0  0  0  0  0  0  0  0  0  0
   13.9610   13.5091   23.1804 C   0  0  0  0  0  0  0  0  0  0  0  0
   11.0582   13.9655   23.1129 C   0  0  0  0  0  0  0  0  0  0  0  0
    6.5061    9.3539   25.8115 C   0  0  0  0  0  0  0  0  0  0  0  0
    5.8582   10.6729   25.4381 C   0  0  0  0  0  0  0  0  0  0  0  0
   15.1474   12.6716   22.8348 C   0  0  0  0  0  0  0  0  0  0  0  0
   11.4125   14.9628   20.8113 C   0  0  0  0  0  0  0  0  0  0  0  0
   12.0245   14.7186   22.1958 C   0  0  2  0  0  0  0  0  0  0  0  0
   14.1211   16.7033   19.0236 N   0  0  0  0  0  0  0  0  0  0  0  0
   10.6765   12.7285   22.5701 N   0  0  0  0  0  0  0  0  0  0  0  0
   13.2120   13.9064   22.0875 N   0  0  0  0  0  0  0  0  0  0  0  0
   13.7332   13.7790   24.3538 O   0  0  0  0  0  0  0  0  0  0  0  0
   10.7293   14.4149   24.2075 O   0  0  0  0  0  0  0  0  0  0  0  0
    7.3125    8.8748   24.7316 O   0  0  0  0  0  0  0  0  0  0  0  0
    6.8573   11.6763   25.2370 O   0  0  0  0  0  0  0  0  0  0  0  0
   10.5704   15.3379   15.4689 H   0  0  0  0  0  0  0  0  0  0  0  0
   12.5639   16.5402   14.6500 H   0  0  0  0  0  0  0  0  0  0  0  0
   10.3040   14.8217   17.8764 H   0  0  0  0  0  0  0  0  0  0  0  0
   14.3496   17.2582   16.2299 H   0  0  0  0  0  0  0  0  0  0  0  0
   10.8346   10.1002   22.2022 H   0  0  0  0  0  0  0  0  0  0  0  0
    9.3240    8.4110   23.1708 H   0  0  0  0  0  0  0  0  0  0  0  0
    8.5944   13.2304   24.1372 H   0  0  0  0  0  0  0  0  0  0  0  0
   14.0600   16.3457   21.1248 H   0  0  0  0  0  0  0  0  0  0  0  0
    7.1375    9.4518   26.7033 H   0  0  0  0  0  0  0  0  0  0  0  0
    5.7408    8.5988   26.0158 H   0  0  0  0  0  0  0  0  0  0  0  0
    5.2607   10.5849   24.5221 H   0  0  0  0  0  0  0  0  0  0  0  0
    5.2006   11.0147   26.2434 H   0  0  0  0  0  0  0  0  0  0  0  0
   16.0504   13.2763   22.6531 H   0  0  0  0  0  0  0  0  0  0  0  0
   15.4210   11.9757   23.6441 H   0  0  0  0  0  0  0  0  0  0  0  0
   15.0348   12.0423   21.9375 H   0  0  0  0  0  0  0  0  0  0  0  0
   11.0880   14.0096   20.3720 H   0  0  0  0  0  0  0  0  0  0  0  0
   10.4985   15.5652   20.9029 H   0  0  0  0  0  0  0  0  0  0  0  0
   12.3383   15.6568   22.6671 H   0  0  0  0  0  0  0  0  0  0  0  0
   15.0059   17.1891   18.9707 H   0  0  0  0  0  0  0  0  0  0  0  0
   11.0953   12.4924   21.6639 H   0  0  0  0  0  0  0  0  0  0  0  0
   13.5131   13.6115   21.1622 H   0  0  0  0  0  0  0  0  0  0  0  0
  1  2  2  0  0  0  0
  1  3  1  0  0  0  0
  2  4  1  0  0  0  0
  3  9  2  0  0  0  0
  4 11  2  0  0  0  0
  5  6  1  0  0  0  0
  5 12  2  0  0  0  0
  6 13  2  0  0  0  0
  7 12  1  0  0  0  0
  7 14  2  0  0  0  0
  8 10  2  0  0  0  0
  8 22  1  0  0  0  0
  9 10  1  0  0  0  0
  9 11  1  0  0  0  0
 10 20  1  0  0  0  0
 11 22  1  0  0  0  0
 12 23  1  0  0  0  0
 13 14  1  0  0  0  0
 13 27  1  0  0  0  0
 14 28  1  0  0  0  0
 15 19  1  0  0  0  0
 15 24  1  0  0  0  0
 15 25  2  0  0  0  0
 16 21  1  0  0  0  0
 16 23  1  0  0  0  0
 16 26  2  0  0  0  0
 17 18  1  0  0  0  0
 17 27  1  0  0  0  0
 18 28  1  0  0  0  0
 20 21  1  0  0  0  0
 21 24  1  0  0  0  0
  1 29  1  0  0  0  0
  2 30  1  0  0  0  0
  3 31  1  0  0  0  0
  4 32  1  0  0  0  0
  5 33  1  0  0  0  0
  6 34  1  0  0  0  0
  7 35  1  0  0  0  0
  8 36  1  0  0  0  0
 17 37  1  0  0  0  0
 17 38  1  0  0  0  0
 18 39  1  0  0  0  0
 18 40  1  0  0  0  0
 19 41  1  0  0  0  0
 19 42  1  0  0  0  0
 19 43  1  0  0  0  0
 20 44  1  0  0  0  0
 20 45  1  0  0  0  0
 21 46  1  0  0  0  0
 22 47  1  0  0  0  0
 23 48  1  0  0  0  0
 24 49  1  0  0  0  0
M  END
> <Catalog ID>
Z31398835

> <PlateID>
1041831-R-31

> <Well>
F05

> <MW (desalted)>
379.409

> <ClogP>
1.944

> <HBD>
3

> <TPSA>
92.450

> <RotBonds>
5

> <ROCS_ShapeQuery>
A71EV2A-x0451_0A_A71EV2A-x0310_0A_A71EV2A-x0416_0A_peptide

> <ROCS_TanimotoCombo>
0.530 

> <ROCS_ShapeTanimoto>
0.352 

> <ROCS_ColorTanimoto>
0.178 

> <ROCS_RefTversky>
0.320 

> <ROCS_RefColorTversky>
0.211 

> <ROCS_RefTverskyCombo>
0.531 

> <ROCS_FitTversky>
1.401 

> <ROCS_FitColorTversky>
0.536 

> <ROCS_FitTverskyCombo>
1.937 

> <ROCS_ColorScore>
-6.469

> <ROCS_Overlap>
2225.960

> <ROCS_Rank>
215                 

$$$$
untitled-dbase-410_3212
  -OEChem-11132311063D

 58 61  0     1  0  0  0  0  0999 V2000
   13.0140   17.4459   19.5869 C   0  0  0  0  0  0  0  0  0  0  0  0
   13.8200   17.1571   18.4875 C   0  0  0  0  0  0  0  0  0  0  0  0
   12.8063   16.4947   20.5924 C   0  0  0  0  0  0  0  0  0  0  0  0
   14.4428   15.9124   18.3575 C   0  0  0  0  0  0  0  0  0  0  0  0
   14.2284   13.1283   20.6637 C   0  0  0  0  0  0  0  0  0  0  0  0
   13.4237   15.2329   20.4830 C   0  0  0  0  0  0  0  0  0  0  0  0
   13.4347   14.0611   21.2904 C   0  0  0  0  0  0  0  0  0  0  0  0
   14.2261   14.9714   19.3703 C   0  0  0  0  0  0  0  0  0  0  0  0
   10.7516   12.8680   23.7648 C   0  0  0  0  0  0  0  0  0  0  0  0
    9.9638   14.9091   21.8107 C   0  0  0  0  0  0  0  0  0  0  0  0
    7.1877   10.4838   26.2204 C   0  0  0  0  0  0  0  0  0  0  0  0
    9.8043   10.6994   22.8848 C   0  0  0  0  0  0  0  0  0  0  0  0
    9.2609   11.4818   25.1741 C   0  0  0  0  0  0  0  0  0  0  0  0
    6.5508   11.7940   26.6331 C   0  0  0  0  0  0  0  0  0  0  0  0
    6.8838   11.8224   24.3288 C   0  0  0  0  0  0  0  0  0  0  0  0
    9.2103    9.4190   23.4676 C   0  0  2  0  0  0  0  0  0  0  0  0
    7.8889   10.8331   24.9166 C   0  0  2  0  0  0  0  0  0  0  0  0
    8.9392   15.3436   20.8158 C   0  0  0  0  0  0  0  0  0  0  0  0
    8.3916    7.1195   22.9299 C   0  0  0  0  0  0  0  0  0  0  0  0
   12.7092   13.8645   22.5988 C   0  0  0  0  0  0  0  0  0  0  0  0
    8.9838    8.3771   22.3800 C   0  0  0  0  0  0  0  0  0  0  0  0
   11.4529   13.0189   22.4371 C   0  0  2  0  0  0  0  0  0  0  0  0
   14.7015   13.6866   19.5066 N   0  0  0  0  0  0  0  0  0  0  0  0
    9.9721   11.7224   23.9190 N   0  0  0  0  0  0  0  0  0  0  0  0
   10.4608   13.6305   21.6007 N   0  0  0  0  0  0  0  0  0  0  0  0
   10.8952   13.7313   24.6334 O   0  0  0  0  0  0  0  0  0  0  0  0
   10.2922   15.6716   22.7121 O   0  0  0  0  0  0  0  0  0  0  0  0
    6.2985   12.5316   25.4297 O   0  0  0  0  0  0  0  0  0  0  0  0
    7.9504    9.6704   24.0909 O   0  0  0  0  0  0  0  0  0  0  0  0
   12.5408   18.4209   19.6660 H   0  0  0  0  0  0  0  0  0  0  0  0
   13.9676   17.9106   17.7181 H   0  0  0  0  0  0  0  0  0  0  0  0
   12.1758   16.7355   21.4436 H   0  0  0  0  0  0  0  0  0  0  0  0
   15.0692   15.6881   17.5008 H   0  0  0  0  0  0  0  0  0  0  0  0
   14.5007   12.1181   20.9372 H   0  0  0  0  0  0  0  0  0  0  0  0
    7.9258   10.1834   26.9812 H   0  0  0  0  0  0  0  0  0  0  0  0
    6.4409    9.6821   26.1563 H   0  0  0  0  0  0  0  0  0  0  0  0
   10.7593   10.4893   22.3819 H   0  0  0  0  0  0  0  0  0  0  0  0
    9.1291   11.1337   22.1304 H   0  0  0  0  0  0  0  0  0  0  0  0
    9.1243   12.4678   25.6409 H   0  0  0  0  0  0  0  0  0  0  0  0
    9.8465   10.8776   25.8740 H   0  0  0  0  0  0  0  0  0  0  0  0
    5.5897   11.6315   27.1346 H   0  0  0  0  0  0  0  0  0  0  0  0
    7.1933   12.3818   27.2963 H   0  0  0  0  0  0  0  0  0  0  0  0
    7.3671   12.5672   23.6835 H   0  0  0  0  0  0  0  0  0  0  0  0
    6.0807   11.3343   23.7639 H   0  0  0  0  0  0  0  0  0  0  0  0
    9.9013    8.9853   24.2063 H   0  0  0  0  0  0  0  0  0  0  0  0
    7.9146   15.0829   21.1262 H   0  0  0  0  0  0  0  0  0  0  0  0
    8.9305   16.4359   20.6710 H   0  0  0  0  0  0  0  0  0  0  0  0
    9.0531   14.9185   19.8058 H   0  0  0  0  0  0  0  0  0  0  0  0
    9.0562    6.7010   23.6949 H   0  0  0  0  0  0  0  0  0  0  0  0
    8.2674    6.3699   22.1412 H   0  0  0  0  0  0  0  0  0  0  0  0
    7.4203    7.3175   23.3953 H   0  0  0  0  0  0  0  0  0  0  0  0
   13.3976   13.3900   23.3112 H   0  0  0  0  0  0  0  0  0  0  0  0
   12.4682   14.8426   23.0373 H   0  0  0  0  0  0  0  0  0  0  0  0
    8.3168    8.7906   21.6172 H   0  0  0  0  0  0  0  0  0  0  0  0
    9.9377    8.1486   21.8948 H   0  0  0  0  0  0  0  0  0  0  0  0
   11.6610   12.0211   22.0498 H   0  0  0  0  0  0  0  0  0  0  0  0
   15.3113   13.2232   18.8472 H   0  0  0  0  0  0  0  0  0  0  0  0
   10.1013   13.0967   20.8086 H   0  0  0  0  0  0  0  0  0  0  0  0
  1  2  2  0  0  0  0
  1  3  1  0  0  0  0
  2  4  1  0  0  0  0
  3  6  2  0  0  0  0
  4  8  2  0  0  0  0
  5  7  2  0  0  0  0
  5 23  1  0  0  0  0
  6  7  1  0  0  0  0
  6  8  1  0  0  0  0
  7 20  1  0  0  0  0
  8 23  1  0  0  0  0
  9 22  1  0  0  0  0
  9 24  1  0  0  0  0
  9 26  2  0  0  0  0
 10 18  1  0  0  0  0
 10 25  1  0  0  0  0
 10 27  2  0  0  0  0
 11 14  1  0  0  0  0
 11 17  1  0  0  0  0
 12 16  1  0  0  0  0
 12 24  1  0  0  0  0
 13 17  1  0  0  0  0
 13 24  1  0  0  0  0
 14 28  1  0  0  0  0
 15 17  1  0  0  0  0
 15 28  1  0  0  0  0
 16 21  1  0  0  0  0
 16 29  1  0  0  0  0
 17 29  1  0  0  0  0
 19 21  1  0  0  0  0
 20 22  1  0  0  0  0
 22 25  1  0  0  0  0
  1 30  1  0  0  0  0
  2 31  1  0  0  0  0
  3 32  1  0  0  0  0
  4 33  1  0  0  0  0
  5 34  1  0  0  0  0
 11 35  1  0  0  0  0
 11 36  1  0  0  0  0
 12 37  1  0  0  0  0
 12 38  1  0  0  0  0
 13 39  1  0  0  0  0
 13 40  1  0  0  0  0
 14 41  1  0  0  0  0
 14 42  1  0  0  0  0
 15 43  1  0  0  0  0
 15 44  1  0  0  0  0
 16 45  1  0  0  0  0
 18 46  1  0  0  0  0
 18 47  1  0  0  0  0
 18 48  1  0  0  0  0
 19 49  1  0  0  0  0
 19 50  1  0  0  0  0
 19 51  1  0  0  0  0
 20 52  1  0  0  0  0
 20 53  1  0  0  0  0
 21 54  1  0  0  0  0
 21 55  1  0  0  0  0
 22 56  1  0  0  0  0
 23 57  1  0  0  0  0
 25 58  1  0  0  0  0
M  END
> <Catalog ID>
Z1954658702

> <PlateID>
1041831-R-06

> <Well>
A11

> <MW (desalted)>
399.483

> <ClogP>
1.358

> <HBD>
2

> <TPSA>
83.660

> <RotBonds>
5

> <ROCS_ShapeQuery>
A71EV2A-x0451_0A_A71EV2A-x0310_0A_A71EV2A-x0416_0A_peptide

> <ROCS_TanimotoCombo>
0.530 

> <ROCS_ShapeTanimoto>
0.360 

> <ROCS_ColorTanimoto>
0.170 

> <ROCS_RefTversky>
0.326 

> <ROCS_RefColorTversky>
0.203 

> <ROCS_RefTverskyCombo>
0.529 

> <ROCS_FitTversky>
1.407 

> <ROCS_FitColorTversky>
0.516 

> <ROCS_FitTverskyCombo>
1.922 

> <ROCS_ColorScore>
-6.216

> <ROCS_Overlap>
2270.350

> <ROCS_Rank>
216                 

$$$$
untitled-dbase-2772_4262
  -OEChem-11132311063D

 42 44  0     0  0  0  0  0  0999 V2000
   14.2437   11.2109   26.3924 C   0  0  0  0  0  0  0  0  0  0  0  0
   13.7054   11.4243   25.1283 C   0  0  0  0  0  0  0  0  0  0  0  0
    8.6581   12.4563   24.0686 C   0  0  0  0  0  0  0  0  0  0  0  0
    7.5997   11.7534   24.6441 C   0  0  0  0  0  0  0  0  0  0  0  0
   14.3637   15.7276   20.5020 C   0  0  0  0  0  0  0  0  0  0  0  0
   11.9656   15.5548   20.5630 C   0  0  0  0  0  0  0  0  0  0  0  0
    8.6168    9.6686   23.9685 C   0  0  0  0  0  0  0  0  0  0  0  0
   15.2189   12.0883   26.8386 C   0  0  0  0  0  0  0  0  0  0  0  0
   14.2549   16.0136   19.1507 C   0  0  0  0  0  0  0  0  0  0  0  0
   11.9641   15.8487   19.2089 C   0  0  0  0  0  0  0  0  0  0  0  0
   15.1313   13.3136   24.8972 C   0  0  0  0  0  0  0  0  0  0  0  0
   14.1522   12.4935   24.3599 C   0  0  0  0  0  0  0  0  0  0  0  0
   13.1925   15.4950   21.2144 C   0  0  0  0  0  0  0  0  0  0  0  0
    9.6959   11.7654   23.4430 C   0  0  0  0  0  0  0  0  0  0  0  0
    7.5790   10.3596   24.5941 C   0  0  0  0  0  0  0  0  0  0  0  0
    9.6753   10.3716   23.3930 C   0  0  0  0  0  0  0  0  0  0  0  0
   11.2858   13.7183   23.2555 C   0  0  0  0  0  0  0  0  0  0  0  0
   13.5903   12.7509   22.9916 C   0  0  0  0  0  0  0  0  0  0  0  0
   13.2525   15.1799   22.6812 C   0  0  0  0  0  0  0  0  0  0  0  0
   15.6782   13.1379   26.1210 N   0  0  0  0  0  0  0  0  0  0  0  0
   13.0810   16.0804   18.4834 N   0  0  0  0  0  0  0  0  0  0  0  0
   10.7697   12.4821   22.8587 N   0  0  0  0  0  0  0  0  0  0  0  0
   12.6650   13.8768   22.9850 N   0  0  0  0  0  0  0  0  0  0  0  0
   10.6184   14.6148   23.7760 O   0  0  0  0  0  0  0  0  0  0  0  0
    6.5628    9.6849   25.1477 F   0  0  0  0  0  0  0  0  0  0  0  0
   10.6665    9.6971   22.7929 F   0  0  0  0  0  0  0  0  0  0  0  0
   13.9104   10.3840   27.0090 H   0  0  0  0  0  0  0  0  0  0  0  0
   12.9387   10.7532   24.7505 H   0  0  0  0  0  0  0  0  0  0  0  0
    8.6631   13.5424   24.1129 H   0  0  0  0  0  0  0  0  0  0  0  0
    6.7911   12.2912   25.1304 H   0  0  0  0  0  0  0  0  0  0  0  0
   15.3364   15.6874   20.9806 H   0  0  0  0  0  0  0  0  0  0  0  0
   11.0350   15.3785   21.0914 H   0  0  0  0  0  0  0  0  0  0  0  0
    8.6012    8.5836   23.9307 H   0  0  0  0  0  0  0  0  0  0  0  0
   15.6705   11.9645   27.8174 H   0  0  0  0  0  0  0  0  0  0  0  0
   15.1388   16.2015   18.5498 H   0  0  0  0  0  0  0  0  0  0  0  0
   11.0331   15.9071   18.6548 H   0  0  0  0  0  0  0  0  0  0  0  0
   15.5191   14.1635   24.3442 H   0  0  0  0  0  0  0  0  0  0  0  0
   14.3933   12.9701   22.2794 H   0  0  0  0  0  0  0  0  0  0  0  0
   13.0530   11.8737   22.6161 H   0  0  0  0  0  0  0  0  0  0  0  0
   14.2901   15.1723   23.0323 H   0  0  0  0  0  0  0  0  0  0  0  0
   12.7163   15.9338   23.2673 H   0  0  0  0  0  0  0  0  0  0  0  0
   11.2162   12.0463   22.0581 H   0  0  0  0  0  0  0  0  0  0  0  0
  1  2  1  0  0  0  0
  1  8  2  0  0  0  0
  2 12  2  0  0  0  0
  3  4  1  0  0  0  0
  3 14  2  0  0  0  0
  4 15  2  0  0  0  0
  5  9  1  0  0  0  0
  5 13  2  0  0  0  0
  6 10  2  0  0  0  0
  6 13  1  0  0  0  0
  7 15  1  0  0  0  0
  7 16  2  0  0  0  0
  8 20  1  0  0  0  0
  9 21  2  0  0  0  0
 10 21  1  0  0  0  0
 11 12  1  0  0  0  0
 11 20  2  0  0  0  0
 12 18  1  0  0  0  0
 13 19  1  0  0  0  0
 14 16  1  0  0  0  0
 14 22  1  0  0  0  0
 15 25  1  0  0  0  0
 16 26  1  0  0  0  0
 17 22  1  0  0  0  0
 17 23  1  0  0  0  0
 17 24  2  0  0  0  0
 18 23  1  0  0  0  0
 19 23  1  0  0  0  0
  1 27  1  0  0  0  0
  2 28  1  0  0  0  0
  3 29  1  0  0  0  0
  4 30  1  0  0  0  0
  5 31  1  0  0  0  0
  6 32  1  0  0  0  0
  7 33  1  0  0  0  0
  8 34  1  0  0  0  0
  9 35  1  0  0  0  0
 10 36  1  0  0  0  0
 11 37  1  0  0  0  0
 18 38  1  0  0  0  0
 18 39  1  0  0  0  0
 19 40  1  0  0  0  0
 19 41  1  0  0  0  0
 22 42  1  0  0  0  0
M  END
> <Catalog ID>
Z642032260

> <PlateID>
1041831-R-35

> <Well>
F03

> <MW (desalted)>
354.353

> <ClogP>
1.503

> <HBD>
1

> <TPSA>
58.120

> <RotBonds>
5

> <ROCS_ShapeQuery>
A71EV2A-x0451_0A_A71EV2A-x0310_0A_A71EV2A-x0416_0A_peptide

> <ROCS_TanimotoCombo>
0.530 

> <ROCS_ShapeTanimoto>
0.359 

> <ROCS_ColorTanimoto>
0.171 

> <ROCS_RefTversky>
0.320 

> <ROCS_RefColorTversky>
0.186 

> <ROCS_RefTverskyCombo>
0.506 

> <ROCS_FitTversky>
1.498 

> <ROCS_FitColorTversky>
0.688 

> <ROCS_FitTverskyCombo>
2.186 

> <ROCS_ColorScore>
-5.666

> <ROCS_Overlap>
2229.112

> <ROCS_Rank>
217                 

$$$$
untitled-dbase-1863_1354
  -OEChem-11132311063D

 54 58  0     0  0  0  0  0  0999 V2000
    8.4337   12.1730   24.2337 C   0  0  0  0  0  0  0  0  0  0  0  0
    8.3329    9.3896   24.0280 C   0  0  0  0  0  0  0  0  0  0  0  0
    9.3876   11.4930   23.4765 C   0  0  0  0  0  0  0  0  0  0  0  0
    7.4437   11.4582   24.9105 C   0  0  0  0  0  0  0  0  0  0  0  0
    7.3932   10.0666   24.8074 C   0  0  0  0  0  0  0  0  0  0  0  0
    9.3374   10.1029   23.3739 C   0  0  0  0  0  0  0  0  0  0  0  0
   10.9372   13.4618   23.2113 C   0  0  0  0  0  0  0  0  0  0  0  0
    5.7008   10.6431   27.3062 C   0  0  0  0  0  0  0  0  0  0  0  0
   14.5510   17.2199   18.8305 C   0  0  0  0  0  0  0  0  0  0  0  0
   12.6685   15.9231   17.8007 C   0  0  0  0  0  0  0  0  0  0  0  0
   14.5091   14.7201   19.0183 C   0  0  0  0  0  0  0  0  0  0  0  0
   12.2539   17.3353   19.8279 C   0  0  0  0  0  0  0  0  0  0  0  0
   14.0908   16.1347   21.0431 C   0  0  0  0  0  0  0  0  0  0  0  0
    6.4913   11.9036   26.9786 C   0  0  0  0  0  0  0  0  0  0  0  0
    6.4001    9.3910   26.7921 C   0  0  0  0  0  0  0  0  0  0  0  0
   14.1777   15.9153   18.1059 C   0  0  0  0  0  0  0  0  0  0  0  0
   13.7591   17.3377   20.1441 C   0  0  0  0  0  0  0  0  0  0  0  0
   11.8630   16.0278   19.1105 C   0  0  0  0  0  0  0  0  0  0  0  0
   13.7116   14.8196   20.3334 C   0  0  0  0  0  0  0  0  0  0  0  0
   12.2045   14.8074   19.9941 C   0  0  0  0  0  0  0  0  0  0  0  0
   11.9828   13.9219   22.2139 C   0  0  0  0  0  0  0  0  0  0  0  0
   10.3884   12.2450   22.8154 N   0  0  0  0  0  0  0  0  0  0  0  0
   11.3616   14.7462   21.1901 N   0  0  0  0  0  0  0  0  0  0  0  0
   10.6629   14.1095   24.2165 O   0  0  0  0  0  0  0  0  0  0  0  0
    6.4912   12.1803   25.5762 O   0  0  0  0  0  0  0  0  0  0  0  0
    6.3872    9.3251   25.3642 O   0  0  0  0  0  0  0  0  0  0  0  0
   10.5080    9.2237   22.4559 Cl  0  0  0  0  0  0  0  0  0  0  0  0
    8.4470   13.2573   24.2807 H   0  0  0  0  0  0  0  0  0  0  0  0
    8.2899    8.3079   23.9515 H   0  0  0  0  0  0  0  0  0  0  0  0
    5.5705   10.5482   28.3873 H   0  0  0  0  0  0  0  0  0  0  0  0
    4.7067   10.7319   26.8606 H   0  0  0  0  0  0  0  0  0  0  0  0
   15.6278   17.2381   19.0390 H   0  0  0  0  0  0  0  0  0  0  0  0
   14.3374   18.0812   18.1856 H   0  0  0  0  0  0  0  0  0  0  0  0
   12.4242   16.7661   17.1427 H   0  0  0  0  0  0  0  0  0  0  0  0
   12.3912   15.0091   17.2614 H   0  0  0  0  0  0  0  0  0  0  0  0
   14.2712   13.7803   18.5050 H   0  0  0  0  0  0  0  0  0  0  0  0
   15.5847   14.7005   19.2334 H   0  0  0  0  0  0  0  0  0  0  0  0
   11.6735   17.4676   20.7478 H   0  0  0  0  0  0  0  0  0  0  0  0
   12.0112   18.1925   19.1870 H   0  0  0  0  0  0  0  0  0  0  0  0
   15.1637   16.1317   21.2740 H   0  0  0  0  0  0  0  0  0  0  0  0
   13.5710   16.2252   22.0035 H   0  0  0  0  0  0  0  0  0  0  0  0
    6.1287   12.7711   27.5515 H   0  0  0  0  0  0  0  0  0  0  0  0
    7.5363   11.7613   27.2841 H   0  0  0  0  0  0  0  0  0  0  0  0
    7.4268    9.3101   27.1811 H   0  0  0  0  0  0  0  0  0  0  0  0
    5.8700    8.5049   27.1653 H   0  0  0  0  0  0  0  0  0  0  0  0
   14.7439   15.8359   17.1713 H   0  0  0  0  0  0  0  0  0  0  0  0
   14.0291   18.2684   20.6553 H   0  0  0  0  0  0  0  0  0  0  0  0
   10.7920   16.0413   18.8757 H   0  0  0  0  0  0  0  0  0  0  0  0
   13.9663   13.9672   20.9746 H   0  0  0  0  0  0  0  0  0  0  0  0
   11.9841   13.8962   19.4226 H   0  0  0  0  0  0  0  0  0  0  0  0
   12.4556   13.0525   21.7463 H   0  0  0  0  0  0  0  0  0  0  0  0
   12.7485   14.4991   22.7416 H   0  0  0  0  0  0  0  0  0  0  0  0
   10.7387   11.8362   21.9516 H   0  0  0  0  0  0  0  0  0  0  0  0
   10.4596   14.3512   20.9354 H   0  0  0  0  0  0  0  0  0  0  0  0
  1  3  2  0  0  0  0
  1  4  1  0  0  0  0
  2  5  1  0  0  0  0
  2  6  2  0  0  0  0
  3  6  1  0  0  0  0
  3 22  1  0  0  0  0
  4  5  2  0  0  0  0
  4 25  1  0  0  0  0
  5 26  1  0  0  0  0
  6 27  1  0  0  0  0
  7 21  1  0  0  0  0
  7 22  1  0  0  0  0
  7 24  2  0  0  0  0
  8 14  1  0  0  0  0
  8 15  1  0  0  0  0
  9 16  1  0  0  0  0
  9 17  1  0  0  0  0
 10 16  1  0  0  0  0
 10 18  1  0  0  0  0
 11 16  1  0  0  0  0
 11 19  1  0  0  0  0
 12 17  1  0  0  0  0
 12 18  1  0  0  0  0
 13 17  1  0  0  0  0
 13 19  1  0  0  0  0
 14 25  1  0  0  0  0
 15 26  1  0  0  0  0
 18 20  1  0  0  0  0
 19 20  1  0  0  0  0
 20 23  1  0  0  0  0
 21 23  1  0  0  0  0
  1 28  1  0  0  0  0
  2 29  1  0  0  0  0
  8 30  1  0  0  0  0
  8 31  1  0  0  0  0
  9 32  1  0  0  0  0
  9 33  1  0  0  0  0
 10 34  1  0  0  0  0
 10 35  1  0  0  0  0
 11 36  1  0  0  0  0
 11 37  1  0  0  0  0
 12 38  1  0  0  0  0
 12 39  1  0  0  0  0
 13 40  1  0  0  0  0
 13 41  1  0  0  0  0
 14 42  1  0  0  0  0
 14 43  1  0  0  0  0
 15 44  1  0  0  0  0
 15 45  1  0  0  0  0
 16 46  1  0  0  0  0
 17 47  1  0  0  0  0
 18 48  1  0  0  0  0
 19 49  1  0  0  0  0
 20 50  1  0  0  0  0
 21 51  1  0  0  0  0
 21 52  1  0  0  0  0
 22 53  1  0  0  0  0
 23 54  1  0  0  0  0
M  END
> <Catalog ID>
Z1687994258

> <PlateID>
1041831-R-24

> <Well>
C04

> <MW (desalted)>
390.904

> <ClogP>
4.470

> <HBD>
2

> <TPSA>
59.590

> <RotBonds>
4

> <ROCS_ShapeQuery>
A71EV2A-x0451_0A_A71EV2A-x0310_0A_A71EV2A-x0416_0A_peptide

> <ROCS_TanimotoCombo>
0.530 

> <ROCS_ShapeTanimoto>
0.360 

> <ROCS_ColorTanimoto>
0.170 

> <ROCS_RefTversky>
0.323 

> <ROCS_RefColorTversky>
0.218 

> <ROCS_RefTverskyCombo>
0.541 

> <ROCS_FitTversky>
1.470 

> <ROCS_FitColorTversky>
0.438 

> <ROCS_FitTverskyCombo>
1.908 

> <ROCS_ColorScore>
-6.716

> <ROCS_Overlap>
2246.191

> <ROCS_Rank>
218                 

$$$$
untitled-dbase-3144_245
  -OEChem-11132311063D

 45 49  0     1  0  0  0  0  0999 V2000
   13.9258   16.0654   18.7806 C   0  0  0  0  0  0  0  0  0  0  0  0
   14.0818   17.0685   19.7399 C   0  0  0  0  0  0  0  0  0  0  0  0
   13.1199   14.9481   19.0231 C   0  0  0  0  0  0  0  0  0  0  0  0
   13.4346   16.9883   20.9794 C   0  0  0  0  0  0  0  0  0  0  0  0
   12.6209   15.8728   21.2400 C   0  0  0  0  0  0  0  0  0  0  0  0
   12.4851   14.8894   20.2642 C   0  0  0  0  0  0  0  0  0  0  0  0
   11.3133   14.4073   22.0778 C   0  0  0  0  0  0  0  0  0  0  0  0
    9.6303    8.2217   23.1172 C   0  0  0  0  0  0  0  0  0  0  0  0
   10.4821    9.4908   23.3747 C   0  0  0  0  0  0  0  0  0  0  0  0
    8.4788    9.1569   22.6689 C   0  0  0  0  0  0  0  0  0  0  0  0
    7.4926   12.6296   24.9723 C   0  0  0  0  0  0  0  0  0  0  0  0
    6.4989   11.4823   24.8290 C   0  0  0  0  0  0  0  0  0  0  0  0
    8.8360   12.0577   24.5330 C   0  0  2  0  0  0  0  0  0  0  0  0
    9.0342   11.6800   23.0335 C   0  0  2  0  0  0  0  0  0  0  0  0
    8.6507   10.5524   24.8655 C   0  0  2  0  0  0  0  0  0  0  0  0
    9.1660   10.2433   23.4700 C   0  0  0  0  0  0  0  0  0  0  0  0
   13.6329   18.0868   21.9722 C   0  0  0  0  0  0  0  0  0  0  0  0
   10.3972   13.6183   22.9680 C   0  0  0  0  0  0  0  0  0  0  0  0
   11.8860   15.5561   22.3594 N   0  0  0  0  0  0  0  0  0  0  0  0
   11.6434   13.9646   20.8272 N   0  0  0  0  0  0  0  0  0  0  0  0
   10.2164   12.2540   22.4918 N   0  0  0  0  0  0  0  0  0  0  0  0
    7.2521   10.3089   25.1551 O   0  0  0  0  0  0  0  0  0  0  0  0
   14.4402   16.1535   17.8267 H   0  0  0  0  0  0  0  0  0  0  0  0
   14.7173   17.9214   19.5120 H   0  0  0  0  0  0  0  0  0  0  0  0
   12.9974   14.1682   18.2802 H   0  0  0  0  0  0  0  0  0  0  0  0
   10.0120    7.5399   22.3531 H   0  0  0  0  0  0  0  0  0  0  0  0
    9.4051    7.6512   24.0258 H   0  0  0  0  0  0  0  0  0  0  0  0
   11.1072    9.4606   24.2713 H   0  0  0  0  0  0  0  0  0  0  0  0
   11.1148    9.7404   22.5153 H   0  0  0  0  0  0  0  0  0  0  0  0
    8.4659    9.3387   21.5877 H   0  0  0  0  0  0  0  0  0  0  0  0
    7.4778    8.8494   22.9813 H   0  0  0  0  0  0  0  0  0  0  0  0
    7.1955   13.5103   24.3958 H   0  0  0  0  0  0  0  0  0  0  0  0
    7.5559   12.9222   26.0274 H   0  0  0  0  0  0  0  0  0  0  0  0
    5.6476   11.5826   25.5073 H   0  0  0  0  0  0  0  0  0  0  0  0
    6.1345   11.3853   23.8014 H   0  0  0  0  0  0  0  0  0  0  0  0
    9.6945   12.5247   25.0309 H   0  0  0  0  0  0  0  0  0  0  0  0
    8.1081   11.8678   22.4052 H   0  0  0  0  0  0  0  0  0  0  0  0
    9.2752   10.1929   25.6900 H   0  0  0  0  0  0  0  0  0  0  0  0
   12.8735   18.8649   21.8339 H   0  0  0  0  0  0  0  0  0  0  0  0
   13.5639   17.7092   22.9997 H   0  0  0  0  0  0  0  0  0  0  0  0
   14.6248   18.5428   21.8653 H   0  0  0  0  0  0  0  0  0  0  0  0
   10.7963   13.5698   23.9870 H   0  0  0  0  0  0  0  0  0  0  0  0
    9.4087   14.0858   23.0278 H   0  0  0  0  0  0  0  0  0  0  0  0
   11.3258   13.1083   20.3925 H   0  0  0  0  0  0  0  0  0  0  0  0
   11.0195   11.6915   22.7705 H   0  0  0  0  0  0  0  0  0  0  0  0
  1  2  2  0  0  0  0
  1  3  1  0  0  0  0
  2  4  1  0  0  0  0
  3  6  2  0  0  0  0
  4  5  2  0  0  0  0
  4 17  1  0  0  0  0
  5  6  1  0  0  0  0
  5 19  1  0  0  0  0
  6 20  1  0  0  0  0
  7 18  1  0  0  0  0
  7 19  2  0  0  0  0
  7 20  1  0  0  0  0
  8  9  1  0  0  0  0
  8 10  1  0  0  0  0
  9 16  1  0  0  0  0
 10 16  1  0  0  0  0
 11 12  1  0  0  0  0
 11 13  1  0  0  0  0
 12 22  1  0  0  0  0
 13 14  1  0  0  0  0
 13 15  1  0  0  0  0
 14 16  1  0  0  0  0
 14 21  1  0  0  0  0
 15 16  1  0  0  0  0
 15 22  1  0  0  0  0
 18 21  1  0  0  0  0
  1 23  1  0  0  0  0
  2 24  1  0  0  0  0
  3 25  1  0  0  0  0
  8 26  1  0  0  0  0
  8 27  1  0  0  0  0
  9 28  1  0  0  0  0
  9 29  1  0  0  0  0
 10 30  1  0  0  0  0
 10 31  1  0  0  0  0
 11 32  1  0  0  0  0
 11 33  1  0  0  0  0
 12 34  1  0  0  0  0
 12 35  1  0  0  0  0
 13 36  1  0  0  0  0
 14 37  1  0  0  0  0
 15 38  1  0  0  0  0
 17 39  1  0  0  0  0
 17 40  1  0  0  0  0
 17 41  1  0  0  0  0
 18 42  1  0  0  0  0
 18 43  1  0  0  0  0
 20 44  1  0  0  0  0
 21 45  1  0  0  0  0
M  END
> <Catalog ID>
Z1598007662

> <PlateID>
1041831-R-40

> <Well>
C05

> <MW (desalted)>
297.395

> <ClogP>
2.724

> <HBD>
2

> <TPSA>
49.940

> <RotBonds>
3

> <ROCS_ShapeQuery>
A71EV2A-x0451_0A_A71EV2A-x0310_0A_A71EV2A-x0416_0A_peptide

> <ROCS_TanimotoCombo>
0.530 

> <ROCS_ShapeTanimoto>
0.342 

> <ROCS_ColorTanimoto>
0.188 

> <ROCS_RefTversky>
0.304 

> <ROCS_RefColorTversky>
0.238 

> <ROCS_RefTverskyCombo>
0.541 

> <ROCS_FitTversky>
1.580 

> <ROCS_FitColorTversky>
0.477 

> <ROCS_FitTverskyCombo>
2.057 

> <ROCS_ColorScore>
-7.327

> <ROCS_Overlap>
2109.040

> <ROCS_Rank>
219                 

$$$$
untitled-dbase-3033_2178
  -OEChem-11132311063D

 40 42  0     1  0  0  0  0  0999 V2000
   14.2978   15.9326   19.5499 C   0  0  0  0  0  0  0  0  0  0  0  0
   13.2901   15.9386   18.5855 C   0  0  0  0  0  0  0  0  0  0  0  0
   13.9780   15.7240   20.8915 C   0  0  0  0  0  0  0  0  0  0  0  0
   11.9625   15.7362   18.9627 C   0  0  0  0  0  0  0  0  0  0  0  0
   12.6505   15.5215   21.2687 C   0  0  0  0  0  0  0  0  0  0  0  0
   11.6427   15.5276   20.3044 C   0  0  0  0  0  0  0  0  0  0  0  0
   10.7477   13.1654   23.7238 C   0  0  0  0  0  0  0  0  0  0  0  0
   10.1276   10.8387   22.9511 C   0  0  0  0  0  0  0  0  0  0  0  0
    8.2342   12.6120   25.4864 C   0  0  0  0  0  0  0  0  0  0  0  0
    6.3941   11.3204   24.7401 C   0  0  0  0  0  0  0  0  0  0  0  0
    9.5157    9.6481   23.6781 C   0  0  0  0  0  0  0  0  0  0  0  0
    8.4542   12.3097   24.0088 C   0  0  2  0  0  0  0  0  0  0  0  0
    7.5872   11.0677   23.8208 C   0  0  1  0  0  0  0  0  0  0  0  0
   12.0870   12.9749   23.0578 C   0  0  0  0  0  0  0  0  0  0  0  0
   12.9745   14.1952   23.2160 C   0  0  0  0  0  0  0  0  0  0  0  0
    6.7923   12.4082   25.6441 N   0  0  0  0  0  0  0  0  0  0  0  0
    9.8502   12.0987   23.6384 N   0  0  0  0  0  0  0  0  0  0  0  0
   10.5067   14.2261   24.3056 O   0  0  0  0  0  0  0  0  0  0  0  0
    8.2643    9.9088   24.3066 O   0  0  0  0  0  0  0  0  0  0  0  0
   12.3655   15.3191   22.5939 O   0  0  0  0  0  0  0  0  0  0  0  0
    9.9927   15.2799   20.7424 Cl  0  0  0  0  0  0  0  0  0  0  0  0
   15.3314   16.0903   19.2561 H   0  0  0  0  0  0  0  0  0  0  0  0
   13.5393   16.1010   17.5410 H   0  0  0  0  0  0  0  0  0  0  0  0
   14.7683   15.7205   21.6374 H   0  0  0  0  0  0  0  0  0  0  0  0
   11.1887   15.7437   18.1993 H   0  0  0  0  0  0  0  0  0  0  0  0
   11.2200   10.7375   22.9209 H   0  0  0  0  0  0  0  0  0  0  0  0
    9.7670   10.8567   21.9187 H   0  0  0  0  0  0  0  0  0  0  0  0
    8.7791   11.9159   26.1305 H   0  0  0  0  0  0  0  0  0  0  0  0
    8.5163   13.6332   25.7474 H   0  0  0  0  0  0  0  0  0  0  0  0
    5.5299   11.6578   24.1632 H   0  0  0  0  0  0  0  0  0  0  0  0
    6.1139   10.4288   25.3065 H   0  0  0  0  0  0  0  0  0  0  0  0
    9.4101    8.7698   22.9927 H   0  0  0  0  0  0  0  0  0  0  0  0
   10.2168    9.3027   24.4734 H   0  0  0  0  0  0  0  0  0  0  0  0
    8.0392   13.1221   23.4109 H   0  0  0  0  0  0  0  0  0  0  0  0
    7.2907   10.9129   22.7892 H   0  0  0  0  0  0  0  0  0  0  0  0
   11.9053   12.7694   22.0020 H   0  0  0  0  0  0  0  0  0  0  0  0
   12.5603   12.1028   23.5095 H   0  0  0  0  0  0  0  0  0  0  0  0
   13.9325   14.0122   22.7188 H   0  0  0  0  0  0  0  0  0  0  0  0
   13.1655   14.4314   24.2681 H   0  0  0  0  0  0  0  0  0  0  0  0
    6.5652   12.1764   26.6148 H   0  0  0  0  0  0  0  0  0  0  0  0
  1  2  2  0  0  0  0
  1  3  1  0  0  0  0
  2  4  1  0  0  0  0
  3  5  2  0  0  0  0
  4  6  2  0  0  0  0
  5  6  1  0  0  0  0
  5 20  1  0  0  0  0
  6 21  1  0  0  0  0
  7 14  1  0  0  0  0
  7 17  1  0  0  0  0
  7 18  2  0  0  0  0
  8 11  1  0  0  0  0
  8 17  1  0  0  0  0
  9 12  1  1  0  0  0
  9 16  1  0  0  0  0
 10 13  1  1  0  0  0
 10 16  1  0  0  0  0
 11 19  1  0  0  0  0
 12 13  1  0  0  0  0
 12 17  1  0  0  0  0
 13 19  1  0  0  0  0
 14 15  1  0  0  0  0
 15 20  1  0  0  0  0
  1 22  1  0  0  0  0
  2 23  1  0  0  0  0
  3 24  1  0  0  0  0
  4 25  1  0  0  0  0
  8 26  1  0  0  0  0
  8 27  1  0  0  0  0
  9 28  1  0  0  0  0
  9 29  1  0  0  0  0
 10 30  1  0  0  0  0
 10 31  1  0  0  0  0
 11 32  1  0  0  0  0
 11 33  1  0  0  0  0
 12 34  1  0  0  0  0
 13 35  1  0  0  0  0
 14 36  1  0  0  0  0
 14 37  1  0  0  0  0
 15 38  1  0  0  0  0
 15 39  1  0  0  0  0
 16 40  1  0  0  0  0
M  END
> <Catalog ID>
Z2011483270

> <PlateID>
1041831-R-38

> <Well>
H04

> <MW (desalted)>
310.776

> <ClogP>
2.059

> <HBD>
1

> <TPSA>
50.800

> <RotBonds>
4

> <ROCS_ShapeQuery>
A71EV2A-x0451_0A_A71EV2A-x0310_0A_A71EV2A-x0416_0A_peptide

> <ROCS_TanimotoCombo>
0.530 

> <ROCS_ShapeTanimoto>
0.338 

> <ROCS_ColorTanimoto>
0.192 

> <ROCS_RefTversky>
0.298 

> <ROCS_RefColorTversky>
0.210 

> <ROCS_RefTverskyCombo>
0.508 

> <ROCS_FitTversky>
1.658 

> <ROCS_FitColorTversky>
0.695 

> <ROCS_FitTverskyCombo>
2.353 

> <ROCS_ColorScore>
-6.405

> <ROCS_Overlap>
2068.432

> <ROCS_Rank>
220                 

$$$$
untitled-dbase-2985_187
  -OEChem-11132311063D

 49 52  0     1  0  0  0  0  0999 V2000
   13.4487   15.7795   21.7466 C   0  0  0  0  0  0  0  0  0  0  0  0
   12.1599   16.2279   20.1131 C   0  0  0  0  0  0  0  0  0  0  0  0
   12.5750   14.7209   21.6665 C   0  0  0  0  0  0  0  0  0  0  0  0
   11.0974   13.3757   23.1906 C   0  0  0  0  0  0  0  0  0  0  0  0
    8.1498    8.9760   21.6949 C   0  0  0  0  0  0  0  0  0  0  0  0
    9.4649    9.5378   22.2927 C   0  0  0  0  0  0  0  0  0  0  0  0
    7.5019   10.3555   21.9753 C   0  0  0  0  0  0  0  0  0  0  0  0
    8.1213   12.3114   25.7341 C   0  0  0  0  0  0  0  0  0  0  0  0
    6.7313   11.8408   25.3210 C   0  0  0  0  0  0  0  0  0  0  0  0
    9.0865   11.5879   24.8015 C   0  0  2  0  0  0  0  0  0  0  0  0
    9.0855   11.9609   23.2877 C   0  0  2  0  0  0  0  0  0  0  0  0
    8.2807   10.3043   24.4638 C   0  0  2  0  0  0  0  0  0  0  0  0
    8.5971   10.5641   23.0006 C   0  0  0  0  0  0  0  0  0  0  0  0
   10.6597   14.2268   20.1148 C   0  0  0  0  0  0  0  0  0  0  0  0
   14.7422   12.8818   22.9054 C   0  0  0  0  0  0  0  0  0  0  0  0
   13.0766   12.4759   24.5887 C   0  0  0  0  0  0  0  0  0  0  0  0
   12.4477   13.4596   22.4889 C   0  0  2  0  0  0  0  0  0  0  0  0
   13.1848   16.7144   20.7771 N   0  0  0  0  0  0  0  0  0  0  0  0
   11.7552   15.0226   20.6158 N   0  0  0  0  0  0  0  0  0  0  0  0
   10.3926   12.2502   22.8100 N   0  0  0  0  0  0  0  0  0  0  0  0
   13.4822   13.3626   23.4893 N   0  0  0  0  0  0  0  0  0  0  0  0
   10.6943   14.2405   23.9660 O   0  0  0  0  0  0  0  0  0  0  0  0
    6.9158   10.4794   24.9171 O   0  0  0  0  0  0  0  0  0  0  0  0
   14.2552   15.9184   22.4523 H   0  0  0  0  0  0  0  0  0  0  0  0
   11.6736   16.6983   19.2694 H   0  0  0  0  0  0  0  0  0  0  0  0
    8.1954    8.6783   20.6443 H   0  0  0  0  0  0  0  0  0  0  0  0
    7.7142    8.1580   22.2803 H   0  0  0  0  0  0  0  0  0  0  0  0
   10.0302    8.8434   22.9200 H   0  0  0  0  0  0  0  0  0  0  0  0
   10.1356    9.9437   21.5266 H   0  0  0  0  0  0  0  0  0  0  0  0
    7.5538   11.0393   21.1196 H   0  0  0  0  0  0  0  0  0  0  0  0
    6.4698   10.3232   22.3326 H   0  0  0  0  0  0  0  0  0  0  0  0
    8.2205   13.3995   25.6900 H   0  0  0  0  0  0  0  0  0  0  0  0
    8.3170   11.9961   26.7662 H   0  0  0  0  0  0  0  0  0  0  0  0
    6.0136   11.8943   26.1438 H   0  0  0  0  0  0  0  0  0  0  0  0
    6.3457   12.4057   24.4666 H   0  0  0  0  0  0  0  0  0  0  0  0
   10.0765   11.4037   25.2337 H   0  0  0  0  0  0  0  0  0  0  0  0
    8.3784   12.7400   23.0290 H   0  0  0  0  0  0  0  0  0  0  0  0
    8.7029    9.3848   24.8823 H   0  0  0  0  0  0  0  0  0  0  0  0
   11.0546   13.5525   19.3504 H   0  0  0  0  0  0  0  0  0  0  0  0
   10.2183   13.6564   20.9368 H   0  0  0  0  0  0  0  0  0  0  0  0
    9.8992   14.8868   19.6881 H   0  0  0  0  0  0  0  0  0  0  0  0
   15.0433   13.5472   22.0829 H   0  0  0  0  0  0  0  0  0  0  0  0
   15.5254   12.8761   23.6778 H   0  0  0  0  0  0  0  0  0  0  0  0
   14.6012   11.8617   22.5187 H   0  0  0  0  0  0  0  0  0  0  0  0
   12.1334   12.8382   25.0237 H   0  0  0  0  0  0  0  0  0  0  0  0
   12.9344   11.4555   24.2033 H   0  0  0  0  0  0  0  0  0  0  0  0
   13.8586   12.4700   25.3623 H   0  0  0  0  0  0  0  0  0  0  0  0
   12.5738   12.5736   21.8549 H   0  0  0  0  0  0  0  0  0  0  0  0
   10.7984   11.5877   22.1642 H   0  0  0  0  0  0  0  0  0  0  0  0
  1  3  2  0  0  0  0
  1 18  1  0  0  0  0
  2 18  2  0  0  0  0
  2 19  1  0  0  0  0
  3 17  1  0  0  0  0
  3 19  1  0  0  0  0
  4 17  1  0  0  0  0
  4 20  1  0  0  0  0
  4 22  2  0  0  0  0
  5  6  1  0  0  0  0
  5  7  1  0  0  0  0
  6 13  1  0  0  0  0
  7 13  1  0  0  0  0
  8  9  1  0  0  0  0
  8 10  1  0  0  0  0
  9 23  1  0  0  0  0
 10 11  1  0  0  0  0
 10 12  1  0  0  0  0
 11 13  1  0  0  0  0
 11 20  1  0  0  0  0
 12 13  1  0  0  0  0
 12 23  1  0  0  0  0
 14 19  1  0  0  0  0
 15 21  1  0  0  0  0
 16 21  1  0  0  0  0
 17 21  1  0  0  0  0
  1 24  1  0  0  0  0
  2 25  1  0  0  0  0
  5 26  1  0  0  0  0
  5 27  1  0  0  0  0
  6 28  1  0  0  0  0
  6 29  1  0  0  0  0
  7 30  1  0  0  0  0
  7 31  1  0  0  0  0
  8 32  1  0  0  0  0
  8 33  1  0  0  0  0
  9 34  1  0  0  0  0
  9 35  1  0  0  0  0
 10 36  1  0  0  0  0
 11 37  1  0  0  0  0
 12 38  1  0  0  0  0
 14 39  1  0  0  0  0
 14 40  1  0  0  0  0
 14 41  1  0  0  0  0
 15 42  1  0  0  0  0
 15 43  1  0  0  0  0
 15 44  1  0  0  0  0
 16 45  1  0  0  0  0
 16 46  1  0  0  0  0
 16 47  1  0  0  0  0
 17 48  1  0  0  0  0
 20 49  1  0  0  0  0
M  END
> <Catalog ID>
Z2027671105

> <PlateID>
1041831-R-38

> <Well>
C06

> <MW (desalted)>
318.414

> <ClogP>
0.475

> <HBD>
1

> <TPSA>
59.390

> <RotBonds>
4

> <ROCS_ShapeQuery>
A71EV2A-x0451_0A_A71EV2A-x0310_0A_A71EV2A-x0416_0A_peptide

> <ROCS_TanimotoCombo>
0.530 

> <ROCS_ShapeTanimoto>
0.324 

> <ROCS_ColorTanimoto>
0.206 

> <ROCS_RefTversky>
0.292 

> <ROCS_RefColorTversky>
0.251 

> <ROCS_RefTverskyCombo>
0.543 

> <ROCS_FitTversky>
1.494 

> <ROCS_FitColorTversky>
0.537 

> <ROCS_FitTverskyCombo>
2.031 

> <ROCS_ColorScore>
-7.732

> <ROCS_Overlap>
2030.640

> <ROCS_Rank>
221                 

$$$$
untitled-dbase-567_886
  -OEChem-11132311063D

 48 50  0     1  0  0  0  0  0999 V2000
   10.4439   11.3822   23.0253 C   0  0  0  0  0  0  0  0  0  0  0  0
    9.6847   10.2120   23.1001 C   0  0  0  0  0  0  0  0  0  0  0  0
    8.8772   12.5429   24.4834 C   0  0  0  0  0  0  0  0  0  0  0  0
   10.0425   12.5410   23.7130 C   0  0  0  0  0  0  0  0  0  0  0  0
    8.5385   10.2404   23.8676 C   0  0  0  0  0  0  0  0  0  0  0  0
    8.1456   11.3745   24.5408 C   0  0  0  0  0  0  0  0  0  0  0  0
   12.0351   15.3173   22.0289 C   0  0  0  0  0  0  0  0  0  0  0  0
   13.8553   13.3363   23.1984 C   0  0  0  0  0  0  0  0  0  0  0  0
   14.1157   15.3415   18.3211 C   0  0  0  0  0  0  0  0  0  0  0  0
   14.4904   16.7712   18.7061 C   0  0  0  0  0  0  0  0  0  0  0  0
   12.6072   15.1177   18.2332 C   0  0  0  0  0  0  0  0  0  0  0  0
   14.0813   17.1886   20.1165 C   0  0  0  0  0  0  0  0  0  0  0  0
   11.9614   14.7653   19.5724 C   0  0  0  0  0  0  0  0  0  0  0  0
   12.5843   17.0705   20.3865 C   0  0  0  0  0  0  0  0  0  0  0  0
    6.7006    9.8106   24.9256 C   0  0  0  0  0  0  0  0  0  0  0  0
   15.0539   12.4739   22.9799 C   0  0  0  0  0  0  0  0  0  0  0  0
   10.8784   13.7936   23.6162 C   0  0  0  0  0  0  0  0  0  0  0  0
   11.6102   13.8912   22.2849 C   0  0  2  0  0  0  0  0  0  0  0  0
   12.1955   15.6908   20.6867 N   0  0  0  0  0  0  0  0  0  0  0  0
   12.8464   13.1649   22.2605 N   0  0  0  0  0  0  0  0  0  0  0  0
   12.2241   16.0718   22.9866 O   0  0  0  0  0  0  0  0  0  0  0  0
   13.8318   14.1085   24.1496 O   0  0  0  0  0  0  0  0  0  0  0  0
    7.6790    9.2026   24.0578 O   0  0  0  0  0  0  0  0  0  0  0  0
    6.9908   11.1889   25.2365 O   0  0  0  0  0  0  0  0  0  0  0  0
   11.3532   11.3895   22.4291 H   0  0  0  0  0  0  0  0  0  0  0  0
    9.9913    9.3163   22.5723 H   0  0  0  0  0  0  0  0  0  0  0  0
    8.5569   13.4296   25.0199 H   0  0  0  0  0  0  0  0  0  0  0  0
   14.5470   15.1436   17.3317 H   0  0  0  0  0  0  0  0  0  0  0  0
   14.5764   14.6254   19.0119 H   0  0  0  0  0  0  0  0  0  0  0  0
   15.5782   16.8816   18.6174 H   0  0  0  0  0  0  0  0  0  0  0  0
   14.0520   17.4688   17.9814 H   0  0  0  0  0  0  0  0  0  0  0  0
   12.1093   15.9794   17.7738 H   0  0  0  0  0  0  0  0  0  0  0  0
   12.4264   14.2736   17.5550 H   0  0  0  0  0  0  0  0  0  0  0  0
   14.6484   16.6134   20.8587 H   0  0  0  0  0  0  0  0  0  0  0  0
   14.3758   18.2365   20.2542 H   0  0  0  0  0  0  0  0  0  0  0  0
   10.8747   14.7028   19.4393 H   0  0  0  0  0  0  0  0  0  0  0  0
   12.3021   13.7673   19.8674 H   0  0  0  0  0  0  0  0  0  0  0  0
   12.3440   17.6992   21.2516 H   0  0  0  0  0  0  0  0  0  0  0  0
   11.9784   17.4492   19.5563 H   0  0  0  0  0  0  0  0  0  0  0  0
    5.7203    9.7606   24.4376 H   0  0  0  0  0  0  0  0  0  0  0  0
    6.6587    9.2412   25.8609 H   0  0  0  0  0  0  0  0  0  0  0  0
   15.8080   12.9568   22.3379 H   0  0  0  0  0  0  0  0  0  0  0  0
   15.5793   12.2384   23.9194 H   0  0  0  0  0  0  0  0  0  0  0  0
   14.8533   11.4987   22.5081 H   0  0  0  0  0  0  0  0  0  0  0  0
   10.2211   14.6628   23.7542 H   0  0  0  0  0  0  0  0  0  0  0  0
   11.5863   13.8301   24.4556 H   0  0  0  0  0  0  0  0  0  0  0  0
   11.0024   13.5656   21.4411 H   0  0  0  0  0  0  0  0  0  0  0  0
   12.9924   12.4852   21.5130 H   0  0  0  0  0  0  0  0  0  0  0  0
  1  2  1  0  0  0  0
  1  4  2  0  0  0  0
  2  5  2  0  0  0  0
  3  4  1  0  0  0  0
  3  6  2  0  0  0  0
  4 17  1  0  0  0  0
  5  6  1  0  0  0  0
  5 23  1  0  0  0  0
  6 24  1  0  0  0  0
  7 18  1  0  0  0  0
  7 19  1  0  0  0  0
  7 21  2  0  0  0  0
  8 16  1  0  0  0  0
  8 20  1  0  0  0  0
  8 22  2  0  0  0  0
  9 10  1  0  0  0  0
  9 11  1  0  0  0  0
 10 12  1  0  0  0  0
 11 13  1  0  0  0  0
 12 14  1  0  0  0  0
 13 19  1  0  0  0  0
 14 19  1  0  0  0  0
 15 23  1  0  0  0  0
 15 24  1  0  0  0  0
 17 18  1  0  0  0  0
 18 20  1  0  0  0  0
  1 25  1  0  0  0  0
  2 26  1  0  0  0  0
  3 27  1  0  0  0  0
  9 28  1  0  0  0  0
  9 29  1  0  0  0  0
 10 30  1  0  0  0  0
 10 31  1  0  0  0  0
 11 32  1  0  0  0  0
 11 33  1  0  0  0  0
 12 34  1  0  0  0  0
 12 35  1  0  0  0  0
 13 36  1  0  0  0  0
 13 37  1  0  0  0  0
 14 38  1  0  0  0  0
 14 39  1  0  0  0  0
 15 40  1  0  0  0  0
 15 41  1  0  0  0  0
 16 42  1  0  0  0  0
 16 43  1  0  0  0  0
 16 44  1  0  0  0  0
 17 45  1  0  0  0  0
 17 46  1  0  0  0  0
 18 47  1  0  0  0  0
 20 48  1  0  0  0  0
M  END
> <Catalog ID>
Z997868492

> <PlateID>
1041831-R-08

> <Well>
A08

> <MW (desalted)>
332.394

> <ClogP>
1.950

> <HBD>
1

> <TPSA>
67.870

> <RotBonds>
4

> <ROCS_ShapeQuery>
A71EV2A-x0451_0A_A71EV2A-x0310_0A_A71EV2A-x0416_0A_peptide

> <ROCS_TanimotoCombo>
0.530 

> <ROCS_ShapeTanimoto>
0.342 

> <ROCS_ColorTanimoto>
0.188 

> <ROCS_RefTversky>
0.305 

> <ROCS_RefColorTversky>
0.206 

> <ROCS_RefTverskyCombo>
0.512 

> <ROCS_FitTversky>
1.536 

> <ROCS_FitColorTversky>
0.684 

> <ROCS_FitTverskyCombo>
2.220 

> <ROCS_ColorScore>
-6.300

> <ROCS_Overlap>
2120.839

> <ROCS_Rank>
222                 

$$$$
untitled-dbase-220_113
  -OEChem-11132311063D

 43 47  0     1  0  0  0  0  0999 V2000
   14.2741   17.1082   19.2086 C   0  0  0  0  0  0  0  0  0  0  0  0
   14.0613   16.0537   18.3175 C   0  0  0  0  0  0  0  0  0  0  0  0
   13.7121   17.0945   20.4924 C   0  0  0  0  0  0  0  0  0  0  0  0
   13.2820   14.9491   18.6736 C   0  0  0  0  0  0  0  0  0  0  0  0
   11.2684   15.5105   24.0777 C   0  0  0  0  0  0  0  0  0  0  0  0
   12.9244   15.9938   20.8733 C   0  0  0  0  0  0  0  0  0  0  0  0
   12.2056   15.6090   22.0341 C   0  0  0  0  0  0  0  0  0  0  0  0
   12.7355   14.9612   19.9560 C   0  0  0  0  0  0  0  0  0  0  0  0
   11.6318   14.3788   21.7499 C   0  0  0  0  0  0  0  0  0  0  0  0
   10.8565   13.7160   22.6781 C   0  0  0  0  0  0  0  0  0  0  0  0
    8.6732   10.6489   22.4236 C   0  0  0  0  0  0  0  0  0  0  0  0
    6.6853   11.7829   25.0267 C   0  0  0  0  0  0  0  0  0  0  0  0
    9.1680   12.0220   24.4973 C   0  0  0  0  0  0  0  0  0  0  0  0
    8.8452    9.5694   23.4806 C   0  0  0  0  0  0  0  0  0  0  0  0
    5.7468   11.0127   25.9443 C   0  0  0  0  0  0  0  0  0  0  0  0
    8.3340   11.0459   26.6694 C   0  0  0  0  0  0  0  0  0  0  0  0
    9.0368   12.0317   22.9719 C   0  0  1  0  0  0  0  0  0  0  0  0
    8.0824   11.1547   25.1595 C   0  0  1  0  0  0  0  0  0  0  0  0
   12.0392   16.2260   23.2291 N   0  0  0  0  0  0  0  0  0  0  0  0
   10.6741   14.3091   23.8791 N   0  0  0  0  0  0  0  0  0  0  0  0
   10.2843   12.4880   22.3942 N   0  0  0  0  0  0  0  0  0  0  0  0
   11.9497   13.9808   20.4908 O   0  0  0  0  0  0  0  0  0  0  0  0
    8.0338    9.8207   24.6242 O   0  0  0  0  0  0  0  0  0  0  0  0
    6.7236   10.6683   27.4285 S   0  0  0  0  0  0  0  0  0  0  0  0
   14.8846   17.9538   18.9022 H   0  0  0  0  0  0  0  0  0  0  0  0
   14.5099   16.0923   17.3278 H   0  0  0  0  0  0  0  0  0  0  0  0
   13.8862   17.9224   21.1732 H   0  0  0  0  0  0  0  0  0  0  0  0
   13.1124   14.1284   17.9868 H   0  0  0  0  0  0  0  0  0  0  0  0
   11.1028   15.9590   25.0515 H   0  0  0  0  0  0  0  0  0  0  0  0
    9.3307   10.4123   21.5715 H   0  0  0  0  0  0  0  0  0  0  0  0
    7.6401   10.6428   22.0456 H   0  0  0  0  0  0  0  0  0  0  0  0
    6.2953   11.7563   24.0033 H   0  0  0  0  0  0  0  0  0  0  0  0
    6.7118   12.8412   25.3256 H   0  0  0  0  0  0  0  0  0  0  0  0
   10.1532   11.6103   24.7599 H   0  0  0  0  0  0  0  0  0  0  0  0
    9.1341   13.0473   24.8874 H   0  0  0  0  0  0  0  0  0  0  0  0
    8.6289    8.5745   23.0762 H   0  0  0  0  0  0  0  0  0  0  0  0
    9.8878    9.5506   23.8177 H   0  0  0  0  0  0  0  0  0  0  0  0
    4.8514   11.5921   26.1888 H   0  0  0  0  0  0  0  0  0  0  0  0
    5.4367   10.0652   25.4911 H   0  0  0  0  0  0  0  0  0  0  0  0
    9.0490   10.2535   26.9194 H   0  0  0  0  0  0  0  0  0  0  0  0
    8.6892   11.9925   27.0946 H   0  0  0  0  0  0  0  0  0  0  0  0
    8.2540   12.7536   22.6780 H   0  0  0  0  0  0  0  0  0  0  0  0
   10.7619   11.8715   21.7483 H   0  0  0  0  0  0  0  0  0  0  0  0
  1  2  1  0  0  0  0
  1  3  2  0  0  0  0
  2  4  2  0  0  0  0
  3  6  1  0  0  0  0
  4  8  1  0  0  0  0
  5 19  2  0  0  0  0
  5 20  1  0  0  0  0
  6  7  1  0  0  0  0
  6  8  2  0  0  0  0
  7  9  2  0  0  0  0
  7 19  1  0  0  0  0
  8 22  1  0  0  0  0
  9 10  1  0  0  0  0
  9 22  1  0  0  0  0
 10 20  2  0  0  0  0
 10 21  1  0  0  0  0
 11 14  1  0  0  0  0
 11 17  1  0  0  0  0
 12 15  1  0  0  0  0
 12 18  1  0  0  0  0
 13 17  1  0  0  0  0
 13 18  1  0  0  0  0
 14 23  1  0  0  0  0
 15 24  1  0  0  0  0
 16 18  1  0  0  0  0
 16 24  1  0  0  0  0
 17 21  1  0  0  0  0
 18 23  1  0  0  0  0
  1 25  1  0  0  0  0
  2 26  1  0  0  0  0
  3 27  1  0  0  0  0
  4 28  1  0  0  0  0
  5 29  1  0  0  0  0
 11 30  1  0  0  0  0
 11 31  1  0  0  0  0
 12 32  1  0  0  0  0
 12 33  1  0  0  0  0
 13 34  1  0  0  0  0
 13 35  1  0  0  0  0
 14 36  1  0  0  0  0
 14 37  1  0  0  0  0
 15 38  1  0  0  0  0
 15 39  1  0  0  0  0
 16 40  1  0  0  0  0
 16 41  1  0  0  0  0
 17 42  1  0  0  0  0
 21 43  1  0  0  0  0
M  END
> <Catalog ID>
Z1449955553

> <PlateID>
1041831-R-03

> <Well>
F11

> <MW (desalted)>
341.427

> <ClogP>
2.768

> <HBD>
1

> <TPSA>
60.180

> <RotBonds>
2

> <ROCS_ShapeQuery>
A71EV2A-x0451_0A_A71EV2A-x0310_0A_A71EV2A-x0416_0A_peptide

> <ROCS_TanimotoCombo>
0.530 

> <ROCS_ShapeTanimoto>
0.324 

> <ROCS_ColorTanimoto>
0.206 

> <ROCS_RefTversky>
0.295 

> <ROCS_RefColorTversky>
0.232 

> <ROCS_RefTverskyCombo>
0.528 

> <ROCS_FitTversky>
1.442 

> <ROCS_FitColorTversky>
0.640 

> <ROCS_FitTverskyCombo>
2.082 

> <ROCS_ColorScore>
-7.120

> <ROCS_Overlap>
2051.028

> <ROCS_Rank>
223                 

$$$$
untitled-dbase-1373_3094
  -OEChem-11132311063D

 41 44  0     0  0  0  0  0  0999 V2000
    9.0086    6.7239   21.1213 C   0  0  0  0  0  0  0  0  0  0  0  0
   10.2896    6.9016   21.6438 C   0  0  0  0  0  0  0  0  0  0  0  0
    7.8912    6.9136   21.9345 C   0  0  0  0  0  0  0  0  0  0  0  0
   10.4533    7.2691   22.9794 C   0  0  0  0  0  0  0  0  0  0  0  0
    8.3490   12.1401   24.7288 C   0  0  0  0  0  0  0  0  0  0  0  0
    8.0548    7.2811   23.2701 C   0  0  0  0  0  0  0  0  0  0  0  0
    9.3359    7.4588   23.7926 C   0  0  0  0  0  0  0  0  0  0  0  0
    9.0768   11.2974   23.9149 C   0  0  0  0  0  0  0  0  0  0  0  0
   12.8767   16.5998   21.0471 C   0  0  0  0  0  0  0  0  0  0  0  0
   11.9056   14.9000   22.0194 C   0  0  0  0  0  0  0  0  0  0  0  0
    7.5089    9.8915   24.5272 C   0  0  0  0  0  0  0  0  0  0  0  0
   13.5243   17.2622   19.9673 C   0  0  0  0  0  0  0  0  0  0  0  0
   13.7338   16.5966   18.8142 C   0  0  0  0  0  0  0  0  0  0  0  0
   13.3131   15.2125   18.6452 C   0  0  0  0  0  0  0  0  0  0  0  0
   12.7016   14.5860   19.6644 C   0  0  0  0  0  0  0  0  0  0  0  0
    6.8721    7.4804   24.1251 C   0  0  0  0  0  0  0  0  0  0  0  0
   10.7551   13.1107   23.3684 C   0  0  0  0  0  0  0  0  0  0  0  0
   10.3272   11.6664   23.1604 C   0  0  0  0  0  0  0  0  0  0  0  0
    8.5968   10.0075   23.7985 N   0  0  0  0  0  0  0  0  0  0  0  0
   12.5387   16.9708   22.2636 N   0  0  0  0  0  0  0  0  0  0  0  0
   11.9253   15.8961   22.8768 N   0  0  0  0  0  0  0  0  0  0  0  0
   12.4914   15.2833   20.8471 N   0  0  0  0  0  0  0  0  0  0  0  0
   11.3869   13.6451   22.2151 N   0  0  0  0  0  0  0  0  0  0  0  0
    6.7239    8.7809   24.6899 N   0  0  0  0  0  0  0  0  0  0  0  0
    6.0920    6.5577   24.3508 O   0  0  0  0  0  0  0  0  0  0  0  0
   10.5606   13.7067   24.4230 O   0  0  0  0  0  0  0  0  0  0  0  0
    9.5058    7.8117   25.0750 F   0  0  0  0  0  0  0  0  0  0  0  0
    7.0059   11.2941   25.3784 S   0  0  0  0  0  0  0  0  0  0  0  0
    8.8812    6.4376   20.0815 H   0  0  0  0  0  0  0  0  0  0  0  0
   11.1596    6.7540   21.0107 H   0  0  0  0  0  0  0  0  0  0  0  0
    6.8979    6.7724   21.5161 H   0  0  0  0  0  0  0  0  0  0  0  0
   11.4505    7.4076   23.3864 H   0  0  0  0  0  0  0  0  0  0  0  0
    8.5324   13.1784   24.9666 H   0  0  0  0  0  0  0  0  0  0  0  0
   13.8405   18.2924   20.0841 H   0  0  0  0  0  0  0  0  0  0  0  0
   14.2256   17.0790   17.9764 H   0  0  0  0  0  0  0  0  0  0  0  0
   13.5045   14.7186   17.7005 H   0  0  0  0  0  0  0  0  0  0  0  0
   12.3661   13.5582   19.6011 H   0  0  0  0  0  0  0  0  0  0  0  0
   11.1501   11.0084   23.4672 H   0  0  0  0  0  0  0  0  0  0  0  0
   10.1724   11.4952   22.0876 H   0  0  0  0  0  0  0  0  0  0  0  0
   11.4676   12.9974   21.4091 H   0  0  0  0  0  0  0  0  0  0  0  0
    5.9037    8.9037   25.3137 H   0  0  0  0  0  0  0  0  0  0  0  0
  1  2  2  0  0  0  0
  1  3  1  0  0  0  0
  2  4  1  0  0  0  0
  3  6  2  0  0  0  0
  4  7  2  0  0  0  0
  5  8  2  0  0  0  0
  5 28  1  0  0  0  0
  6  7  1  0  0  0  0
  6 16  1  0  0  0  0
  7 27  1  0  0  0  0
  8 18  1  0  0  0  0
  8 19  1  0  0  0  0
  9 12  1  0  0  0  0
  9 20  2  0  0  0  0
  9 22  1  0  0  0  0
 10 21  2  0  0  0  0
 10 22  1  0  0  0  0
 10 23  1  0  0  0  0
 11 19  2  0  0  0  0
 11 24  1  0  0  0  0
 11 28  1  0  0  0  0
 12 13  2  0  0  0  0
 13 14  1  0  0  0  0
 14 15  2  0  0  0  0
 15 22  1  0  0  0  0
 16 24  1  0  0  0  0
 16 25  2  0  0  0  0
 17 18  1  0  0  0  0
 17 23  1  0  0  0  0
 17 26  2  0  0  0  0
 20 21  1  0  0  0  0
  1 29  1  0  0  0  0
  2 30  1  0  0  0  0
  3 31  1  0  0  0  0
  4 32  1  0  0  0  0
  5 33  1  0  0  0  0
 12 34  1  0  0  0  0
 13 35  1  0  0  0  0
 14 36  1  0  0  0  0
 15 37  1  0  0  0  0
 18 38  1  0  0  0  0
 18 39  1  0  0  0  0
 23 40  1  0  0  0  0
 24 41  1  0  0  0  0
M  END
> <Catalog ID>
Z423609506

> <PlateID>
1041831-R-18

> <Well>
B04

> <MW (desalted)>
396.398

> <ClogP>
1.506

> <HBD>
2

> <TPSA>
101.280

> <RotBonds>
5

> <ROCS_ShapeQuery>
A71EV2A-x0451_0A_A71EV2A-x0310_0A_A71EV2A-x0416_0A_peptide

> <ROCS_TanimotoCombo>
0.530 

> <ROCS_ShapeTanimoto>
0.317 

> <ROCS_ColorTanimoto>
0.213 

> <ROCS_RefTversky>
0.296 

> <ROCS_RefColorTversky>
0.246 

> <ROCS_RefTverskyCombo>
0.542 

> <ROCS_FitTversky>
1.292 

> <ROCS_FitColorTversky>
0.612 

> <ROCS_FitTverskyCombo>
1.904 

> <ROCS_ColorScore>
-7.552

> <ROCS_Overlap>
2059.466

> <ROCS_Rank>
224                 

$$$$
untitled-dbase-1228_6540
  -OEChem-11132311063D

 44 46  0     0  0  0  0  0  0999 V2000
    5.5092   11.6677   29.5115 C   0  0  0  0  0  0  0  0  0  0  0  0
    8.5864    9.5710   23.2981 C   0  0  0  0  0  0  0  0  0  0  0  0
    4.3206   12.3853   29.5845 C   0  0  0  0  0  0  0  0  0  0  0  0
    9.6815   10.3301   22.8856 C   0  0  0  0  0  0  0  0  0  0  0  0
    7.6311   10.1292   24.1476 C   0  0  0  0  0  0  0  0  0  0  0  0
    5.9918   11.2568   28.2739 C   0  0  0  0  0  0  0  0  0  0  0  0
    8.8660   12.2055   24.1721 C   0  0  0  0  0  0  0  0  0  0  0  0
    3.6577   12.6645   28.4003 C   0  0  0  0  0  0  0  0  0  0  0  0
   12.3053   14.8406   21.2352 C   0  0  0  0  0  0  0  0  0  0  0  0
    9.8213   11.6474   23.3226 C   0  0  0  0  0  0  0  0  0  0  0  0
    7.7709   11.4464   24.5846 C   0  0  0  0  0  0  0  0  0  0  0  0
    5.2540   11.5863   27.1483 C   0  0  0  0  0  0  0  0  0  0  0  0
   13.2593   15.1337   20.2454 C   0  0  0  0  0  0  0  0  0  0  0  0
   11.1302   15.2983   20.7005 C   0  0  0  0  0  0  0  0  0  0  0  0
   11.2267   13.7362   23.2401 C   0  0  0  0  0  0  0  0  0  0  0  0
   14.7070   14.8650   20.2718 C   0  0  0  0  0  0  0  0  0  0  0  0
    9.7387   15.3256   21.1698 C   0  0  0  0  0  0  0  0  0  0  0  0
   12.5186   14.1791   22.5715 C   0  0  0  0  0  0  0  0  0  0  0  0
    5.7449   11.1591   25.7963 C   0  0  0  0  0  0  0  0  0  0  0  0
    4.0953   12.2821   27.1797 N   0  0  0  0  0  0  0  0  0  0  0  0
   12.7174   15.7277   19.1785 N   0  0  0  0  0  0  0  0  0  0  0  0
   10.9168   12.4064   22.9095 N   0  0  0  0  0  0  0  0  0  0  0  0
   10.5744   14.4813   23.9643 O   0  0  0  0  0  0  0  0  0  0  0  0
   11.3631   15.8300   19.4733 O   0  0  0  0  0  0  0  0  0  0  0  0
    6.8388   11.9911   25.4136 O   0  0  0  0  0  0  0  0  0  0  0  0
    6.0583   11.4290   30.4173 H   0  0  0  0  0  0  0  0  0  0  0  0
    8.4774    8.5458   22.9569 H   0  0  0  0  0  0  0  0  0  0  0  0
    3.9256   12.7158   30.5383 H   0  0  0  0  0  0  0  0  0  0  0  0
   10.4200    9.8846   22.2240 H   0  0  0  0  0  0  0  0  0  0  0  0
    6.7802    9.5327   24.4645 H   0  0  0  0  0  0  0  0  0  0  0  0
    6.9178   10.6964   28.2033 H   0  0  0  0  0  0  0  0  0  0  0  0
    8.9705   13.2324   24.5152 H   0  0  0  0  0  0  0  0  0  0  0  0
    2.7265   13.2215   28.4031 H   0  0  0  0  0  0  0  0  0  0  0  0
   14.9380   13.8719   19.8496 H   0  0  0  0  0  0  0  0  0  0  0  0
   15.2807   15.6127   19.6955 H   0  0  0  0  0  0  0  0  0  0  0  0
   15.1180   14.8940   21.2969 H   0  0  0  0  0  0  0  0  0  0  0  0
    9.5183   16.2530   21.7286 H   0  0  0  0  0  0  0  0  0  0  0  0
    9.0124   15.2623   20.3379 H   0  0  0  0  0  0  0  0  0  0  0  0
    9.5027   14.4754   21.8371 H   0  0  0  0  0  0  0  0  0  0  0  0
   13.1693   13.3038   22.4494 H   0  0  0  0  0  0  0  0  0  0  0  0
   13.0448   14.8695   23.2429 H   0  0  0  0  0  0  0  0  0  0  0  0
    6.0781   10.1158   25.8122 H   0  0  0  0  0  0  0  0  0  0  0  0
    4.9486   11.2465   25.0493 H   0  0  0  0  0  0  0  0  0  0  0  0
   11.5802   11.9334   22.2850 H   0  0  0  0  0  0  0  0  0  0  0  0
  1  3  2  0  0  0  0
  1  6  1  0  0  0  0
  2  4  1  0  0  0  0
  2  5  2  0  0  0  0
  3  8  1  0  0  0  0
  4 10  2  0  0  0  0
  5 11  1  0  0  0  0
  6 12  2  0  0  0  0
  7 10  1  0  0  0  0
  7 11  2  0  0  0  0
  8 20  2  0  0  0  0
  9 13  1  0  0  0  0
  9 14  2  0  0  0  0
  9 18  1  0  0  0  0
 10 22  1  0  0  0  0
 11 25  1  0  0  0  0
 12 19  1  0  0  0  0
 12 20  1  0  0  0  0
 13 16  1  0  0  0  0
 13 21  2  0  0  0  0
 14 17  1  0  0  0  0
 14 24  1  0  0  0  0
 15 18  1  0  0  0  0
 15 22  1  0  0  0  0
 15 23  2  0  0  0  0
 19 25  1  0  0  0  0
 21 24  1  0  0  0  0
  1 26  1  0  0  0  0
  2 27  1  0  0  0  0
  3 28  1  0  0  0  0
  4 29  1  0  0  0  0
  5 30  1  0  0  0  0
  6 31  1  0  0  0  0
  7 32  1  0  0  0  0
  8 33  1  0  0  0  0
 16 34  1  0  0  0  0
 16 35  1  0  0  0  0
 16 36  1  0  0  0  0
 17 37  1  0  0  0  0
 17 38  1  0  0  0  0
 17 39  1  0  0  0  0
 18 40  1  0  0  0  0
 18 41  1  0  0  0  0
 19 42  1  0  0  0  0
 19 43  1  0  0  0  0
 22 44  1  0  0  0  0
M  END
> <Catalog ID>
Z383844704

> <PlateID>
1041831-R-16

> <Well>
C09

> <MW (desalted)>
337.372

> <ClogP>
1.462

> <HBD>
1

> <TPSA>
77.250

> <RotBonds>
6

> <ROCS_ShapeQuery>
A71EV2A-x0451_0A_A71EV2A-x0310_0A_A71EV2A-x0416_0A_peptide

> <ROCS_TanimotoCombo>
0.530 

> <ROCS_ShapeTanimoto>
0.353 

> <ROCS_ColorTanimoto>
0.177 

> <ROCS_RefTversky>
0.315 

> <ROCS_RefColorTversky>
0.196 

> <ROCS_RefTverskyCombo>
0.510 

> <ROCS_FitTversky>
1.520 

> <ROCS_FitColorTversky>
0.650 

> <ROCS_FitTverskyCombo>
2.170 

> <ROCS_ColorScore>
-5.969

> <ROCS_Overlap>
2188.792

> <ROCS_Rank>
225                 

$$$$
untitled-dbase-2238_927
  -OEChem-11132311063D

 51 54  0     1  0  0  0  0  0999 V2000
   13.6127   16.5567   18.2738 C   0  0  0  0  0  0  0  0  0  0  0  0
   12.3055   16.1429   18.5297 C   0  0  0  0  0  0  0  0  0  0  0  0
   14.5957   16.4078   19.2523 C   0  0  0  0  0  0  0  0  0  0  0  0
   11.9811   15.5803   19.7642 C   0  0  0  0  0  0  0  0  0  0  0  0
   14.2713   15.8452   20.4868 C   0  0  0  0  0  0  0  0  0  0  0  0
   12.9640   15.4315   20.7428 C   0  0  0  0  0  0  0  0  0  0  0  0
   10.5690   13.7451   23.0200 C   0  0  0  0  0  0  0  0  0  0  0  0
   13.5836   12.7204   23.3341 C   0  0  0  0  0  0  0  0  0  0  0  0
   14.3521   12.8458   22.0527 C   0  0  0  0  0  0  0  0  0  0  0  0
    6.3505    8.7431   24.0180 C   0  0  0  0  0  0  0  0  0  0  0  0
    8.7929   10.4784   22.9097 C   0  0  0  0  0  0  0  0  0  0  0  0
    8.8868   11.8909   24.8082 C   0  0  0  0  0  0  0  0  0  0  0  0
    6.0271    9.6219   25.2175 C   0  0  0  0  0  0  0  0  0  0  0  0
   13.7891   14.0791   22.7131 C   0  0  0  0  0  0  0  0  0  0  0  0
    8.6389    9.5798   24.1380 C   0  0  1  0  0  0  0  0  0  0  0  0
    8.1818   10.5877   25.2013 C   0  0  2  0  0  0  0  0  0  0  0  0
    8.1260    7.5392   22.9107 C   0  0  0  0  0  0  0  0  0  0  0  0
    9.4683   12.7964   22.6193 C   0  0  0  0  0  0  0  0  0  0  0  0
   12.6127   14.8214   22.0825 C   0  0  2  0  0  0  0  0  0  0  0  0
    9.4866   11.6321   23.4903 N   0  0  2  0  0  0  0  0  0  0  0  0
    7.7736    8.4045   24.0314 N   0  0  2  0  0  0  0  0  0  0  0  0
   11.4612   13.9542   21.9782 N   0  0  0  0  0  0  0  0  0  0  0  0
   10.6462   14.2593   24.1327 O   0  0  0  0  0  0  0  0  0  0  0  0
    6.7728   10.8313   25.1342 O   0  0  0  0  0  0  0  0  0  0  0  0
   13.8655   16.9934   17.3120 H   0  0  0  0  0  0  0  0  0  0  0  0
   11.5403   16.2577   17.7676 H   0  0  0  0  0  0  0  0  0  0  0  0
   15.6138   16.7288   19.0530 H   0  0  0  0  0  0  0  0  0  0  0  0
   10.9599   15.2610   19.9549 H   0  0  0  0  0  0  0  0  0  0  0  0
   15.0436   15.7332   21.2432 H   0  0  0  0  0  0  0  0  0  0  0  0
   12.5984   12.2728   23.2877 H   0  0  0  0  0  0  0  0  0  0  0  0
   14.1388   12.4893   24.2349 H   0  0  0  0  0  0  0  0  0  0  0  0
   15.4247   12.7008   22.0907 H   0  0  0  0  0  0  0  0  0  0  0  0
   13.8825   12.4850   21.1460 H   0  0  0  0  0  0  0  0  0  0  0  0
    5.7449    7.8314   24.0741 H   0  0  0  0  0  0  0  0  0  0  0  0
    6.0856    9.2677   23.0920 H   0  0  0  0  0  0  0  0  0  0  0  0
    9.3971   10.0072   22.1280 H   0  0  0  0  0  0  0  0  0  0  0  0
    7.8210   10.7612   22.4866 H   0  0  0  0  0  0  0  0  0  0  0  0
    8.1850   12.7336   24.7960 H   0  0  0  0  0  0  0  0  0  0  0  0
    9.6914   12.1204   25.5148 H   0  0  0  0  0  0  0  0  0  0  0  0
    4.9646    9.8853   25.2100 H   0  0  0  0  0  0  0  0  0  0  0  0
    6.2381    9.1173   26.1683 H   0  0  0  0  0  0  0  0  0  0  0  0
   14.4851   14.7531   23.1973 H   0  0  0  0  0  0  0  0  0  0  0  0
    9.6401    9.2253   24.4268 H   0  0  0  0  0  0  0  0  0  0  0  0
    8.4424   10.2697   26.2174 H   0  0  0  0  0  0  0  0  0  0  0  0
    9.2000    7.3048   22.9513 H   0  0  0  0  0  0  0  0  0  0  0  0
    7.5450    6.6070   22.9705 H   0  0  0  0  0  0  0  0  0  0  0  0
    7.8984    8.0530   21.9651 H   0  0  0  0  0  0  0  0  0  0  0  0
    8.4997   13.2973   22.7080 H   0  0  0  0  0  0  0  0  0  0  0  0
    9.6156   12.4733   21.5846 H   0  0  0  0  0  0  0  0  0  0  0  0
   12.3132   15.6191   22.7734 H   0  0  0  0  0  0  0  0  0  0  0  0
   11.2970   13.4737   21.0983 H   0  0  0  0  0  0  0  0  0  0  0  0
  1  2  2  0  0  0  0
  1  3  1  0  0  0  0
  2  4  1  0  0  0  0
  3  5  2  0  0  0  0
  4  6  2  0  0  0  0
  5  6  1  0  0  0  0
  6 19  1  0  0  0  0
  7 18  1  0  0  0  0
  7 22  1  0  0  0  0
  7 23  2  0  0  0  0
  8  9  1  0  0  0  0
  8 14  1  0  0  0  0
  9 14  1  0  0  0  0
 10 13  1  0  0  0  0
 10 21  1  0  0  0  0
 11 15  1  0  0  0  0
 11 20  1  0  0  0  0
 12 16  1  0  0  0  0
 12 20  1  0  0  0  0
 13 24  1  0  0  0  0
 14 19  1  0  0  0  0
 15 16  1  0  0  0  0
 15 21  1  0  0  0  0
 16 24  1  0  0  0  0
 17 21  1  0  0  0  0
 18 20  1  0  0  0  0
 19 22  1  0  0  0  0
  1 25  1  0  0  0  0
  2 26  1  0  0  0  0
  3 27  1  0  0  0  0
  4 28  1  0  0  0  0
  5 29  1  0  0  0  0
  8 30  1  0  0  0  0
  8 31  1  0  0  0  0
  9 32  1  0  0  0  0
  9 33  1  0  0  0  0
 10 34  1  0  0  0  0
 10 35  1  0  0  0  0
 11 36  1  0  0  0  0
 11 37  1  0  0  0  0
 12 38  1  0  0  0  0
 12 39  1  0  0  0  0
 13 40  1  0  0  0  0
 13 41  1  0  0  0  0
 14 42  1  0  0  0  0
 15 43  1  0  0  0  0
 16 44  1  0  0  0  0
 17 45  1  0  0  0  0
 17 46  1  0  0  0  0
 17 47  1  0  0  0  0
 18 48  1  0  0  0  0
 18 49  1  0  0  0  0
 19 50  1  0  0  0  0
 22 51  1  0  0  0  0
M  END
> <Catalog ID>
Z1422562712

> <PlateID>
1041831-R-28

> <Well>
H09

> <MW (desalted)>
329.437

> <ClogP>
1.473

> <HBD>
1

> <TPSA>
44.810

> <RotBonds>
5

> <ROCS_ShapeQuery>
A71EV2A-x0451_0A_A71EV2A-x0310_0A_A71EV2A-x0416_0A_peptide

> <ROCS_TanimotoCombo>
0.530 

> <ROCS_ShapeTanimoto>
0.324 

> <ROCS_ColorTanimoto>
0.205 

> <ROCS_RefTversky>
0.294 

> <ROCS_RefColorTversky>
0.222 

> <ROCS_RefTverskyCombo>
0.515 

> <ROCS_FitTversky>
1.478 

> <ROCS_FitColorTversky>
0.734 

> <ROCS_FitTverskyCombo>
2.212 

> <ROCS_ColorScore>
-6.768

> <ROCS_Overlap>
2040.834

> <ROCS_Rank>
226                 

$$$$
untitled-dbase-297_1955
  -OEChem-11132311063D

 38 40  0     0  0  0  0  0  0999 V2000
   14.3485   15.4746   18.6579 C   0  0  0  0  0  0  0  0  0  0  0  0
   13.2662   15.6099   17.7884 C   0  0  0  0  0  0  0  0  0  0  0  0
   14.1309   15.3748   20.0321 C   0  0  0  0  0  0  0  0  0  0  0  0
   11.9664   15.6456   18.2931 C   0  0  0  0  0  0  0  0  0  0  0  0
   12.8311   15.4106   20.5368 C   0  0  0  0  0  0  0  0  0  0  0  0
   11.7488   15.5459   19.6673 C   0  0  0  0  0  0  0  0  0  0  0  0
    8.8353   10.4562   23.8666 C   0  0  0  0  0  0  0  0  0  0  0  0
    7.1323   11.3762   24.8818 C   0  0  0  0  0  0  0  0  0  0  0  0
   10.1073   10.4638   23.2294 C   0  0  0  0  0  0  0  0  0  0  0  0
   10.7747   11.6276   23.0960 C   0  0  0  0  0  0  0  0  0  0  0  0
    9.0169   12.8784   24.1947 C   0  0  0  0  0  0  0  0  0  0  0  0
   10.2187   12.8793   23.5916 C   0  0  0  0  0  0  0  0  0  0  0  0
   10.9376   14.1444   23.4494 C   0  0  0  0  0  0  0  0  0  0  0  0
    9.9417   16.8652   20.4735 C   0  0  0  0  0  0  0  0  0  0  0  0
   12.6159   15.3023   22.0187 C   0  0  0  0  0  0  0  0  0  0  0  0
    6.2528   12.3873   25.4991 C   0  0  0  0  0  0  0  0  0  0  0  0
    7.9668    9.5056   24.1386 N   0  0  0  0  0  0  0  0  0  0  0  0
    6.8916   10.0880   24.7799 N   0  0  0  0  0  0  0  0  0  0  0  0
    8.3436   11.6690   24.3237 N   0  0  0  0  0  0  0  0  0  0  0  0
   11.7993   14.1611   22.3648 N   0  0  0  0  0  0  0  0  0  0  0  0
   10.7572   15.0721   24.2405 O   0  0  0  0  0  0  0  0  0  0  0  0
   10.4729   15.5834   20.1440 O   0  0  0  0  0  0  0  0  0  0  0  0
    6.8146   13.6304   25.4574 F   0  0  0  0  0  0  0  0  0  0  0  0
    6.0368   12.1210   26.8200 F   0  0  0  0  0  0  0  0  0  0  0  0
   15.3610   15.4472   18.2654 H   0  0  0  0  0  0  0  0  0  0  0  0
   13.4361   15.6883   16.7187 H   0  0  0  0  0  0  0  0  0  0  0  0
   14.9810   15.2712   20.7013 H   0  0  0  0  0  0  0  0  0  0  0  0
   11.1273   15.7513   17.6108 H   0  0  0  0  0  0  0  0  0  0  0  0
   10.5261    9.5350   22.8592 H   0  0  0  0  0  0  0  0  0  0  0  0
   11.7450   11.6479   22.6108 H   0  0  0  0  0  0  0  0  0  0  0  0
    8.5400   13.7682   24.5885 H   0  0  0  0  0  0  0  0  0  0  0  0
    8.9187   16.7530   20.8409 H   0  0  0  0  0  0  0  0  0  0  0  0
    9.9538   17.5044   19.5871 H   0  0  0  0  0  0  0  0  0  0  0  0
   10.5593   17.3160   21.2538 H   0  0  0  0  0  0  0  0  0  0  0  0
   13.5734   15.2029   22.5417 H   0  0  0  0  0  0  0  0  0  0  0  0
   12.1227   16.1980   22.4107 H   0  0  0  0  0  0  0  0  0  0  0  0
    5.2686   12.4601   25.0180 H   0  0  0  0  0  0  0  0  0  0  0  0
   11.8603   13.3298   21.7838 H   0  0  0  0  0  0  0  0  0  0  0  0
  1  2  2  0  0  0  0
  1  3  1  0  0  0  0
  2  4  1  0  0  0  0
  3  5  2  0  0  0  0
  4  6  2  0  0  0  0
  5  6  1  0  0  0  0
  5 15  1  0  0  0  0
  6 22  1  0  0  0  0
  7  9  1  0  0  0  0
  7 17  2  0  0  0  0
  7 19  1  0  0  0  0
  8 16  1  0  0  0  0
  8 18  2  0  0  0  0
  8 19  1  0  0  0  0
  9 10  2  0  0  0  0
 10 12  1  0  0  0  0
 11 12  2  0  0  0  0
 11 19  1  0  0  0  0
 12 13  1  0  0  0  0
 13 20  1  0  0  0  0
 13 21  2  0  0  0  0
 14 22  1  0  0  0  0
 15 20  1  0  0  0  0
 16 23  1  0  0  0  0
 16 24  1  0  0  0  0
 17 18  1  0  0  0  0
  1 25  1  0  0  0  0
  2 26  1  0  0  0  0
  3 27  1  0  0  0  0
  4 28  1  0  0  0  0
  9 29  1  0  0  0  0
 10 30  1  0  0  0  0
 11 31  1  0  0  0  0
 14 32  1  0  0  0  0
 14 33  1  0  0  0  0
 14 34  1  0  0  0  0
 15 35  1  0  0  0  0
 15 36  1  0  0  0  0
 16 37  1  0  0  0  0
 20 38  1  0  0  0  0
M  END
> <Catalog ID>
Z1416038864

> <PlateID>
1041831-R-04

> <Well>
F08

> <MW (desalted)>
332.305

> <ClogP>
1.738

> <HBD>
1

> <TPSA>
68.520

> <RotBonds>
5

> <ROCS_ShapeQuery>
A71EV2A-x0451_0A_A71EV2A-x0310_0A_A71EV2A-x0416_0A_peptide

> <ROCS_TanimotoCombo>
0.530 

> <ROCS_ShapeTanimoto>
0.373 

> <ROCS_ColorTanimoto>
0.157 

> <ROCS_RefTversky>
0.327 

> <ROCS_RefColorTversky>
0.177 

> <ROCS_RefTverskyCombo>
0.505 

> <ROCS_FitTversky>
1.605 

> <ROCS_FitColorTversky>
0.571 

> <ROCS_FitTverskyCombo>
2.176 

> <ROCS_ColorScore>
-5.420

> <ROCS_Overlap>
2273.656

> <ROCS_Rank>
227                 

$$$$
untitled-dbase-2987_9067
  -OEChem-11132311063D

 46 49  0     0  0  0  0  0  0999 V2000
    8.8802    9.9391   23.5166 C   0  0  0  0  0  0  0  0  0  0  0  0
    9.8751   10.8824   23.4106 C   0  0  0  0  0  0  0  0  0  0  0  0
    8.3217   11.8336   24.5291 C   0  0  0  0  0  0  0  0  0  0  0  0
    7.4379   12.6643   25.2790 C   0  0  0  0  0  0  0  0  0  0  0  0
    6.2390   12.1861   25.6644 C   0  0  0  0  0  0  0  0  0  0  0  0
    5.8170   10.8341   25.3344 C   0  0  0  0  0  0  0  0  0  0  0  0
    6.6440   10.0455   24.6288 C   0  0  0  0  0  0  0  0  0  0  0  0
   14.2138   16.9752   19.4025 C   0  0  0  0  0  0  0  0  0  0  0  0
   13.6545   14.6266   18.7558 C   0  0  0  0  0  0  0  0  0  0  0  0
   13.5424   16.7634   20.7679 C   0  0  0  0  0  0  0  0  0  0  0  0
   12.9808   14.4072   20.1189 C   0  0  0  0  0  0  0  0  0  0  0  0
   11.9631   16.2793   19.0469 C   0  0  0  0  0  0  0  0  0  0  0  0
   13.3642   16.1072   18.4597 C   0  0  0  0  0  0  0  0  0  0  0  0
   12.3856   15.7956   20.4379 C   0  0  0  0  0  0  0  0  0  0  0  0
   11.2107   10.7543   22.7200 C   0  0  0  0  0  0  0  0  0  0  0  0
   11.2906   15.7692   21.4813 C   0  0  0  0  0  0  0  0  0  0  0  0
   12.0543   12.0232   22.8150 C   0  0  0  0  0  0  0  0  0  0  0  0
    9.5249   12.0509   24.0383 N   0  0  0  0  0  0  0  0  0  0  0  0
    7.8813   10.5461   24.2337 N   0  0  0  0  0  0  0  0  0  0  0  0
   11.3806   13.1956   22.2285 N   0  0  0  0  0  0  0  0  0  0  0  0
   13.1600   14.8709   23.0779 O   0  0  0  0  0  0  0  0  0  0  0  0
   10.7926   15.0242   23.9313 O   0  0  0  0  0  0  0  0  0  0  0  0
   11.7283   14.7496   22.8517 S   0  0  0  0  0  0  0  0  0  0  0  0
    8.7966    8.9225   23.1565 H   0  0  0  0  0  0  0  0  0  0  0  0
    7.7417   13.6743   25.5307 H   0  0  0  0  0  0  0  0  0  0  0  0
    5.5531   12.8027   26.2349 H   0  0  0  0  0  0  0  0  0  0  0  0
    4.8440   10.4923   25.6655 H   0  0  0  0  0  0  0  0  0  0  0  0
    6.3931    9.0294   24.3493 H   0  0  0  0  0  0  0  0  0  0  0  0
   14.1567   18.0312   19.1155 H   0  0  0  0  0  0  0  0  0  0  0  0
   15.2680   16.6807   19.4123 H   0  0  0  0  0  0  0  0  0  0  0  0
   14.7258   14.4041   18.7857 H   0  0  0  0  0  0  0  0  0  0  0  0
   13.1921   13.9814   18.0002 H   0  0  0  0  0  0  0  0  0  0  0  0
   14.2386   16.3488   21.5045 H   0  0  0  0  0  0  0  0  0  0  0  0
   13.1712   17.7197   21.1548 H   0  0  0  0  0  0  0  0  0  0  0  0
   12.1993   13.6435   20.0313 H   0  0  0  0  0  0  0  0  0  0  0  0
   13.6965   14.0739   20.8779 H   0  0  0  0  0  0  0  0  0  0  0  0
   11.6150   17.3180   19.0345 H   0  0  0  0  0  0  0  0  0  0  0  0
   11.2143   15.6365   18.5713 H   0  0  0  0  0  0  0  0  0  0  0  0
   13.4704   16.3721   17.4060 H   0  0  0  0  0  0  0  0  0  0  0  0
   11.0347   10.5141   21.6638 H   0  0  0  0  0  0  0  0  0  0  0  0
   11.7629    9.9016   23.1355 H   0  0  0  0  0  0  0  0  0  0  0  0
   10.3628   15.3683   21.0643 H   0  0  0  0  0  0  0  0  0  0  0  0
   11.0995   16.7717   21.8730 H   0  0  0  0  0  0  0  0  0  0  0  0
   12.2493   12.2637   23.8649 H   0  0  0  0  0  0  0  0  0  0  0  0
   13.0173   11.9071   22.3069 H   0  0  0  0  0  0  0  0  0  0  0  0
   10.4092   13.0184   21.9415 H   0  0  0  0  0  0  0  0  0  0  0  0
  1  2  2  0  0  0  0
  1 19  1  0  0  0  0
  2 15  1  0  0  0  0
  2 18  1  0  0  0  0
  3  4  1  0  0  0  0
  3 18  2  0  0  0  0
  3 19  1  0  0  0  0
  4  5  2  0  0  0  0
  5  6  1  0  0  0  0
  6  7  2  0  0  0  0
  7 19  1  0  0  0  0
  8 10  1  0  0  0  0
  8 13  1  0  0  0  0
  9 11  1  0  0  0  0
  9 13  1  0  0  0  0
 10 14  1  0  0  0  0
 11 14  1  0  0  0  0
 12 13  1  0  0  0  0
 12 14  1  0  0  0  0
 14 16  1  0  0  0  0
 15 17  1  0  0  0  0
 16 23  1  0  0  0  0
 17 20  1  0  0  0  0
 20 23  1  0  0  0  0
 21 23  2  0  0  0  0
 22 23  2  0  0  0  0
  1 24  1  0  0  0  0
  4 25  1  0  0  0  0
  5 26  1  0  0  0  0
  6 27  1  0  0  0  0
  7 28  1  0  0  0  0
  8 29  1  0  0  0  0
  8 30  1  0  0  0  0
  9 31  1  0  0  0  0
  9 32  1  0  0  0  0
 10 33  1  0  0  0  0
 10 34  1  0  0  0  0
 11 35  1  0  0  0  0
 11 36  1  0  0  0  0
 12 37  1  0  0  0  0
 12 38  1  0  0  0  0
 13 39  1  0  0  0  0
 15 40  1  0  0  0  0
 15 41  1  0  0  0  0
 16 42  1  0  0  0  0
 16 43  1  0  0  0  0
 17 44  1  0  0  0  0
 17 45  1  0  0  0  0
 20 46  1  0  0  0  0
M  END
> <Catalog ID>
Z2186088506

> <PlateID>
1041831-R-38

> <Well>
C08

> <MW (desalted)>
333.448

> <ClogP>
3.188

> <HBD>
1

> <TPSA>
63.470

> <RotBonds>
5

> <ROCS_ShapeQuery>
A71EV2A-x0451_0A_A71EV2A-x0310_0A_A71EV2A-x0416_0A_peptide

> <ROCS_TanimotoCombo>
0.530 

> <ROCS_ShapeTanimoto>
0.339 

> <ROCS_ColorTanimoto>
0.191 

> <ROCS_RefTversky>
0.302 

> <ROCS_RefColorTversky>
0.234 

> <ROCS_RefTverskyCombo>
0.536 

> <ROCS_FitTversky>
1.565 

> <ROCS_FitColorTversky>
0.506 

> <ROCS_FitTverskyCombo>
2.071 

> <ROCS_ColorScore>
-7.218

> <ROCS_Overlap>
2097.750

> <ROCS_Rank>
228                 

$$$$
untitled-dbase-2953_1941
  -OEChem-11132311063D

 44 47  0     1  0  0  0  0  0999 V2000
   13.1608   15.3490   18.2705 C   0  0  0  0  0  0  0  0  0  0  0  0
   12.0001   15.4052   19.0338 C   0  0  0  0  0  0  0  0  0  0  0  0
   14.3259   15.8556   18.8235 C   0  0  0  0  0  0  0  0  0  0  0  0
   13.2545   16.4377   20.7706 C   0  0  0  0  0  0  0  0  0  0  0  0
   10.9168   13.6839   22.0495 C   0  0  0  0  0  0  0  0  0  0  0  0
   12.0392   15.9585   20.3088 C   0  0  0  0  0  0  0  0  0  0  0  0
   10.8778   13.2158   23.3389 C   0  0  0  0  0  0  0  0  0  0  0  0
   10.9520   11.8141   23.7741 C   0  0  0  0  0  0  0  0  0  0  0  0
    6.1515   11.2515   26.0083 C   0  0  0  0  0  0  0  0  0  0  0  0
    7.0967   12.4137   26.2853 C   0  0  0  0  0  0  0  0  0  0  0  0
    6.0703   10.9512   24.5164 C   0  0  0  0  0  0  0  0  0  0  0  0
    8.4972   12.1102   25.7684 C   0  0  0  0  0  0  0  0  0  0  0  0
    8.1122    9.4286   24.1266 C   0  0  0  0  0  0  0  0  0  0  0  0
    9.5498    9.6875   23.6895 C   0  0  0  0  0  0  0  0  0  0  0  0
    7.4293   10.7717   23.8473 C   0  0  2  0  0  0  0  0  0  0  0  0
    8.5028   11.7860   24.2670 C   0  0  2  0  0  0  0  0  0  0  0  0
   10.8004   16.0334   21.1598 C   0  0  0  0  0  0  0  0  0  0  0  0
   14.4029   16.4005   20.0583 N   0  0  0  0  0  0  0  0  0  0  0  0
   10.7564   14.2664   24.2056 N   0  0  0  0  0  0  0  0  0  0  0  0
   10.7173   15.3844   23.4889 N   0  0  0  0  0  0  0  0  0  0  0  0
   10.8134   15.0329   22.1965 N   0  0  0  0  0  0  0  0  0  0  0  0
    9.7555   11.1224   23.8937 N   0  0  0  0  0  0  0  0  0  0  0  0
   12.0696   11.3508   23.9899 O   0  0  0  0  0  0  0  0  0  0  0  0
   13.1540   14.9218   17.2742 H   0  0  0  0  0  0  0  0  0  0  0  0
   11.0705   15.0157   18.6276 H   0  0  0  0  0  0  0  0  0  0  0  0
   15.2579   15.8355   18.2682 H   0  0  0  0  0  0  0  0  0  0  0  0
   13.3464   16.8803   21.7577 H   0  0  0  0  0  0  0  0  0  0  0  0
   11.0042   13.2002   21.0867 H   0  0  0  0  0  0  0  0  0  0  0  0
    6.4877   10.3609   26.5523 H   0  0  0  0  0  0  0  0  0  0  0  0
    5.1512   11.4932   26.3863 H   0  0  0  0  0  0  0  0  0  0  0  0
    6.7159   13.3265   25.8115 H   0  0  0  0  0  0  0  0  0  0  0  0
    7.1377   12.6043   27.3636 H   0  0  0  0  0  0  0  0  0  0  0  0
    5.4470   10.0648   24.3504 H   0  0  0  0  0  0  0  0  0  0  0  0
    5.5556   11.7887   24.0276 H   0  0  0  0  0  0  0  0  0  0  0  0
    9.1517   12.9673   25.9656 H   0  0  0  0  0  0  0  0  0  0  0  0
    8.9063   11.2683   26.3422 H   0  0  0  0  0  0  0  0  0  0  0  0
    7.6545    8.6086   23.5649 H   0  0  0  0  0  0  0  0  0  0  0  0
    8.0813    9.1737   25.1917 H   0  0  0  0  0  0  0  0  0  0  0  0
   10.2745    9.1060   24.2669 H   0  0  0  0  0  0  0  0  0  0  0  0
    9.6878    9.4748   22.6236 H   0  0  0  0  0  0  0  0  0  0  0  0
    7.2817   10.8458   22.7599 H   0  0  0  0  0  0  0  0  0  0  0  0
    8.4007   12.7174   23.6970 H   0  0  0  0  0  0  0  0  0  0  0  0
   10.7045   17.0177   21.6340 H   0  0  0  0  0  0  0  0  0  0  0  0
    9.8959   15.8896   20.5563 H   0  0  0  0  0  0  0  0  0  0  0  0
  1  2  1  0  0  0  0
  1  3  2  0  0  0  0
  2  6  2  0  0  0  0
  3 18  1  0  0  0  0
  4  6  1  0  0  0  0
  4 18  2  0  0  0  0
  5  7  2  0  0  0  0
  5 21  1  0  0  0  0
  6 17  1  0  0  0  0
  7  8  1  0  0  0  0
  7 19  1  0  0  0  0
  8 22  1  0  0  0  0
  8 23  2  0  0  0  0
  9 10  1  0  0  0  0
  9 11  1  0  0  0  0
 10 12  1  0  0  0  0
 11 15  1  0  0  0  0
 12 16  1  0  0  0  0
 13 14  1  0  0  0  0
 13 15  1  0  0  0  0
 14 22  1  0  0  0  0
 15 16  1  0  0  0  0
 16 22  1  0  0  0  0
 17 21  1  0  0  0  0
 19 20  2  0  0  0  0
 20 21  1  0  0  0  0
  1 24  1  0  0  0  0
  2 25  1  0  0  0  0
  3 26  1  0  0  0  0
  4 27  1  0  0  0  0
  5 28  1  0  0  0  0
  9 29  1  0  0  0  0
  9 30  1  0  0  0  0
 10 31  1  0  0  0  0
 10 32  1  0  0  0  0
 11 33  1  0  0  0  0
 11 34  1  0  0  0  0
 12 35  1  0  0  0  0
 12 36  1  0  0  0  0
 13 37  1  0  0  0  0
 13 38  1  0  0  0  0
 14 39  1  0  0  0  0
 14 40  1  0  0  0  0
 15 41  1  0  0  0  0
 16 42  1  0  0  0  0
 17 43  1  0  0  0  0
 17 44  1  0  0  0  0
M  END
> <Catalog ID>
Z1273920274

> <PlateID>
1041831-R-37

> <Well>
H04

> <MW (desalted)>
311.382

> <ClogP>
0.729

> <HBD>
0

> <TPSA>
63.910

> <RotBonds>
3

> <ROCS_ShapeQuery>
A71EV2A-x0451_0A_A71EV2A-x0310_0A_A71EV2A-x0416_0A_peptide

> <ROCS_TanimotoCombo>
0.530 

> <ROCS_ShapeTanimoto>
0.349 

> <ROCS_ColorTanimoto>
0.180 

> <ROCS_RefTversky>
0.310 

> <ROCS_RefColorTversky>
0.200 

> <ROCS_RefTverskyCombo>
0.510 

> <ROCS_FitTversky>
1.575 

> <ROCS_FitColorTversky>
0.642 

> <ROCS_FitTverskyCombo>
2.217 

> <ROCS_ColorScore>
-6.120

> <ROCS_Overlap>
2152.788

> <ROCS_Rank>
229                 

$$$$
untitled-dbase-114_409
  -OEChem-11132311063D

 48 51  0     1  0  0  0  0  0999 V2000
    7.4527   17.0453   20.8461 C   0  0  0  0  0  0  0  0  0  0  0  0
    8.5959   17.5950   20.2660 C   0  0  0  0  0  0  0  0  0  0  0  0
    7.5627   15.9474   21.6996 C   0  0  0  0  0  0  0  0  0  0  0  0
    9.8491   17.0468   20.5392 C   0  0  0  0  0  0  0  0  0  0  0  0
    8.8159   15.3993   21.9728 C   0  0  0  0  0  0  0  0  0  0  0  0
   13.5235   16.2833   20.9051 C   0  0  0  0  0  0  0  0  0  0  0  0
   12.1108   15.1736   19.3060 C   0  0  0  0  0  0  0  0  0  0  0  0
   14.4298   16.4929   19.8782 C   0  0  0  0  0  0  0  0  0  0  0  0
   13.0802   15.4331   18.3506 C   0  0  0  0  0  0  0  0  0  0  0  0
    9.9591   15.9489   21.3926 C   0  0  0  0  0  0  0  0  0  0  0  0
   12.3443   15.6103   20.6052 C   0  0  0  0  0  0  0  0  0  0  0  0
   10.8916   13.4248   23.2065 C   0  0  0  0  0  0  0  0  0  0  0  0
    7.3633   10.2997   25.3056 C   0  0  0  0  0  0  0  0  0  0  0  0
    7.8138   11.7389   25.5981 C   0  0  0  0  0  0  0  0  0  0  0  0
    7.6717   11.4540   23.2470 C   0  0  0  0  0  0  0  0  0  0  0  0
    9.3869    9.9277   23.8708 C   0  0  0  0  0  0  0  0  0  0  0  0
    7.8538   10.0697   23.8660 C   0  0  1  0  0  0  0  0  0  0  0  0
    8.5407   12.1429   24.3016 C   0  0  2  0  0  0  0  0  0  0  0  0
    9.8684   11.3517   24.2233 C   0  0  2  0  0  0  0  0  0  0  0  0
   10.8301   11.9113   23.1808 C   0  0  0  0  0  0  0  0  0  0  0  0
   11.3188   15.3533   21.6894 C   0  0  2  0  0  0  0  0  0  0  0  0
   14.2379   16.0836   18.6042 N   0  0  0  0  0  0  0  0  0  0  0  0
   11.1986   13.9379   21.9548 N   0  0  0  0  0  0  0  0  0  0  0  0
   10.6894   14.0925   24.2171 O   0  0  0  0  0  0  0  0  0  0  0  0
    6.4771   17.4731   20.6344 H   0  0  0  0  0  0  0  0  0  0  0  0
    8.5105   18.4504   19.6023 H   0  0  0  0  0  0  0  0  0  0  0  0
    6.6730   15.5199   22.1523 H   0  0  0  0  0  0  0  0  0  0  0  0
   10.7343   17.4815   20.0825 H   0  0  0  0  0  0  0  0  0  0  0  0
    8.8919   14.5438   22.6389 H   0  0  0  0  0  0  0  0  0  0  0  0
   13.7360   16.6359   21.9088 H   0  0  0  0  0  0  0  0  0  0  0  0
   11.2008   14.6464   19.0410 H   0  0  0  0  0  0  0  0  0  0  0  0
   15.3653   17.0117   20.0605 H   0  0  0  0  0  0  0  0  0  0  0  0
   12.9458   15.1132   17.3226 H   0  0  0  0  0  0  0  0  0  0  0  0
    7.7901    9.5827   26.0140 H   0  0  0  0  0  0  0  0  0  0  0  0
    6.2713   10.2288   25.3624 H   0  0  0  0  0  0  0  0  0  0  0  0
    6.9408   12.3791   25.7697 H   0  0  0  0  0  0  0  0  0  0  0  0
    8.4574   11.7983   26.4813 H   0  0  0  0  0  0  0  0  0  0  0  0
    8.0695   11.5291   22.2305 H   0  0  0  0  0  0  0  0  0  0  0  0
    6.6313   11.7963   23.2558 H   0  0  0  0  0  0  0  0  0  0  0  0
    9.7293    9.1914   24.6054 H   0  0  0  0  0  0  0  0  0  0  0  0
    9.7445    9.6131   22.8836 H   0  0  0  0  0  0  0  0  0  0  0  0
    7.3415    9.2526   23.3543 H   0  0  0  0  0  0  0  0  0  0  0  0
    8.6518   13.2234   24.1869 H   0  0  0  0  0  0  0  0  0  0  0  0
   10.3796   11.3522   25.1936 H   0  0  0  0  0  0  0  0  0  0  0  0
   10.5102   11.5891   22.1857 H   0  0  0  0  0  0  0  0  0  0  0  0
   11.8324   11.5146   23.3656 H   0  0  0  0  0  0  0  0  0  0  0  0
   11.7012   15.7767   22.6274 H   0  0  0  0  0  0  0  0  0  0  0  0
   11.3458   13.2878   21.1882 H   0  0  0  0  0  0  0  0  0  0  0  0
  1  2  2  0  0  0  0
  1  3  1  0  0  0  0
  2  4  1  0  0  0  0
  3  5  2  0  0  0  0
  4 10  2  0  0  0  0
  5 10  1  0  0  0  0
  6  8  1  0  0  0  0
  6 11  2  0  0  0  0
  7  9  2  0  0  0  0
  7 11  1  0  0  0  0
  8 22  2  0  0  0  0
  9 22  1  0  0  0  0
 10 21  1  0  0  0  0
 11 21  1  0  0  0  0
 12 20  1  0  0  0  0
 12 23  1  0  0  0  0
 12 24  2  0  0  0  0
 13 14  1  0  0  0  0
 13 17  1  0  0  0  0
 14 18  1  0  0  0  0
 15 17  1  0  0  0  0
 15 18  1  0  0  0  0
 16 17  1  0  0  0  0
 16 19  1  0  0  0  0
 18 19  1  0  0  0  0
 19 20  1  0  0  0  0
 21 23  1  0  0  0  0
  1 25  1  0  0  0  0
  2 26  1  0  0  0  0
  3 27  1  0  0  0  0
  4 28  1  0  0  0  0
  5 29  1  0  0  0  0
  6 30  1  0  0  0  0
  7 31  1  0  0  0  0
  8 32  1  0  0  0  0
  9 33  1  0  0  0  0
 13 34  1  0  0  0  0
 13 35  1  0  0  0  0
 14 36  1  0  0  0  0
 14 37  1  0  0  0  0
 15 38  1  0  0  0  0
 15 39  1  0  0  0  0
 16 40  1  0  0  0  0
 16 41  1  0  0  0  0
 17 42  1  0  0  0  0
 18 43  1  0  0  0  0
 19 44  1  0  0  0  0
 20 45  1  0  0  0  0
 20 46  1  0  0  0  0
 21 47  1  0  0  0  0
 23 48  1  0  0  0  0
M  END
> <Catalog ID>
Z71140828

> <PlateID>
1041831-R-02

> <Well>
D05

> <MW (desalted)>
320.428

> <ClogP>
3.726

> <HBD>
1

> <TPSA>
41.990

> <RotBonds>
5

> <ROCS_ShapeQuery>
A71EV2A-x0451_0A_A71EV2A-x0310_0A_A71EV2A-x0416_0A_peptide

> <ROCS_TanimotoCombo>
0.529 

> <ROCS_ShapeTanimoto>
0.307 

> <ROCS_ColorTanimoto>
0.222 

> <ROCS_RefTversky>
0.282 

> <ROCS_RefColorTversky>
0.255 

> <ROCS_RefTverskyCombo>
0.537 

> <ROCS_FitTversky>
1.406 

> <ROCS_FitColorTversky>
0.634 

> <ROCS_FitTverskyCombo>
2.041 

> <ROCS_ColorScore>
-7.827

> <ROCS_Overlap>
1960.384

> <ROCS_Rank>
230                 

$$$$
untitled-dbase-528_4764
  -OEChem-11132311063D

 49 51  0     1  0  0  0  0  0999 V2000
   12.3290   15.1437   18.4240 C   0  0  0  0  0  0  0  0  0  0  0  0
   11.7160   14.9240   19.6575 C   0  0  0  0  0  0  0  0  0  0  0  0
   13.5079   15.8860   18.3534 C   0  0  0  0  0  0  0  0  0  0  0  0
    4.5061   10.9081   26.3372 C   0  0  0  0  0  0  0  0  0  0  0  0
    5.2065   13.0632   27.1431 C   0  0  0  0  0  0  0  0  0  0  0  0
   13.4606   16.1890   20.7499 C   0  0  0  0  0  0  0  0  0  0  0  0
    3.3828   11.0335   27.1385 C   0  0  0  0  0  0  0  0  0  0  0  0
    4.0517   13.0922   27.9082 C   0  0  0  0  0  0  0  0  0  0  0  0
    5.4305   11.9467   26.3452 C   0  0  0  0  0  0  0  0  0  0  0  0
   12.2818   15.4466   20.8204 C   0  0  0  0  0  0  0  0  0  0  0  0
   14.0737   16.4087   19.5163 C   0  0  0  0  0  0  0  0  0  0  0  0
    6.6521   11.8639   25.5045 C   0  0  0  0  0  0  0  0  0  0  0  0
    8.9189   11.7956   23.9442 C   0  0  0  0  0  0  0  0  0  0  0  0
    8.3183   10.6958   24.4475 C   0  0  0  0  0  0  0  0  0  0  0  0
    8.2949   13.1216   24.2406 C   0  0  0  0  0  0  0  0  0  0  0  0
   10.8663   13.1602   23.3581 C   0  0  0  0  0  0  0  0  0  0  0  0
    8.8227    9.3002   24.1865 C   0  0  0  0  0  0  0  0  0  0  0  0
    9.4914   16.4306   21.4639 C   0  0  0  0  0  0  0  0  0  0  0  0
   10.1763   11.8344   23.1272 C   0  0  0  0  0  0  0  0  0  0  0  0
   10.6057   16.3196   22.4974 C   0  0  0  0  0  0  0  0  0  0  0  0
   11.6146   15.2085   22.1600 C   0  0  1  0  0  0  0  0  0  0  0  0
    3.1308   12.1026   27.9267 N   0  0  0  0  0  0  0  0  0  0  0  0
    7.1828   10.7135   25.2296 N   0  0  0  0  0  0  0  0  0  0  0  0
    7.1681   13.0577   25.0331 N   0  0  0  0  0  0  0  0  0  0  0  0
   10.9991   13.9012   22.1951 N   0  0  0  0  0  0  0  0  0  0  0  0
    8.7582   14.1704   23.8012 O   0  0  0  0  0  0  0  0  0  0  0  0
   11.2464   13.5163   24.4723 O   0  0  0  0  0  0  0  0  0  0  0  0
   15.5275   17.3254   19.4285 Cl  0  0  0  0  0  0  0  0  0  0  0  0
   11.8881   14.7367   17.5187 H   0  0  0  0  0  0  0  0  0  0  0  0
   10.7976   14.3445   19.7031 H   0  0  0  0  0  0  0  0  0  0  0  0
   13.9745   16.0495   17.3851 H   0  0  0  0  0  0  0  0  0  0  0  0
    4.6492   10.0236   25.7255 H   0  0  0  0  0  0  0  0  0  0  0  0
    5.9071   13.8909   27.1721 H   0  0  0  0  0  0  0  0  0  0  0  0
   13.8981   16.5939   21.6595 H   0  0  0  0  0  0  0  0  0  0  0  0
    2.6312   10.2518   27.1673 H   0  0  0  0  0  0  0  0  0  0  0  0
    3.8306   13.9402   28.5477 H   0  0  0  0  0  0  0  0  0  0  0  0
    9.5347    9.0287   24.9593 H   0  0  0  0  0  0  0  0  0  0  0  0
    9.3036    9.2711   23.2135 H   0  0  0  0  0  0  0  0  0  0  0  0
    7.9842    8.6107   24.1968 H   0  0  0  0  0  0  0  0  0  0  0  0
    8.9612   15.4791   21.3551 H   0  0  0  0  0  0  0  0  0  0  0  0
    8.7653   17.1889   21.7739 H   0  0  0  0  0  0  0  0  0  0  0  0
    9.8828   16.7219   20.4843 H   0  0  0  0  0  0  0  0  0  0  0  0
    9.9300   11.7542   22.0681 H   0  0  0  0  0  0  0  0  0  0  0  0
   10.8029   10.9868   23.4033 H   0  0  0  0  0  0  0  0  0  0  0  0
   11.1094   17.2913   22.5749 H   0  0  0  0  0  0  0  0  0  0  0  0
   10.1499   16.1199   23.4756 H   0  0  0  0  0  0  0  0  0  0  0  0
   12.3828   15.1879   22.9430 H   0  0  0  0  0  0  0  0  0  0  0  0
    6.7057   13.9308   25.2718 H   0  0  0  0  0  0  0  0  0  0  0  0
   10.6479   13.5078   21.3275 H   0  0  0  0  0  0  0  0  0  0  0  0
  1  2  1  0  0  0  0
  1  3  2  0  0  0  0
  2 10  2  0  0  0  0
  3 11  1  0  0  0  0
  4  7  1  0  0  0  0
  4  9  2  0  0  0  0
  5  8  2  0  0  0  0
  5  9  1  0  0  0  0
  6 10  1  0  0  0  0
  6 11  2  0  0  0  0
  7 22  2  0  0  0  0
  8 22  1  0  0  0  0
  9 12  1  0  0  0  0
 10 21  1  0  0  0  0
 11 28  1  0  0  0  0
 12 23  2  0  0  0  0
 12 24  1  0  0  0  0
 13 14  2  0  0  0  0
 13 15  1  0  0  0  0
 13 19  1  0  0  0  0
 14 17  1  0  0  0  0
 14 23  1  0  0  0  0
 15 24  1  0  0  0  0
 15 26  2  0  0  0  0
 16 19  1  0  0  0  0
 16 25  1  0  0  0  0
 16 27  2  0  0  0  0
 18 20  1  0  0  0  0
 20 21  1  0  0  0  0
 21 25  1  0  0  0  0
  1 29  1  0  0  0  0
  2 30  1  0  0  0  0
  3 31  1  0  0  0  0
  4 32  1  0  0  0  0
  5 33  1  0  0  0  0
  6 34  1  0  0  0  0
  7 35  1  0  0  0  0
  8 36  1  0  0  0  0
 17 37  1  0  0  0  0
 17 38  1  0  0  0  0
 17 39  1  0  0  0  0
 18 40  1  0  0  0  0
 18 41  1  0  0  0  0
 18 42  1  0  0  0  0
 19 43  1  0  0  0  0
 19 44  1  0  0  0  0
 20 45  1  0  0  0  0
 20 46  1  0  0  0  0
 21 47  1  0  0  0  0
 24 48  1  0  0  0  0
 25 49  1  0  0  0  0
M  END
> <Catalog ID>
Z746819090

> <PlateID>
1041831-R-07

> <Well>
E09

> <MW (desalted)>
396.870

> <ClogP>
2.015

> <HBD>
2

> <TPSA>
83.450

> <RotBonds>
6

> <ROCS_ShapeQuery>
A71EV2A-x0451_0A_A71EV2A-x0310_0A_A71EV2A-x0416_0A_peptide

> <ROCS_TanimotoCombo>
0.529 

> <ROCS_ShapeTanimoto>
0.361 

> <ROCS_ColorTanimoto>
0.168 

> <ROCS_RefTversky>
0.324 

> <ROCS_RefColorTversky>
0.196 

> <ROCS_RefTverskyCombo>
0.521 

> <ROCS_FitTversky>
1.453 

> <ROCS_FitColorTversky>
0.542 

> <ROCS_FitTverskyCombo>
1.995 

> <ROCS_ColorScore>
-6.011

> <ROCS_Overlap>
2257.229

> <ROCS_Rank>
231                 

$$$$
untitled-dbase-1945_12
  -OEChem-11132311063D

 50 53  0     1  0  0  0  0  0999 V2000
    6.3230   10.8775   26.1945 C   0  0  0  0  0  0  0  0  0  0  0  0
    6.9760    9.9786   25.3464 C   0  0  0  0  0  0  0  0  0  0  0  0
    6.7237   12.2097   26.2753 C   0  0  0  0  0  0  0  0  0  0  0  0
    9.7785   10.6970   23.1678 C   0  0  0  0  0  0  0  0  0  0  0  0
    8.4670   11.7960   24.6450 C   0  0  0  0  0  0  0  0  0  0  0  0
    9.5621   11.9267   23.7457 C   0  0  0  0  0  0  0  0  0  0  0  0
    8.0437   10.4665   24.5846 C   0  0  0  0  0  0  0  0  0  0  0  0
    7.7934   12.6838   25.5072 C   0  0  0  0  0  0  0  0  0  0  0  0
   10.3634   13.1409   23.4444 C   0  0  0  0  0  0  0  0  0  0  0  0
    8.6709   15.3846   21.2206 C   0  0  0  0  0  0  0  0  0  0  0  0
   12.8927   14.8081   18.9408 C   0  0  0  0  0  0  0  0  0  0  0  0
   13.0473   16.4595   20.6864 C   0  0  0  0  0  0  0  0  0  0  0  0
    7.7305   16.5648   21.0937 C   0  0  0  0  0  0  0  0  0  0  0  0
   13.9782   15.5581   18.1741 C   0  0  0  0  0  0  0  0  0  0  0  0
   14.1283   17.1713   19.8781 C   0  0  0  0  0  0  0  0  0  0  0  0
    9.6411   17.0122   19.8377 C   0  0  0  0  0  0  0  0  0  0  0  0
   10.0103   16.0273   20.9333 C   0  0  2  0  0  0  0  0  0  0  0  0
   11.7153   14.3188   21.7295 C   0  0  0  0  0  0  0  0  0  0  0  0
   11.0971   15.0475   20.5342 C   0  0  2  0  0  0  0  0  0  0  0  0
    8.8575    9.8229   23.6799 N   0  0  0  0  0  0  0  0  0  0  0  0
   12.1357   15.7468   19.7806 N   0  0  0  0  0  0  0  0  0  0  0  0
   10.8937   13.2130   22.1660 N   0  0  0  0  0  0  0  0  0  0  0  0
   10.5283   13.9841   24.3221 O   0  0  0  0  0  0  0  0  0  0  0  0
    8.3025   17.4492   20.1186 O   0  0  0  0  0  0  0  0  0  0  0  0
   14.8514   16.2330   19.0805 O   0  0  0  0  0  0  0  0  0  0  0  0
    8.1619   13.9686   25.6006 F   0  0  0  0  0  0  0  0  0  0  0  0
    5.4895   10.5307   26.8001 H   0  0  0  0  0  0  0  0  0  0  0  0
    6.6633    8.9417   25.2843 H   0  0  0  0  0  0  0  0  0  0  0  0
    6.2006   12.8900   26.9419 H   0  0  0  0  0  0  0  0  0  0  0  0
   10.5034   10.3627   22.4384 H   0  0  0  0  0  0  0  0  0  0  0  0
    8.6150   14.9044   22.2015 H   0  0  0  0  0  0  0  0  0  0  0  0
    8.4310   14.6335   20.4582 H   0  0  0  0  0  0  0  0  0  0  0  0
   12.2252   14.3164   18.2238 H   0  0  0  0  0  0  0  0  0  0  0  0
   13.3563   14.0310   19.5624 H   0  0  0  0  0  0  0  0  0  0  0  0
   13.5179   15.7549   21.3844 H   0  0  0  0  0  0  0  0  0  0  0  0
   12.4958   17.2028   21.2736 H   0  0  0  0  0  0  0  0  0  0  0  0
    6.7257   16.2693   20.7790 H   0  0  0  0  0  0  0  0  0  0  0  0
    7.6537   17.1144   22.0379 H   0  0  0  0  0  0  0  0  0  0  0  0
   14.5807   14.8508   17.5951 H   0  0  0  0  0  0  0  0  0  0  0  0
   13.5493   16.2823   17.4710 H   0  0  0  0  0  0  0  0  0  0  0  0
   13.7051   17.9507   19.2326 H   0  0  0  0  0  0  0  0  0  0  0  0
   14.8424   17.6533   20.5534 H   0  0  0  0  0  0  0  0  0  0  0  0
   10.3085   17.8786   19.8117 H   0  0  0  0  0  0  0  0  0  0  0  0
    9.6370   16.5460   18.8462 H   0  0  0  0  0  0  0  0  0  0  0  0
   10.3295   16.5870   21.8234 H   0  0  0  0  0  0  0  0  0  0  0  0
   11.8415   15.0127   22.5682 H   0  0  0  0  0  0  0  0  0  0  0  0
   12.7094   13.9416   21.4661 H   0  0  0  0  0  0  0  0  0  0  0  0
   10.6501   14.2958   19.8731 H   0  0  0  0  0  0  0  0  0  0  0  0
    8.7850    8.8462   23.4304 H   0  0  0  0  0  0  0  0  0  0  0  0
   10.7668   12.4463   21.5133 H   0  0  0  0  0  0  0  0  0  0  0  0
  1  2  1  0  0  0  0
  1  3  2  0  0  0  0
  2  7  2  0  0  0  0
  3  8  1  0  0  0  0
  4  6  2  0  0  0  0
  4 20  1  0  0  0  0
  5  6  1  0  0  0  0
  5  7  1  0  0  0  0
  5  8  2  0  0  0  0
  6  9  1  0  0  0  0
  7 20  1  0  0  0  0
  8 26  1  0  0  0  0
  9 22  1  0  0  0  0
  9 23  2  0  0  0  0
 10 13  1  0  0  0  0
 10 17  1  0  0  0  0
 11 14  1  0  0  0  0
 11 21  1  0  0  0  0
 12 15  1  0  0  0  0
 12 21  1  0  0  0  0
 13 24  1  0  0  0  0
 14 25  1  0  0  0  0
 15 25  1  0  0  0  0
 16 17  1  0  0  0  0
 16 24  1  0  0  0  0
 17 19  1  0  0  0  0
 18 19  1  0  0  0  0
 18 22  1  0  0  0  0
 19 21  1  0  0  0  0
  1 27  1  0  0  0  0
  2 28  1  0  0  0  0
  3 29  1  0  0  0  0
  4 30  1  0  0  0  0
 10 31  1  0  0  0  0
 10 32  1  0  0  0  0
 11 33  1  0  0  0  0
 11 34  1  0  0  0  0
 12 35  1  0  0  0  0
 12 36  1  0  0  0  0
 13 37  1  0  0  0  0
 13 38  1  0  0  0  0
 14 39  1  0  0  0  0
 14 40  1  0  0  0  0
 15 41  1  0  0  0  0
 15 42  1  0  0  0  0
 16 43  1  0  0  0  0
 16 44  1  0  0  0  0
 17 45  1  0  0  0  0
 18 46  1  0  0  0  0
 18 47  1  0  0  0  0
 19 48  1  0  0  0  0
 20 49  1  0  0  0  0
 22 50  1  0  0  0  0
M  END
> <Catalog ID>
Z1537587594

> <PlateID>
1041831-R-25

> <Well>
C06

> <MW (desalted)>
361.411

> <ClogP>
1.351

> <HBD>
2

> <TPSA>
66.590

> <RotBonds>
5

> <ROCS_ShapeQuery>
A71EV2A-x0451_0A_A71EV2A-x0310_0A_A71EV2A-x0416_0A_peptide

> <ROCS_TanimotoCombo>
0.529 

> <ROCS_ShapeTanimoto>
0.342 

> <ROCS_ColorTanimoto>
0.187 

> <ROCS_RefTversky>
0.309 

> <ROCS_RefColorTversky>
0.215 

> <ROCS_RefTverskyCombo>
0.524 

> <ROCS_FitTversky>
1.443 

> <ROCS_FitColorTversky>
0.593 

> <ROCS_FitTverskyCombo>
2.037 

> <ROCS_ColorScore>
-6.587

> <ROCS_Overlap>
2150.328

> <ROCS_Rank>
232                 

$$$$
untitled-dbase-264_1873
  -OEChem-11132311063D

 40 42  0     1  0  0  0  0  0999 V2000
    7.9802   12.7443   25.0208 C   0  0  0  0  0  0  0  0  0  0  0  0
    6.9086   12.5827   25.9065 C   0  0  0  0  0  0  0  0  0  0  0  0
   12.2207   15.6069   19.7206 C   0  0  0  0  0  0  0  0  0  0  0  0
    6.9621   10.1709   25.6150 C   0  0  0  0  0  0  0  0  0  0  0  0
    9.7250   10.0471   23.2767 C   0  0  0  0  0  0  0  0  0  0  0  0
   13.1357   16.2871   18.9475 C   0  0  0  0  0  0  0  0  0  0  0  0
   14.1632   15.3285   20.9661 C   0  0  0  0  0  0  0  0  0  0  0  0
    8.5541   11.6056   24.4213 C   0  0  0  0  0  0  0  0  0  0  0  0
    9.6210   11.4004   23.5022 C   0  0  0  0  0  0  0  0  0  0  0  0
    8.0329   10.3477   24.7316 C   0  0  0  0  0  0  0  0  0  0  0  0
   12.8158   15.0516   20.8900 C   0  0  0  0  0  0  0  0  0  0  0  0
    6.4090   11.3148   26.1976 C   0  0  0  0  0  0  0  0  0  0  0  0
   10.3580   15.1141   24.3873 C   0  0  0  0  0  0  0  0  0  0  0  0
   12.6423   13.7497   23.0394 C   0  0  0  0  0  0  0  0  0  0  0  0
    9.8725   15.9469   25.5271 C   0  0  0  0  0  0  0  0  0  0  0  0
   10.4698   12.4446   22.8932 C   0  0  0  0  0  0  0  0  0  0  0  0
   11.5613   13.0105   23.8310 C   0  0  2  0  0  0  0  0  0  0  0  0
    8.7628    9.4206   24.0224 N   0  0  0  0  0  0  0  0  0  0  0  0
   12.1254   14.3015   21.8708 N   0  0  0  0  0  0  0  0  0  0  0  0
   11.0140   13.9583   24.7711 N   0  0  0  0  0  0  0  0  0  0  0  0
   10.1544   15.4860   23.2376 O   0  0  0  0  0  0  0  0  0  0  0  0
   13.7914   13.8510   23.4609 O   0  0  0  0  0  0  0  0  0  0  0  0
    5.3819   11.1892   27.0494 F   0  0  0  0  0  0  0  0  0  0  0  0
   14.7052   16.2545   19.6316 S   0  0  0  0  0  0  0  0  0  0  0  0
    8.3578   13.7395   24.8036 H   0  0  0  0  0  0  0  0  0  0  0  0
    6.4625   13.4573   26.3723 H   0  0  0  0  0  0  0  0  0  0  0  0
   11.1752   15.5148   19.4539 H   0  0  0  0  0  0  0  0  0  0  0  0
    6.5725    9.1845   25.8426 H   0  0  0  0  0  0  0  0  0  0  0  0
   10.3962    9.4725   22.6537 H   0  0  0  0  0  0  0  0  0  0  0  0
   12.9573   16.8025   18.0144 H   0  0  0  0  0  0  0  0  0  0  0  0
   14.8602   15.0350   21.7390 H   0  0  0  0  0  0  0  0  0  0  0  0
   10.6203   16.6862   25.8561 H   0  0  0  0  0  0  0  0  0  0  0  0
    8.9772   16.5342   25.2673 H   0  0  0  0  0  0  0  0  0  0  0  0
    9.5984   15.3878   26.4361 H   0  0  0  0  0  0  0  0  0  0  0  0
    9.8365   13.2854   22.5443 H   0  0  0  0  0  0  0  0  0  0  0  0
   10.9557   12.0761   21.9663 H   0  0  0  0  0  0  0  0  0  0  0  0
   12.0123   12.2117   24.4305 H   0  0  0  0  0  0  0  0  0  0  0  0
    8.6102    8.4219   24.0490 H   0  0  0  0  0  0  0  0  0  0  0  0
   11.1322   14.1703   21.6925 H   0  0  0  0  0  0  0  0  0  0  0  0
   11.1156   13.7674   25.7645 H   0  0  0  0  0  0  0  0  0  0  0  0
  1  2  1  0  0  0  0
  1  8  2  0  0  0  0
  2 12  2  0  0  0  0
  3  6  2  0  0  0  0
  3 11  1  0  0  0  0
  4 10  2  0  0  0  0
  4 12  1  0  0  0  0
  5  9  2  0  0  0  0
  5 18  1  0  0  0  0
  6 24  1  0  0  0  0
  7 11  2  0  0  0  0
  7 24  1  0  0  0  0
  8  9  1  0  0  0  0
  8 10  1  0  0  0  0
  9 16  1  0  0  0  0
 10 18  1  0  0  0  0
 11 19  1  0  0  0  0
 12 23  1  0  0  0  0
 13 15  1  0  0  0  0
 13 20  1  0  0  0  0
 13 21  2  0  0  0  0
 14 17  1  0  0  0  0
 14 19  1  0  0  0  0
 14 22  2  0  0  0  0
 16 17  1  0  0  0  0
 17 20  1  0  0  0  0
  1 25  1  0  0  0  0
  2 26  1  0  0  0  0
  3 27  1  0  0  0  0
  4 28  1  0  0  0  0
  5 29  1  0  0  0  0
  6 30  1  0  0  0  0
  7 31  1  0  0  0  0
 15 32  1  0  0  0  0
 15 33  1  0  0  0  0
 15 34  1  0  0  0  0
 16 35  1  0  0  0  0
 16 36  1  0  0  0  0
 17 37  1  0  0  0  0
 18 38  1  0  0  0  0
 19 39  1  0  0  0  0
 20 40  1  0  0  0  0
M  END
> <Catalog ID>
Z1344136716

> <PlateID>
1041831-R-04

> <Well>
C05

> <MW (desalted)>
345.391

> <ClogP>
2.068

> <HBD>
3

> <TPSA>
73.990

> <RotBonds>
5

> <ROCS_ShapeQuery>
A71EV2A-x0451_0A_A71EV2A-x0310_0A_A71EV2A-x0416_0A_peptide

> <ROCS_TanimotoCombo>
0.529 

> <ROCS_ShapeTanimoto>
0.362 

> <ROCS_ColorTanimoto>
0.167 

> <ROCS_RefTversky>
0.319 

> <ROCS_RefColorTversky>
0.186 

> <ROCS_RefTverskyCombo>
0.505 

> <ROCS_FitTversky>
1.602 

> <ROCS_FitColorTversky>
0.617 

> <ROCS_FitTverskyCombo>
2.219 

> <ROCS_ColorScore>
-5.674

> <ROCS_Overlap>
2216.461

> <ROCS_Rank>
233                 

$$$$
untitled-dbase-1488_343
  -OEChem-11132311063D

 44 47  0     1  0  0  0  0  0999 V2000
   16.0943   13.1332   25.8353 C   0  0  0  0  0  0  0  0  0  0  0  0
   16.6564   14.3941   25.6693 C   0  0  0  0  0  0  0  0  0  0  0  0
   14.9355   12.7749   25.1404 C   0  0  0  0  0  0  0  0  0  0  0  0
   16.0779   15.3289   24.8071 C   0  0  0  0  0  0  0  0  0  0  0  0
   10.3198   10.9211   23.3138 C   0  0  0  0  0  0  0  0  0  0  0  0
    8.4453   11.9676   24.3538 C   0  0  0  0  0  0  0  0  0  0  0  0
    9.6997   12.0929   23.7457 C   0  0  0  0  0  0  0  0  0  0  0  0
   14.3305   13.7007   24.2628 C   0  0  0  0  0  0  0  0  0  0  0  0
   14.9139   14.9624   24.1124 C   0  0  0  0  0  0  0  0  0  0  0  0
    9.6701    9.7073   23.5066 C   0  0  0  0  0  0  0  0  0  0  0  0
    7.4725   12.8069   24.9250 C   0  0  0  0  0  0  0  0  0  0  0  0
    7.9065   10.6968   24.4854 C   0  0  0  0  0  0  0  0  0  0  0  0
   12.9114   14.5627   22.8103 C   0  0  0  0  0  0  0  0  0  0  0  0
   10.3501   13.4002   23.5635 C   0  0  0  0  0  0  0  0  0  0  0  0
   10.3468    8.4589   23.0384 C   0  0  0  0  0  0  0  0  0  0  0  0
    7.5014   14.2721   25.0679 C   0  0  0  0  0  0  0  0  0  0  0  0
   11.2330   16.1341   21.7587 C   0  0  0  0  0  0  0  0  0  0  0  0
    9.8196   13.3498   21.1572 C   0  0  0  0  0  0  0  0  0  0  0  0
   11.7575   14.6916   21.8942 C   0  0  2  0  0  0  0  0  0  0  0  0
   13.1845   13.4870   23.5109 N   0  0  0  0  0  0  0  0  0  0  0  0
    8.4592    9.5359   24.0883 N   0  0  0  0  0  0  0  0  0  0  0  0
    6.4158   12.1245   25.3754 N   0  0  0  0  0  0  0  0  0  0  0  0
   10.6528   13.8132   22.2598 N   0  0  0  0  0  0  0  0  0  0  0  0
   10.5701   14.0463   24.5873 O   0  0  0  0  0  0  0  0  0  0  0  0
    6.6922   10.7922   25.0968 O   0  0  0  0  0  0  0  0  0  0  0  0
   13.9812   15.8848   22.9935 S   0  0  0  0  0  0  0  0  0  0  0  0
   16.5583   12.4194   26.5103 H   0  0  0  0  0  0  0  0  0  0  0  0
   17.5576   14.6577   26.2168 H   0  0  0  0  0  0  0  0  0  0  0  0
   14.5056   11.7867   25.2770 H   0  0  0  0  0  0  0  0  0  0  0  0
   16.5231   16.3111   24.6817 H   0  0  0  0  0  0  0  0  0  0  0  0
   11.2941   10.9574   22.8343 H   0  0  0  0  0  0  0  0  0  0  0  0
   10.9724    8.0456   23.8372 H   0  0  0  0  0  0  0  0  0  0  0  0
    9.6134    7.7009   22.7391 H   0  0  0  0  0  0  0  0  0  0  0  0
   10.9786    8.6566   22.1643 H   0  0  0  0  0  0  0  0  0  0  0  0
    7.0554   14.7694   24.1894 H   0  0  0  0  0  0  0  0  0  0  0  0
    6.9481   14.6155   25.9603 H   0  0  0  0  0  0  0  0  0  0  0  0
    8.5295   14.6600   25.1828 H   0  0  0  0  0  0  0  0  0  0  0  0
   10.9422   16.5290   22.7383 H   0  0  0  0  0  0  0  0  0  0  0  0
   11.9909   16.8024   21.3347 H   0  0  0  0  0  0  0  0  0  0  0  0
   10.3575   16.1824   21.1014 H   0  0  0  0  0  0  0  0  0  0  0  0
    8.9937   14.0587   20.9980 H   0  0  0  0  0  0  0  0  0  0  0  0
   10.4265   13.2826   20.2422 H   0  0  0  0  0  0  0  0  0  0  0  0
    9.4099   12.3580   21.3991 H   0  0  0  0  0  0  0  0  0  0  0  0
   12.0290   14.3648   20.8701 H   0  0  0  0  0  0  0  0  0  0  0  0
  1  2  2  0  0  0  0
  1  3  1  0  0  0  0
  2  4  1  0  0  0  0
  3  8  2  0  0  0  0
  4  9  2  0  0  0  0
  5  7  1  0  0  0  0
  5 10  2  0  0  0  0
  6  7  2  0  0  0  0
  6 11  1  0  0  0  0
  6 12  1  0  0  0  0
  7 14  1  0  0  0  0
  8  9  1  0  0  0  0
  8 20  1  0  0  0  0
  9 26  1  0  0  0  0
 10 15  1  0  0  0  0
 10 21  1  0  0  0  0
 11 16  1  0  0  0  0
 11 22  2  0  0  0  0
 12 21  2  0  0  0  0
 12 25  1  0  0  0  0
 13 19  1  0  0  0  0
 13 20  2  0  0  0  0
 13 26  1  0  0  0  0
 14 23  1  0  0  0  0
 14 24  2  0  0  0  0
 17 19  1  0  0  0  0
 18 23  1  0  0  0  0
 19 23  1  0  0  0  0
 22 25  1  0  0  0  0
  1 27  1  0  0  0  0
  2 28  1  0  0  0  0
  3 29  1  0  0  0  0
  4 30  1  0  0  0  0
  5 31  1  0  0  0  0
 15 32  1  0  0  0  0
 15 33  1  0  0  0  0
 15 34  1  0  0  0  0
 16 35  1  0  0  0  0
 16 36  1  0  0  0  0
 16 37  1  0  0  0  0
 17 38  1  0  0  0  0
 17 39  1  0  0  0  0
 17 40  1  0  0  0  0
 18 41  1  0  0  0  0
 18 42  1  0  0  0  0
 18 43  1  0  0  0  0
 19 44  1  0  0  0  0
M  END
> <Catalog ID>
Z229439942

> <PlateID>
1041831-R-19

> <Well>
E09

> <MW (desalted)>
366.437

> <ClogP>
2.869

> <HBD>
0

> <TPSA>
72.120

> <RotBonds>
3

> <ROCS_ShapeQuery>
A71EV2A-x0451_0A_A71EV2A-x0310_0A_A71EV2A-x0416_0A_peptide

> <ROCS_TanimotoCombo>
0.529 

> <ROCS_ShapeTanimoto>
0.362 

> <ROCS_ColorTanimoto>
0.167 

> <ROCS_RefTversky>
0.323 

> <ROCS_RefColorTversky>
0.186 

> <ROCS_RefTverskyCombo>
0.509 

> <ROCS_FitTversky>
1.496 

> <ROCS_FitColorTversky>
0.617 

> <ROCS_FitTverskyCombo>
2.114 

> <ROCS_ColorScore>
-5.693

> <ROCS_Overlap>
2245.994

> <ROCS_Rank>
234                 

$$$$
untitled-dbase-1655_793
  -OEChem-11132311063D

 55 58  0     1  0  0  0  0  0999 V2000
    7.3239   10.2067   24.6158 C   0  0  0  0  0  0  0  0  0  0  0  0
    5.6112   11.0235   25.5037 C   0  0  0  0  0  0  0  0  0  0  0  0
   11.2144   13.4749   23.4234 C   0  0  0  0  0  0  0  0  0  0  0  0
    8.4162    9.3716   24.0548 C   0  0  0  0  0  0  0  0  0  0  0  0
    9.3534   10.1951   23.1611 C   0  0  0  0  0  0  0  0  0  0  0  0
   13.7167   16.6231   18.1810 C   0  0  0  0  0  0  0  0  0  0  0  0
   12.2203   16.4405   17.9547 C   0  0  0  0  0  0  0  0  0  0  0  0
   12.7375   15.3724   22.9744 C   0  0  0  0  0  0  0  0  0  0  0  0
   14.0330   16.8370   19.6577 C   0  0  0  0  0  0  0  0  0  0  0  0
   11.6688   15.2905   18.7912 C   0  0  0  0  0  0  0  0  0  0  0  0
   13.7642   15.9878   22.0222 C   0  0  0  0  0  0  0  0  0  0  0  0
   11.4726   14.2487   21.0838 C   0  0  0  0  0  0  0  0  0  0  0  0
    8.4835   12.3697   24.1150 C   0  0  0  0  0  0  0  0  0  0  0  0
   12.1749   14.0627   22.4352 C   0  0  2  0  0  0  0  0  0  0  0  0
   13.4795   15.7042   20.5347 C   0  0  1  0  0  0  0  0  0  0  0  0
   11.9796   15.4656   20.2851 C   0  0  1  0  0  0  0  0  0  0  0  0
    9.7336   11.5239   23.8357 C   0  0  2  0  0  0  0  0  0  0  0  0
    4.8593   11.9947   28.2450 C   0  0  0  0  0  0  0  0  0  0  0  0
    4.2946   11.0964   26.1481 C   0  0  0  0  0  0  0  0  0  0  0  0
    6.1834    9.8310   25.1529 N   0  0  0  0  0  0  0  0  0  0  0  0
    6.3224   12.1184   25.2209 N   0  0  0  0  0  0  0  0  0  0  0  0
    7.4117   11.5690   24.6659 N   0  0  0  0  0  0  0  0  0  0  0  0
   10.6771   12.2630   23.0334 N   0  0  0  0  0  0  0  0  0  0  0  0
   10.9773   14.0745   24.4656 O   0  0  0  0  0  0  0  0  0  0  0  0
    4.2230   12.2416   27.0022 O   0  0  0  0  0  0  0  0  0  0  0  0
    8.9883    8.9401   24.8848 H   0  0  0  0  0  0  0  0  0  0  0  0
    7.9966    8.5388   23.4802 H   0  0  0  0  0  0  0  0  0  0  0  0
   10.2499    9.6024   22.9422 H   0  0  0  0  0  0  0  0  0  0  0  0
    8.8568   10.3980   22.2026 H   0  0  0  0  0  0  0  0  0  0  0  0
   14.2505   15.7380   17.8183 H   0  0  0  0  0  0  0  0  0  0  0  0
   14.0761   17.4772   17.5989 H   0  0  0  0  0  0  0  0  0  0  0  0
   11.6967   17.3662   18.2169 H   0  0  0  0  0  0  0  0  0  0  0  0
   12.0281   16.2507   16.8943 H   0  0  0  0  0  0  0  0  0  0  0  0
   13.2223   15.1825   23.9365 H   0  0  0  0  0  0  0  0  0  0  0  0
   11.9374   16.0949   23.1542 H   0  0  0  0  0  0  0  0  0  0  0  0
   15.1217   16.9114   19.7877 H   0  0  0  0  0  0  0  0  0  0  0  0
   13.6128   17.8001   19.9830 H   0  0  0  0  0  0  0  0  0  0  0  0
   10.5821   15.2228   18.6415 H   0  0  0  0  0  0  0  0  0  0  0  0
   12.0938   14.3425   18.4298 H   0  0  0  0  0  0  0  0  0  0  0  0
   13.8110   17.0806   22.1890 H   0  0  0  0  0  0  0  0  0  0  0  0
   14.7687   15.6072   22.2838 H   0  0  0  0  0  0  0  0  0  0  0  0
   11.6217   13.3365   20.4838 H   0  0  0  0  0  0  0  0  0  0  0  0
   10.3851   14.3394   21.2333 H   0  0  0  0  0  0  0  0  0  0  0  0
    8.7059   13.1703   24.8289 H   0  0  0  0  0  0  0  0  0  0  0  0
    8.0897   12.8142   23.1933 H   0  0  0  0  0  0  0  0  0  0  0  0
   12.9736   13.3394   22.3270 H   0  0  0  0  0  0  0  0  0  0  0  0
   14.0314   14.7813   20.2679 H   0  0  0  0  0  0  0  0  0  0  0  0
   11.4194   16.3501   20.6365 H   0  0  0  0  0  0  0  0  0  0  0  0
   10.2418   11.3053   24.7835 H   0  0  0  0  0  0  0  0  0  0  0  0
    4.7886   12.8851   28.8745 H   0  0  0  0  0  0  0  0  0  0  0  0
    5.9080   11.7387   28.0739 H   0  0  0  0  0  0  0  0  0  0  0  0
    4.3587   11.1599   28.7410 H   0  0  0  0  0  0  0  0  0  0  0  0
    3.4672   11.1735   25.4159 H   0  0  0  0  0  0  0  0  0  0  0  0
    4.0783   10.2027   26.7652 H   0  0  0  0  0  0  0  0  0  0  0  0
   10.9603   11.8741   22.1390 H   0  0  0  0  0  0  0  0  0  0  0  0
  1  4  1  0  0  0  0
  1 20  2  0  0  0  0
  1 22  1  0  0  0  0
  2 19  1  0  0  0  0
  2 20  1  0  0  0  0
  2 21  2  0  0  0  0
  3 14  1  0  0  0  0
  3 23  1  0  0  0  0
  3 24  2  0  0  0  0
  4  5  1  0  0  0  0
  5 17  1  0  0  0  0
  6  7  1  0  0  0  0
  6  9  1  0  0  0  0
  7 10  1  0  0  0  0
  8 11  1  0  0  0  0
  8 14  1  0  0  0  0
  9 15  1  0  0  0  0
 10 16  1  0  0  0  0
 11 15  1  0  0  0  0
 12 14  1  0  0  0  0
 12 16  1  0  0  0  0
 13 17  1  0  0  0  0
 13 22  1  0  0  0  0
 15 16  1  0  0  0  0
 17 23  1  0  0  0  0
 18 25  1  0  0  0  0
 19 25  1  0  0  0  0
 21 22  1  0  0  0  0
  4 26  1  0  0  0  0
  4 27  1  0  0  0  0
  5 28  1  0  0  0  0
  5 29  1  0  0  0  0
  6 30  1  0  0  0  0
  6 31  1  0  0  0  0
  7 32  1  0  0  0  0
  7 33  1  0  0  0  0
  8 34  1  0  0  0  0
  8 35  1  0  0  0  0
  9 36  1  0  0  0  0
  9 37  1  0  0  0  0
 10 38  1  0  0  0  0
 10 39  1  0  0  0  0
 11 40  1  0  0  0  0
 11 41  1  0  0  0  0
 12 42  1  0  0  0  0
 12 43  1  0  0  0  0
 13 44  1  0  0  0  0
 13 45  1  0  0  0  0
 14 46  1  0  0  0  0
 15 47  1  0  0  0  0
 16 48  1  0  0  0  0
 17 49  1  0  0  0  0
 18 50  1  0  0  0  0
 18 51  1  0  0  0  0
 18 52  1  0  0  0  0
 19 53  1  0  0  0  0
 19 54  1  0  0  0  0
 23 55  1  0  0  0  0
M  END
> <Catalog ID>
Z1517804039

> <PlateID>
1041831-R-21

> <Well>
F06

> <MW (desalted)>
346.467

> <ClogP>
1.972

> <HBD>
1

> <TPSA>
69.040

> <RotBonds>
4

> <ROCS_ShapeQuery>
A71EV2A-x0451_0A_A71EV2A-x0310_0A_A71EV2A-x0416_0A_peptide

> <ROCS_TanimotoCombo>
0.529 

> <ROCS_ShapeTanimoto>
0.356 

> <ROCS_ColorTanimoto>
0.172 

> <ROCS_RefTversky>
0.316 

> <ROCS_RefColorTversky>
0.196 

> <ROCS_RefTverskyCombo>
0.512 

> <ROCS_FitTversky>
1.546 

> <ROCS_FitColorTversky>
0.589 

> <ROCS_FitTverskyCombo>
2.135 

> <ROCS_ColorScore>
-5.991

> <ROCS_Overlap>
2199.901

> <ROCS_Rank>
235                 

$$$$
untitled-dbase-1203_918
  -OEChem-11132311063D

 40 42  0     0  0  0  0  0  0999 V2000
    9.2372    9.4798   23.3294 C   0  0  0  0  0  0  0  0  0  0  0  0
    8.0166    9.7108   23.9572 C   0  0  0  0  0  0  0  0  0  0  0  0
   10.1666   10.5084   23.2374 C   0  0  0  0  0  0  0  0  0  0  0  0
    6.5013   11.2349   25.1331 C   0  0  0  0  0  0  0  0  0  0  0  0
    7.2201   13.4564   25.5183 C   0  0  0  0  0  0  0  0  0  0  0  0
   14.2690   15.8738   19.6156 C   0  0  0  0  0  0  0  0  0  0  0  0
    7.7221   10.9749   24.4958 C   0  0  0  0  0  0  0  0  0  0  0  0
    6.2405   12.4938   25.6546 C   0  0  0  0  0  0  0  0  0  0  0  0
    8.6608   12.0239   24.4059 C   0  0  0  0  0  0  0  0  0  0  0  0
    9.8735   11.7650   23.7730 C   0  0  0  0  0  0  0  0  0  0  0  0
   13.2655   15.8776   18.6695 C   0  0  0  0  0  0  0  0  0  0  0  0
   12.0187   15.8091   20.4725 C   0  0  0  0  0  0  0  0  0  0  0  0
    4.9532   12.7943   26.3349 C   0  0  0  0  0  0  0  0  0  0  0  0
   13.4599   15.9173   17.2066 C   0  0  0  0  0  0  0  0  0  0  0  0
   10.8041   15.7633   21.3669 C   0  0  0  0  0  0  0  0  0  0  0  0
   10.1549   14.3825   21.4192 C   0  0  0  0  0  0  0  0  0  0  0  0
    8.4106   13.2467   24.9111 N   0  0  0  0  0  0  0  0  0  0  0  0
   11.9744   15.8401   19.1591 N   0  0  0  0  0  0  0  0  0  0  0  0
   11.0603   13.3531   21.9494 N   0  0  0  0  0  0  0  0  0  0  0  0
   10.6271   14.1972   24.3445 O   0  0  0  0  0  0  0  0  0  0  0  0
   12.3731   12.4279   23.9628 O   0  0  0  0  0  0  0  0  0  0  0  0
   13.5797   15.8233   21.1852 S   0  0  0  0  0  0  0  0  0  0  0  0
   11.0900   13.0219   23.6238 S   0  0  0  0  0  0  0  0  0  0  0  0
    9.4611    8.5018   22.9145 H   0  0  0  0  0  0  0  0  0  0  0  0
    7.2961    8.8986   24.0239 H   0  0  0  0  0  0  0  0  0  0  0  0
   11.1184   10.3235   22.7463 H   0  0  0  0  0  0  0  0  0  0  0  0
    5.7517   10.4509   25.2221 H   0  0  0  0  0  0  0  0  0  0  0  0
    7.0798   14.4616   25.9039 H   0  0  0  0  0  0  0  0  0  0  0  0
   15.3396   15.8982   19.4683 H   0  0  0  0  0  0  0  0  0  0  0  0
    5.0263   12.5846   27.4107 H   0  0  0  0  0  0  0  0  0  0  0  0
    4.6668   13.8483   26.2085 H   0  0  0  0  0  0  0  0  0  0  0  0
    4.1295   12.1939   25.9224 H   0  0  0  0  0  0  0  0  0  0  0  0
   13.5320   14.9002   16.7880 H   0  0  0  0  0  0  0  0  0  0  0  0
   12.6308   16.4333   16.6931 H   0  0  0  0  0  0  0  0  0  0  0  0
   14.3779   16.4614   16.9261 H   0  0  0  0  0  0  0  0  0  0  0  0
   10.0730   16.4940   20.9985 H   0  0  0  0  0  0  0  0  0  0  0  0
   11.0756   16.0915   22.3784 H   0  0  0  0  0  0  0  0  0  0  0  0
    9.2821   14.4056   22.0794 H   0  0  0  0  0  0  0  0  0  0  0  0
    9.8248   14.0535   20.4284 H   0  0  0  0  0  0  0  0  0  0  0  0
   11.3308   12.6099   21.2938 H   0  0  0  0  0  0  0  0  0  0  0  0
  1  2  2  0  0  0  0
  1  3  1  0  0  0  0
  2  7  1  0  0  0  0
  3 10  2  0  0  0  0
  4  7  2  0  0  0  0
  4  8  1  0  0  0  0
  5  8  2  0  0  0  0
  5 17  1  0  0  0  0
  6 11  2  0  0  0  0
  6 22  1  0  0  0  0
  7  9  1  0  0  0  0
  8 13  1  0  0  0  0
  9 10  1  0  0  0  0
  9 17  2  0  0  0  0
 10 23  1  0  0  0  0
 11 14  1  0  0  0  0
 11 18  1  0  0  0  0
 12 15  1  0  0  0  0
 12 18  2  0  0  0  0
 12 22  1  0  0  0  0
 15 16  1  0  0  0  0
 16 19  1  0  0  0  0
 19 23  1  0  0  0  0
 20 23  2  0  0  0  0
 21 23  2  0  0  0  0
  1 24  1  0  0  0  0
  2 25  1  0  0  0  0
  3 26  1  0  0  0  0
  4 27  1  0  0  0  0
  5 28  1  0  0  0  0
  6 29  1  0  0  0  0
 13 30  1  0  0  0  0
 13 31  1  0  0  0  0
 13 32  1  0  0  0  0
 14 33  1  0  0  0  0
 14 34  1  0  0  0  0
 14 35  1  0  0  0  0
 15 36  1  0  0  0  0
 15 37  1  0  0  0  0
 16 38  1  0  0  0  0
 16 39  1  0  0  0  0
 19 40  1  0  0  0  0
M  END
> <Catalog ID>
Z355227988

> <PlateID>
1041831-R-16

> <Well>
A04

> <MW (desalted)>
347.455

> <ClogP>
3.055

> <HBD>
1

> <TPSA>
71.950

> <RotBonds>
4

> <ROCS_ShapeQuery>
A71EV2A-x0451_0A_A71EV2A-x0310_0A_A71EV2A-x0416_0A_peptide

> <ROCS_TanimotoCombo>
0.529 

> <ROCS_ShapeTanimoto>
0.365 

> <ROCS_ColorTanimoto>
0.163 

> <ROCS_RefTversky>
0.318 

> <ROCS_RefColorTversky>
0.183 

> <ROCS_RefTverskyCombo>
0.501 

> <ROCS_FitTversky>
1.677 

> <ROCS_FitColorTversky>
0.606 

> <ROCS_FitTverskyCombo>
2.283 

> <ROCS_ColorScore>
-5.575

> <ROCS_Overlap>
2211.260

> <ROCS_Rank>
236                 

$$$$
untitled-dbase-3297_3343
  -OEChem-11132311063D

 48 51  0     1  0  0  0  0  0999 V2000
   11.4506   15.8823   19.3870 C   0  0  0  0  0  0  0  0  0  0  0  0
    6.3680   11.5581   26.3945 C   0  0  0  0  0  0  0  0  0  0  0  0
    6.8517   10.4220   25.7389 C   0  0  0  0  0  0  0  0  0  0  0  0
   11.3284   14.4947   19.6377 C   0  0  0  0  0  0  0  0  0  0  0  0
    7.7566   13.0254   25.0322 C   0  0  0  0  0  0  0  0  0  0  0  0
   12.4375   16.3373   20.2302 C   0  0  0  0  0  0  0  0  0  0  0  0
    9.2268   10.3064   23.1188 C   0  0  0  0  0  0  0  0  0  0  0  0
    8.2564   11.8968   24.3593 C   0  0  0  0  0  0  0  0  0  0  0  0
    6.8107   12.8376   26.0494 C   0  0  0  0  0  0  0  0  0  0  0  0
    9.1875   11.6679   23.3121 C   0  0  0  0  0  0  0  0  0  0  0  0
    7.7906   10.6402   24.7323 C   0  0  0  0  0  0  0  0  0  0  0  0
   12.2496   14.2006   20.6159 C   0  0  0  0  0  0  0  0  0  0  0  0
   11.1606   13.2550   23.3426 C   0  0  0  0  0  0  0  0  0  0  0  0
   14.2773   11.5194   23.3865 C   0  0  0  0  0  0  0  0  0  0  0  0
   15.3757   11.4370   24.4399 C   0  0  0  0  0  0  0  0  0  0  0  0
   13.3118   13.0048   25.0668 C   0  0  0  0  0  0  0  0  0  0  0  0
   13.6135   12.8867   23.5733 C   0  0  2  0  0  0  0  0  0  0  0  0
    6.2682   14.0250   26.7743 C   0  0  0  0  0  0  0  0  0  0  0  0
    9.9812   12.7041   22.5548 C   0  0  0  0  0  0  0  0  0  0  0  0
   12.6265   12.9310   21.3231 C   0  0  0  0  0  0  0  0  0  0  0  0
   12.4301   13.0311   22.7718 N   0  0  0  0  0  0  0  0  0  0  0  0
   10.9824   13.8533   24.4073 O   0  0  0  0  0  0  0  0  0  0  0  0
   15.6170   13.2623   26.3242 O   0  0  0  0  0  0  0  0  0  0  0  0
   14.1932   11.2137   26.7868 O   0  0  0  0  0  0  0  0  0  0  0  0
    8.3831    9.6740   23.9756 O   0  0  0  0  0  0  0  0  0  0  0  0
   12.9298   15.3184   20.9826 O   0  0  0  0  0  0  0  0  0  0  0  0
   14.6974   12.2318   25.8889 S   0  0  0  0  0  0  0  0  0  0  0  0
   10.8893   16.4765   18.6807 H   0  0  0  0  0  0  0  0  0  0  0  0
    5.6331   11.4325   27.1869 H   0  0  0  0  0  0  0  0  0  0  0  0
    6.5130    9.4271   26.0021 H   0  0  0  0  0  0  0  0  0  0  0  0
   10.6518   13.7985   19.1629 H   0  0  0  0  0  0  0  0  0  0  0  0
    8.0947   14.0235   24.7679 H   0  0  0  0  0  0  0  0  0  0  0  0
   12.8819   17.3058   20.4064 H   0  0  0  0  0  0  0  0  0  0  0  0
    9.7745    9.6625   22.4460 H   0  0  0  0  0  0  0  0  0  0  0  0
   14.7242   11.4713   22.3887 H   0  0  0  0  0  0  0  0  0  0  0  0
   13.5704   10.6926   23.4745 H   0  0  0  0  0  0  0  0  0  0  0  0
   15.6015   10.3988   24.6995 H   0  0  0  0  0  0  0  0  0  0  0  0
   16.2889   11.9502   24.1316 H   0  0  0  0  0  0  0  0  0  0  0  0
   13.2948   14.0543   25.3725 H   0  0  0  0  0  0  0  0  0  0  0  0
   12.3817   12.5198   25.3667 H   0  0  0  0  0  0  0  0  0  0  0  0
   14.2958   13.6967   23.2613 H   0  0  0  0  0  0  0  0  0  0  0  0
    6.8876   14.2515   27.6499 H   0  0  0  0  0  0  0  0  0  0  0  0
    6.2440   14.9090   26.1251 H   0  0  0  0  0  0  0  0  0  0  0  0
    5.2389   13.8480   27.1106 H   0  0  0  0  0  0  0  0  0  0  0  0
    9.3156   13.5325   22.2843 H   0  0  0  0  0  0  0  0  0  0  0  0
   10.3501   12.2561   21.6243 H   0  0  0  0  0  0  0  0  0  0  0  0
   12.0236   12.0922   20.9582 H   0  0  0  0  0  0  0  0  0  0  0  0
   13.6769   12.6785   21.1443 H   0  0  0  0  0  0  0  0  0  0  0  0
  1  4  1  0  0  0  0
  1  6  2  0  0  0  0
  2  3  1  0  0  0  0
  2  9  2  0  0  0  0
  3 11  2  0  0  0  0
  4 12  2  0  0  0  0
  5  8  2  0  0  0  0
  5  9  1  0  0  0  0
  6 26  1  0  0  0  0
  7 10  2  0  0  0  0
  7 25  1  0  0  0  0
  8 10  1  0  0  0  0
  8 11  1  0  0  0  0
  9 18  1  0  0  0  0
 10 19  1  0  0  0  0
 11 25  1  0  0  0  0
 12 20  1  0  0  0  0
 12 26  1  0  0  0  0
 13 19  1  0  0  0  0
 13 21  1  0  0  0  0
 13 22  2  0  0  0  0
 14 15  1  0  0  0  0
 14 17  1  0  0  0  0
 15 27  1  0  0  0  0
 16 17  1  0  0  0  0
 16 27  1  0  0  0  0
 17 21  1  0  0  0  0
 20 21  1  0  0  0  0
 23 27  2  0  0  0  0
 24 27  2  0  0  0  0
  1 28  1  0  0  0  0
  2 29  1  0  0  0  0
  3 30  1  0  0  0  0
  4 31  1  0  0  0  0
  5 32  1  0  0  0  0
  6 33  1  0  0  0  0
  7 34  1  0  0  0  0
 14 35  1  0  0  0  0
 14 36  1  0  0  0  0
 15 37  1  0  0  0  0
 15 38  1  0  0  0  0
 16 39  1  0  0  0  0
 16 40  1  0  0  0  0
 17 41  1  0  0  0  0
 18 42  1  0  0  0  0
 18 43  1  0  0  0  0
 18 44  1  0  0  0  0
 19 45  1  0  0  0  0
 19 46  1  0  0  0  0
 20 47  1  0  0  0  0
 20 48  1  0  0  0  0
M  END
> <Catalog ID>
Z1213669435

> <PlateID>
1041831-R-42

> <Well>
B08

> <MW (desalted)>
387.449

> <ClogP>
1.962

> <HBD>
0

> <TPSA>
80.730

> <RotBonds>
5

> <ROCS_ShapeQuery>
A71EV2A-x0451_0A_A71EV2A-x0310_0A_A71EV2A-x0416_0A_peptide

> <ROCS_TanimotoCombo>
0.529 

> <ROCS_ShapeTanimoto>
0.362 

> <ROCS_ColorTanimoto>
0.167 

> <ROCS_RefTversky>
0.324 

> <ROCS_RefColorTversky>
0.190 

> <ROCS_RefTverskyCombo>
0.514 

> <ROCS_FitTversky>
1.482 

> <ROCS_FitColorTversky>
0.573 

> <ROCS_FitTverskyCombo>
2.055 

> <ROCS_ColorScore>
-5.821

> <ROCS_Overlap>
2251.999

> <ROCS_Rank>
237                 

$$$$
untitled-dbase-1089_3699
  -OEChem-11132311063D

 46 49  0     1  0  0  0  0  0999 V2000
    9.1813    9.8040   23.2612 C   0  0  0  0  0  0  0  0  0  0  0  0
    9.9921   10.9195   23.0516 C   0  0  0  0  0  0  0  0  0  0  0  0
    8.0235    9.9180   24.0309 C   0  0  0  0  0  0  0  0  0  0  0  0
    8.4875   12.2629   24.3815 C   0  0  0  0  0  0  0  0  0  0  0  0
    6.0310   12.5496   28.4615 C   0  0  0  0  0  0  0  0  0  0  0  0
    9.6452   12.1489   23.6118 C   0  0  0  0  0  0  0  0  0  0  0  0
    7.6767   11.1474   24.5910 C   0  0  0  0  0  0  0  0  0  0  0  0
    5.5351   12.3730   27.1912 C   0  0  0  0  0  0  0  0  0  0  0  0
    3.8984   11.9355   28.4945 C   0  0  0  0  0  0  0  0  0  0  0  0
    2.6795   11.6010   29.1546 C   0  0  0  0  0  0  0  0  0  0  0  0
    2.6229   11.6192   30.5003 C   0  0  0  0  0  0  0  0  0  0  0  0
    3.7804   11.9738   31.3061 C   0  0  0  0  0  0  0  0  0  0  0  0
    4.9319   12.2903   30.6917 C   0  0  0  0  0  0  0  0  0  0  0  0
   10.5083   13.3374   23.3887 C   0  0  0  0  0  0  0  0  0  0  0  0
   11.4182   15.7363   21.7232 C   0  0  0  0  0  0  0  0  0  0  0  0
   10.6525   15.6715   20.4041 C   0  0  0  0  0  0  0  0  0  0  0  0
   12.8431   14.1490   20.5301 C   0  0  0  0  0  0  0  0  0  0  0  0
   12.1603   14.4038   21.8748 C   0  0  2  0  0  0  0  0  0  0  0  0
    6.2523   12.5453   25.8845 C   0  0  0  0  0  0  0  0  0  0  0  0
    4.2169   11.9939   27.2174 N   0  0  0  0  0  0  0  0  0  0  0  0
    4.9834   12.2694   29.3008 N   0  0  0  0  0  0  0  0  0  0  0  0
   11.2561   13.3323   22.2209 N   0  0  0  0  0  0  0  0  0  0  0  0
   10.5321   14.2287   24.2333 O   0  0  0  0  0  0  0  0  0  0  0  0
   12.4184   15.7087   18.4462 O   0  0  0  0  0  0  0  0  0  0  0  0
   10.9643   13.6516   18.7427 O   0  0  0  0  0  0  0  0  0  0  0  0
    6.5471   11.2590   25.3419 O   0  0  0  0  0  0  0  0  0  0  0  0
   11.7120   14.7655   19.2880 S   0  0  0  0  0  0  0  0  0  0  0  0
    9.4515    8.8468   22.8251 H   0  0  0  0  0  0  0  0  0  0  0  0
   10.8914   10.8199   22.4495 H   0  0  0  0  0  0  0  0  0  0  0  0
    7.3960    9.0454   24.1905 H   0  0  0  0  0  0  0  0  0  0  0  0
    8.2120   13.2195   24.8199 H   0  0  0  0  0  0  0  0  0  0  0  0
    7.0052   12.8400   28.8311 H   0  0  0  0  0  0  0  0  0  0  0  0
    1.8099   11.3348   28.5642 H   0  0  0  0  0  0  0  0  0  0  0  0
    1.7051   11.3677   31.0205 H   0  0  0  0  0  0  0  0  0  0  0  0
    3.6884   11.9750   32.3854 H   0  0  0  0  0  0  0  0  0  0  0  0
    5.8312   12.5637   31.2304 H   0  0  0  0  0  0  0  0  0  0  0  0
   12.1514   16.5517   21.6789 H   0  0  0  0  0  0  0  0  0  0  0  0
   10.7511   15.9445   22.5660 H   0  0  0  0  0  0  0  0  0  0  0  0
    9.7195   15.1115   20.5138 H   0  0  0  0  0  0  0  0  0  0  0  0
   10.4455   16.6623   19.9942 H   0  0  0  0  0  0  0  0  0  0  0  0
   13.7647   14.7345   20.4515 H   0  0  0  0  0  0  0  0  0  0  0  0
   13.0645   13.0955   20.3429 H   0  0  0  0  0  0  0  0  0  0  0  0
   12.9016   14.4534   22.6793 H   0  0  0  0  0  0  0  0  0  0  0  0
    5.6363   13.1017   25.1698 H   0  0  0  0  0  0  0  0  0  0  0  0
    7.1871   13.0986   26.0253 H   0  0  0  0  0  0  0  0  0  0  0  0
   11.2308   12.5289   21.6002 H   0  0  0  0  0  0  0  0  0  0  0  0
  1  2  1  0  0  0  0
  1  3  2  0  0  0  0
  2  6  2  0  0  0  0
  3  7  1  0  0  0  0
  4  6  1  0  0  0  0
  4  7  2  0  0  0  0
  5  8  2  0  0  0  0
  5 21  1  0  0  0  0
  6 14  1  0  0  0  0
  7 26  1  0  0  0  0
  8 19  1  0  0  0  0
  8 20  1  0  0  0  0
  9 10  1  0  0  0  0
  9 20  2  0  0  0  0
  9 21  1  0  0  0  0
 10 11  2  0  0  0  0
 11 12  1  0  0  0  0
 12 13  2  0  0  0  0
 13 21  1  0  0  0  0
 14 22  1  0  0  0  0
 14 23  2  0  0  0  0
 15 16  1  0  0  0  0
 15 18  1  0  0  0  0
 16 27  1  0  0  0  0
 17 18  1  0  0  0  0
 17 27  1  0  0  0  0
 18 22  1  0  0  0  0
 19 26  1  0  0  0  0
 24 27  2  0  0  0  0
 25 27  2  0  0  0  0
  1 28  1  0  0  0  0
  2 29  1  0  0  0  0
  3 30  1  0  0  0  0
  4 31  1  0  0  0  0
  5 32  1  0  0  0  0
 10 33  1  0  0  0  0
 11 34  1  0  0  0  0
 12 35  1  0  0  0  0
 13 36  1  0  0  0  0
 15 37  1  0  0  0  0
 15 38  1  0  0  0  0
 16 39  1  0  0  0  0
 16 40  1  0  0  0  0
 17 41  1  0  0  0  0
 17 42  1  0  0  0  0
 18 43  1  0  0  0  0
 19 44  1  0  0  0  0
 19 45  1  0  0  0  0
 22 46  1  0  0  0  0
M  END
> <Catalog ID>
Z191473002

> <PlateID>
1041831-R-14

> <Well>
E10

> <MW (desalted)>
385.437

> <ClogP>
0.924

> <HBD>
1

> <TPSA>
89.770

> <RotBonds>
5

> <ROCS_ShapeQuery>
A71EV2A-x0451_0A_A71EV2A-x0310_0A_A71EV2A-x0416_0A_peptide

> <ROCS_TanimotoCombo>
0.528 

> <ROCS_ShapeTanimoto>
0.339 

> <ROCS_ColorTanimoto>
0.190 

> <ROCS_RefTversky>
0.309 

> <ROCS_RefColorTversky>
0.222 

> <ROCS_RefTverskyCombo>
0.531 

> <ROCS_FitTversky>
1.409 

> <ROCS_FitColorTversky>
0.565 

> <ROCS_FitTverskyCombo>
1.974 

> <ROCS_ColorScore>
-6.810

> <ROCS_Overlap>
2146.324

> <ROCS_Rank>
238                 

$$$$
untitled-dbase-750_550
  -OEChem-11132311063D

 55 58  0     1  0  0  0  0  0999 V2000
   12.8715   16.8233   20.6303 C   0  0  0  0  0  0  0  0  0  0  0  0
   11.5357   16.4555   20.4691 C   0  0  0  0  0  0  0  0  0  0  0  0
   13.6470   16.2181   21.6193 C   0  0  0  0  0  0  0  0  0  0  0  0
   10.9754   15.4827   21.2969 C   0  0  0  0  0  0  0  0  0  0  0  0
   13.0867   15.2453   22.4471 C   0  0  0  0  0  0  0  0  0  0  0  0
   11.7509   14.8775   22.2859 C   0  0  0  0  0  0  0  0  0  0  0  0
   11.1597   13.8512   23.1592 C   0  0  0  0  0  0  0  0  0  0  0  0
    7.8346    9.7347   23.2661 C   0  0  0  0  0  0  0  0  0  0  0  0
    8.6378    9.4014   24.5255 C   0  0  0  0  0  0  0  0  0  0  0  0
    5.0178   12.2740   27.2896 C   0  0  0  0  0  0  0  0  0  0  0  0
    7.0957   13.5154   26.6226 C   0  0  0  0  0  0  0  0  0  0  0  0
    8.8256   11.9907   22.6124 C   0  0  0  0  0  0  0  0  0  0  0  0
   10.1631   11.4361   24.7097 C   0  0  0  0  0  0  0  0  0  0  0  0
    4.2287   13.3147   26.5029 C   0  0  0  0  0  0  0  0  0  0  0  0
    6.1896   14.4866   25.8738 C   0  0  0  0  0  0  0  0  0  0  0  0
    6.4558   12.1294   26.7748 C   0  0  0  0  0  0  0  0  0  0  0  0
    7.6604   11.2568   23.3104 C   0  0  2  0  0  0  0  0  0  0  0  0
    8.8693   10.7553   25.2056 C   0  0  1  0  0  0  0  0  0  0  0  0
   10.1968   11.5834   23.1782 C   0  0  0  0  0  0  0  0  0  0  0  0
   12.2938   11.9461   21.9266 C   0  0  0  0  0  0  0  0  0  0  0  0
    6.5089   11.3375   25.4658 C   0  0  0  0  0  0  0  0  0  0  0  0
    7.7511   11.5978   24.7423 N   0  0  0  0  0  0  0  0  0  0  0  0
   11.2247   12.5048   22.7618 N   0  0  0  0  0  0  0  0  0  0  0  0
   10.6518   14.2534   24.2053 O   0  0  0  0  0  0  0  0  0  0  0  0
    4.9094   14.5687   26.4981 O   0  0  0  0  0  0  0  0  0  0  0  0
   13.3077   17.5808   19.9858 H   0  0  0  0  0  0  0  0  0  0  0  0
   10.9320   16.9270   19.6992 H   0  0  0  0  0  0  0  0  0  0  0  0
   14.6872   16.5043   21.7447 H   0  0  0  0  0  0  0  0  0  0  0  0
    9.9335   15.2036   21.1625 H   0  0  0  0  0  0  0  0  0  0  0  0
   13.7004   14.7805   23.2145 H   0  0  0  0  0  0  0  0  0  0  0  0
    8.3397    9.3920   22.3572 H   0  0  0  0  0  0  0  0  0  0  0  0
    6.8608    9.2327   23.3108 H   0  0  0  0  0  0  0  0  0  0  0  0
    8.0469    8.7406   25.1709 H   0  0  0  0  0  0  0  0  0  0  0  0
    9.5713    8.8807   24.2883 H   0  0  0  0  0  0  0  0  0  0  0  0
    5.0181   12.5356   28.3600 H   0  0  0  0  0  0  0  0  0  0  0  0
    4.5054   11.3008   27.2017 H   0  0  0  0  0  0  0  0  0  0  0  0
    8.0433   13.4149   26.0667 H   0  0  0  0  0  0  0  0  0  0  0  0
    7.3514   13.9299   27.6110 H   0  0  0  0  0  0  0  0  0  0  0  0
    8.7984   11.7864   21.5348 H   0  0  0  0  0  0  0  0  0  0  0  0
    8.6801   13.0731   22.7331 H   0  0  0  0  0  0  0  0  0  0  0  0
   10.2409   12.4260   25.1802 H   0  0  0  0  0  0  0  0  0  0  0  0
   11.0353   10.8590   25.0414 H   0  0  0  0  0  0  0  0  0  0  0  0
    4.1199   12.9900   25.4632 H   0  0  0  0  0  0  0  0  0  0  0  0
    3.2217   13.4469   26.9155 H   0  0  0  0  0  0  0  0  0  0  0  0
    6.6352   15.4869   25.8209 H   0  0  0  0  0  0  0  0  0  0  0  0
    6.0389   14.1374   24.8473 H   0  0  0  0  0  0  0  0  0  0  0  0
    7.0346   11.5600   27.5184 H   0  0  0  0  0  0  0  0  0  0  0  0
    6.7161   11.5769   22.8559 H   0  0  0  0  0  0  0  0  0  0  0  0
    8.9109   10.6662   26.2971 H   0  0  0  0  0  0  0  0  0  0  0  0
   10.4820   10.6191   22.7405 H   0  0  0  0  0  0  0  0  0  0  0  0
   13.1090   11.5815   22.5688 H   0  0  0  0  0  0  0  0  0  0  0  0
   11.8953   11.1116   21.3309 H   0  0  0  0  0  0  0  0  0  0  0  0
   12.6785   12.7263   21.2533 H   0  0  0  0  0  0  0  0  0  0  0  0
    6.4443   10.2632   25.6932 H   0  0  0  0  0  0  0  0  0  0  0  0
    5.6574   11.6304   24.8341 H   0  0  0  0  0  0  0  0  0  0  0  0
  1  2  2  0  0  0  0
  1  3  1  0  0  0  0
  2  4  1  0  0  0  0
  3  5  2  0  0  0  0
  4  6  2  0  0  0  0
  5  6  1  0  0  0  0
  6  7  1  0  0  0  0
  7 23  1  0  0  0  0
  7 24  2  0  0  0  0
  8  9  1  0  0  0  0
  8 17  1  0  0  0  0
  9 18  1  0  0  0  0
 10 14  1  0  0  0  0
 10 16  1  0  0  0  0
 11 15  1  0  0  0  0
 11 16  1  0  0  0  0
 12 17  1  0  0  0  0
 12 19  1  0  0  0  0
 13 18  1  0  0  0  0
 13 19  1  0  0  0  0
 14 25  1  0  0  0  0
 15 25  1  0  0  0  0
 16 21  1  0  0  0  0
 17 22  1  0  0  0  0
 18 22  1  0  0  0  0
 19 23  1  0  0  0  0
 20 23  1  0  0  0  0
 21 22  1  0  0  0  0
  1 26  1  0  0  0  0
  2 27  1  0  0  0  0
  3 28  1  0  0  0  0
  4 29  1  0  0  0  0
  5 30  1  0  0  0  0
  8 31  1  0  0  0  0
  8 32  1  0  0  0  0
  9 33  1  0  0  0  0
  9 34  1  0  0  0  0
 10 35  1  0  0  0  0
 10 36  1  0  0  0  0
 11 37  1  0  0  0  0
 11 38  1  0  0  0  0
 12 39  1  0  0  0  0
 12 40  1  0  0  0  0
 13 41  1  0  0  0  0
 13 42  1  0  0  0  0
 14 43  1  0  0  0  0
 14 44  1  0  0  0  0
 15 45  1  0  0  0  0
 15 46  1  0  0  0  0
 16 47  1  0  0  0  0
 17 48  1  0  0  0  0
 18 49  1  0  0  0  0
 19 50  1  0  0  0  0
 20 51  1  0  0  0  0
 20 52  1  0  0  0  0
 20 53  1  0  0  0  0
 21 54  1  0  0  0  0
 21 55  1  0  0  0  0
M  END
> <Catalog ID>
Z1610262462

> <PlateID>
1041831-R-10

> <Well>
C11

> <MW (desalted)>
342.475

> <ClogP>
1.060

> <HBD>
0

> <TPSA>
32.780

> <RotBonds>
4

> <ROCS_ShapeQuery>
A71EV2A-x0451_0A_A71EV2A-x0310_0A_A71EV2A-x0416_0A_peptide

> <ROCS_TanimotoCombo>
0.528 

> <ROCS_ShapeTanimoto>
0.339 

> <ROCS_ColorTanimoto>
0.189 

> <ROCS_RefTversky>
0.305 

> <ROCS_RefColorTversky>
0.221 

> <ROCS_RefTverskyCombo>
0.526 

> <ROCS_FitTversky>
1.487 

> <ROCS_FitColorTversky>
0.570 

> <ROCS_FitTverskyCombo>
2.057 

> <ROCS_ColorScore>
-6.765

> <ROCS_Overlap>
2121.054

> <ROCS_Rank>
239                 

$$$$
untitled-dbase-432_530
  -OEChem-11132311063D

 49 53  0     1  0  0  0  0  0999 V2000
    6.9067   12.7399   25.3949 C   0  0  0  0  0  0  0  0  0  0  0  0
    8.0485   12.6525   24.6007 C   0  0  0  0  0  0  0  0  0  0  0  0
    6.3090   11.5671   25.8365 C   0  0  0  0  0  0  0  0  0  0  0  0
    9.5588    9.4763   23.6150 C   0  0  0  0  0  0  0  0  0  0  0  0
    8.5342   11.3722   24.2892 C   0  0  0  0  0  0  0  0  0  0  0  0
    9.6229   10.8511   23.5411 C   0  0  0  0  0  0  0  0  0  0  0  0
    7.8364   10.2811   24.7988 C   0  0  0  0  0  0  0  0  0  0  0  0
   12.0685   15.6711   21.8700 C   0  0  0  0  0  0  0  0  0  0  0  0
   13.6849   16.6327   17.9667 C   0  0  0  0  0  0  0  0  0  0  0  0
   13.0295   15.2590   18.1817 C   0  0  0  0  0  0  0  0  0  0  0  0
   11.5358   12.5317   23.7218 C   0  0  0  0  0  0  0  0  0  0  0  0
   10.0544   12.4570   21.6329 C   0  0  0  0  0  0  0  0  0  0  0  0
   12.9347   17.3770   20.2423 C   0  0  0  0  0  0  0  0  0  0  0  0
   14.5571   15.6598   19.9542 C   0  0  0  0  0  0  0  0  0  0  0  0
   11.2758   14.0241   23.5344 C   0  0  0  0  0  0  0  0  0  0  0  0
   11.0304   13.5017   21.1019 C   0  0  0  0  0  0  0  0  0  0  0  0
   10.6696   11.6511   22.7934 C   0  0  0  0  0  0  0  0  0  0  0  0
   12.2315   16.0238   20.4113 C   0  0  1  0  0  0  0  0  0  0  0  0
   14.1593   17.0170   19.3798 C   0  0  1  0  0  0  0  0  0  0  0  0
   13.1789   15.0422   19.6980 C   0  0  1  0  0  0  0  0  0  0  0  0
    6.7318   10.3098   25.5682 N   0  0  0  0  0  0  0  0  0  0  0  0
    8.4714    9.1417   24.3798 N   0  0  0  0  0  0  0  0  0  0  0  0
   11.4751   14.4366   22.1430 N   0  0  0  0  0  0  0  0  0  0  0  0
   12.4489   16.4641   22.7344 O   0  0  0  0  0  0  0  0  0  0  0  0
    6.4936   13.7066   25.6622 H   0  0  0  0  0  0  0  0  0  0  0  0
    8.5404   13.5498   24.2396 H   0  0  0  0  0  0  0  0  0  0  0  0
    5.4184   11.6161   26.4576 H   0  0  0  0  0  0  0  0  0  0  0  0
   10.1888    8.7054   23.1931 H   0  0  0  0  0  0  0  0  0  0  0  0
   14.5344   16.5407   17.2808 H   0  0  0  0  0  0  0  0  0  0  0  0
   12.9842   17.3613   17.5471 H   0  0  0  0  0  0  0  0  0  0  0  0
   11.9861   15.2433   17.8519 H   0  0  0  0  0  0  0  0  0  0  0  0
   13.5748   14.4898   17.6230 H   0  0  0  0  0  0  0  0  0  0  0  0
   12.6044   12.3220   23.5406 H   0  0  0  0  0  0  0  0  0  0  0  0
   11.3543   12.2595   24.7772 H   0  0  0  0  0  0  0  0  0  0  0  0
    9.1305   12.9542   21.9635 H   0  0  0  0  0  0  0  0  0  0  0  0
    9.7659   11.7789   20.8179 H   0  0  0  0  0  0  0  0  0  0  0  0
   12.2880   18.1067   19.7433 H   0  0  0  0  0  0  0  0  0  0  0  0
   13.2506   17.8034   21.2017 H   0  0  0  0  0  0  0  0  0  0  0  0
   15.3597   15.1709   19.3915 H   0  0  0  0  0  0  0  0  0  0  0  0
   14.8300   15.7032   21.0132 H   0  0  0  0  0  0  0  0  0  0  0  0
   10.2677   14.2622   23.8926 H   0  0  0  0  0  0  0  0  0  0  0  0
   11.9737   14.6126   24.1498 H   0  0  0  0  0  0  0  0  0  0  0  0
   11.9332   13.0152   20.6959 H   0  0  0  0  0  0  0  0  0  0  0  0
   10.5677   14.0477   20.2644 H   0  0  0  0  0  0  0  0  0  0  0  0
   11.3530   10.8804   22.3327 H   0  0  0  0  0  0  0  0  0  0  0  0
   11.2303   16.0309   19.9736 H   0  0  0  0  0  0  0  0  0  0  0  0
   14.9390   17.7812   19.3874 H   0  0  0  0  0  0  0  0  0  0  0  0
   13.0784   13.9992   20.0069 H   0  0  0  0  0  0  0  0  0  0  0  0
    8.1812    8.1991   24.6000 H   0  0  0  0  0  0  0  0  0  0  0  0
  1  2  1  0  0  0  0
  1  3  2  0  0  0  0
  2  5  2  0  0  0  0
  3 21  1  0  0  0  0
  4  6  2  0  0  0  0
  4 22  1  0  0  0  0
  5  6  1  0  0  0  0
  5  7  1  0  0  0  0
  6 17  1  0  0  0  0
  7 21  2  0  0  0  0
  7 22  1  0  0  0  0
  8 18  1  0  0  0  0
  8 23  1  0  0  0  0
  8 24  2  0  0  0  0
  9 10  1  0  0  0  0
  9 19  1  0  0  0  0
 10 20  1  0  0  0  0
 11 15  1  0  0  0  0
 11 17  1  0  0  0  0
 12 16  1  0  0  0  0
 12 17  1  0  0  0  0
 13 18  1  0  0  0  0
 13 19  1  0  0  0  0
 14 19  1  0  0  0  0
 14 20  1  0  0  0  0
 15 23  1  0  0  0  0
 16 23  1  0  0  0  0
 18 20  1  0  0  0  0
  1 25  1  0  0  0  0
  2 26  1  0  0  0  0
  3 27  1  0  0  0  0
  4 28  1  0  0  0  0
  9 29  1  0  0  0  0
  9 30  1  0  0  0  0
 10 31  1  0  0  0  0
 10 32  1  0  0  0  0
 11 33  1  0  0  0  0
 11 34  1  0  0  0  0
 12 35  1  0  0  0  0
 12 36  1  0  0  0  0
 13 37  1  0  0  0  0
 13 38  1  0  0  0  0
 14 39  1  0  0  0  0
 14 40  1  0  0  0  0
 15 41  1  0  0  0  0
 15 42  1  0  0  0  0
 16 43  1  0  0  0  0
 16 44  1  0  0  0  0
 17 45  1  0  0  0  0
 18 46  1  0  0  0  0
 19 47  1  0  0  0  0
 20 48  1  0  0  0  0
 22 49  1  0  0  0  0
M  END
> <Catalog ID>
Z806433304

> <PlateID>
1041831-R-06

> <Well>
D03

> <MW (desalted)>
323.432

> <ClogP>
2.728

> <HBD>
1

> <TPSA>
48.990

> <RotBonds>
2

> <ROCS_ShapeQuery>
A71EV2A-x0451_0A_A71EV2A-x0310_0A_A71EV2A-x0416_0A_peptide

> <ROCS_TanimotoCombo>
0.528 

> <ROCS_ShapeTanimoto>
0.368 

> <ROCS_ColorTanimoto>
0.160 

> <ROCS_RefTversky>
0.324 

> <ROCS_RefColorTversky>
0.198 

> <ROCS_RefTverskyCombo>
0.522 

> <ROCS_FitTversky>
1.586 

> <ROCS_FitColorTversky>
0.456 

> <ROCS_FitTverskyCombo>
2.042 

> <ROCS_ColorScore>
-6.074

> <ROCS_Overlap>
2252.536

> <ROCS_Rank>
240                 

$$$$
untitled-dbase-1608_334
  -OEChem-11132311063D

 44 46  0     0  0  0  0  0  0999 V2000
    8.3923    9.5833   24.1882 C   0  0  0  0  0  0  0  0  0  0  0  0
    8.4777   12.3997   24.1876 C   0  0  0  0  0  0  0  0  0  0  0  0
   13.8637   16.3197   20.4975 C   0  0  0  0  0  0  0  0  0  0  0  0
   12.6361   15.7357   20.3016 C   0  0  0  0  0  0  0  0  0  0  0  0
    7.4329   10.3106   24.9256 C   0  0  0  0  0  0  0  0  0  0  0  0
    9.4152   11.6560   23.4665 C   0  0  0  0  0  0  0  0  0  0  0  0
    9.3749   10.2661   23.4654 C   0  0  0  0  0  0  0  0  0  0  0  0
    7.4936   11.7074   24.9115 C   0  0  0  0  0  0  0  0  0  0  0  0
   12.5136   15.6346   18.9028 C   0  0  0  0  0  0  0  0  0  0  0  0
    5.7078   10.7413   26.2316 C   0  0  0  0  0  0  0  0  0  0  0  0
   10.9759   13.5607   23.0543 C   0  0  0  0  0  0  0  0  0  0  0  0
   11.3865   15.0801   18.1326 C   0  0  0  0  0  0  0  0  0  0  0  0
    4.5346   10.5347   27.1084 C   0  0  0  0  0  0  0  0  0  0  0  0
   15.6609   17.1183   18.9446 C   0  0  0  0  0  0  0  0  0  0  0  0
   10.1733    8.1218   22.8171 C   0  0  0  0  0  0  0  0  0  0  0  0
   11.6490   15.3042   21.3581 C   0  0  0  0  0  0  0  0  0  0  0  0
   12.0149   13.9767   22.0244 C   0  0  0  0  0  0  0  0  0  0  0  0
    6.4050    9.7723   25.6860 N   0  0  0  0  0  0  0  0  0  0  0  0
   13.5785   16.1159   18.2559 N   0  0  0  0  0  0  0  0  0  0  0  0
   14.3816   16.5252   19.2526 N   0  0  0  0  0  0  0  0  0  0  0  0
   10.3998   12.3348   22.7429 N   0  0  0  0  0  0  0  0  0  0  0  0
   10.7553   14.2692   24.0324 O   0  0  0  0  0  0  0  0  0  0  0  0
   10.2911    9.5410   22.7606 O   0  0  0  0  0  0  0  0  0  0  0  0
    6.2174   12.3369   25.8851 S   0  0  0  0  0  0  0  0  0  0  0  0
    8.3639    8.4969   24.1844 H   0  0  0  0  0  0  0  0  0  0  0  0
    8.5066   13.4860   24.1905 H   0  0  0  0  0  0  0  0  0  0  0  0
   14.3995   16.5993   21.3944 H   0  0  0  0  0  0  0  0  0  0  0  0
   10.6429   15.8596   17.8946 H   0  0  0  0  0  0  0  0  0  0  0  0
   11.7150   14.6310   17.1786 H   0  0  0  0  0  0  0  0  0  0  0  0
   10.8630   14.2767   18.6806 H   0  0  0  0  0  0  0  0  0  0  0  0
    4.8394   10.4612   28.1640 H   0  0  0  0  0  0  0  0  0  0  0  0
    3.8080   11.3592   27.0233 H   0  0  0  0  0  0  0  0  0  0  0  0
    3.9861    9.6140   26.8503 H   0  0  0  0  0  0  0  0  0  0  0  0
   16.4028   16.3166   18.9017 H   0  0  0  0  0  0  0  0  0  0  0  0
   15.6004   17.6352   17.9828 H   0  0  0  0  0  0  0  0  0  0  0  0
   15.9213   17.8404   19.7234 H   0  0  0  0  0  0  0  0  0  0  0  0
   10.9621    7.6656   22.2140 H   0  0  0  0  0  0  0  0  0  0  0  0
    9.1922    7.8214   22.4405 H   0  0  0  0  0  0  0  0  0  0  0  0
   10.2778    7.7974   23.8551 H   0  0  0  0  0  0  0  0  0  0  0  0
   11.5529   16.0907   22.1176 H   0  0  0  0  0  0  0  0  0  0  0  0
   10.6598   15.2143   20.8916 H   0  0  0  0  0  0  0  0  0  0  0  0
   12.0527   13.1858   21.2654 H   0  0  0  0  0  0  0  0  0  0  0  0
   13.0104   14.0185   22.4813 H   0  0  0  0  0  0  0  0  0  0  0  0
   10.7295   11.8550   21.9075 H   0  0  0  0  0  0  0  0  0  0  0  0
  1  5  2  0  0  0  0
  1  7  1  0  0  0  0
  2  6  1  0  0  0  0
  2  8  2  0  0  0  0
  3  4  2  0  0  0  0
  3 20  1  0  0  0  0
  4  9  1  0  0  0  0
  4 16  1  0  0  0  0
  5  8  1  0  0  0  0
  5 18  1  0  0  0  0
  6  7  2  0  0  0  0
  6 21  1  0  0  0  0
  7 23  1  0  0  0  0
  8 24  1  0  0  0  0
  9 12  1  0  0  0  0
  9 19  2  0  0  0  0
 10 13  1  0  0  0  0
 10 18  2  0  0  0  0
 10 24  1  0  0  0  0
 11 17  1  0  0  0  0
 11 21  1  0  0  0  0
 11 22  2  0  0  0  0
 14 20  1  0  0  0  0
 15 23  1  0  0  0  0
 16 17  1  0  0  0  0
 19 20  1  0  0  0  0
  1 25  1  0  0  0  0
  2 26  1  0  0  0  0
  3 27  1  0  0  0  0
 12 28  1  0  0  0  0
 12 29  1  0  0  0  0
 12 30  1  0  0  0  0
 13 31  1  0  0  0  0
 13 32  1  0  0  0  0
 13 33  1  0  0  0  0
 14 34  1  0  0  0  0
 14 35  1  0  0  0  0
 14 36  1  0  0  0  0
 15 37  1  0  0  0  0
 15 38  1  0  0  0  0
 15 39  1  0  0  0  0
 16 40  1  0  0  0  0
 16 41  1  0  0  0  0
 17 42  1  0  0  0  0
 17 43  1  0  0  0  0
 21 44  1  0  0  0  0
M  END
> <Catalog ID>
Z1210125650

> <PlateID>
1041831-R-21

> <Well>
A09

> <MW (desalted)>
344.431

> <ClogP>
2.649

> <HBD>
1

> <TPSA>
69.040

> <RotBonds>
5

> <ROCS_ShapeQuery>
A71EV2A-x0451_0A_A71EV2A-x0310_0A_A71EV2A-x0416_0A_peptide

> <ROCS_TanimotoCombo>
0.528 

> <ROCS_ShapeTanimoto>
0.366 

> <ROCS_ColorTanimoto>
0.162 

> <ROCS_RefTversky>
0.321 

> <ROCS_RefColorTversky>
0.181 

> <ROCS_RefTverskyCombo>
0.503 

> <ROCS_FitTversky>
1.613 

> <ROCS_FitColorTversky>
0.602 

> <ROCS_FitTverskyCombo>
2.215 

> <ROCS_ColorScore>
-5.540

> <ROCS_Overlap>
2232.057

> <ROCS_Rank>
241                 

$$$$
untitled-dbase-1897_712
  -OEChem-11132311063D

 49 51  0     1  0  0  0  0  0999 V2000
   13.2805   15.9787   18.3609 C   0  0  0  0  0  0  0  0  0  0  0  0
   12.2434   15.0885   18.6394 C   0  0  0  0  0  0  0  0  0  0  0  0
   13.9269   16.6443   19.4025 C   0  0  0  0  0  0  0  0  0  0  0  0
   11.8527   14.8638   19.9594 C   0  0  0  0  0  0  0  0  0  0  0  0
   13.5362   16.4196   20.7225 C   0  0  0  0  0  0  0  0  0  0  0  0
   12.4991   15.5294   21.0010 C   0  0  0  0  0  0  0  0  0  0  0  0
    7.5993   12.2879   26.2231 C   0  0  0  0  0  0  0  0  0  0  0  0
    7.7791   13.0575   24.9172 C   0  0  0  0  0  0  0  0  0  0  0  0
    6.7528   11.0411   26.0028 C   0  0  0  0  0  0  0  0  0  0  0  0
    8.2800   12.1597   23.7916 C   0  0  1  0  0  0  0  0  0  0  0  0
    9.7099   11.5628   23.8680 C   0  0  1  0  0  0  0  0  0  0  0  0
    7.7480   10.6915   23.8125 C   0  0  1  0  0  0  0  0  0  0  0  0
    9.1404   10.2528   23.2180 C   0  0  0  0  0  0  0  0  0  0  0  0
    9.7482    8.9928   23.8395 C   0  0  0  0  0  0  0  0  0  0  0  0
    9.0858   10.1097   21.6907 C   0  0  0  0  0  0  0  0  0  0  0  0
   11.9397   11.7300   22.9956 C   0  0  0  0  0  0  0  0  0  0  0  0
   12.9639   12.6806   22.3989 C   0  0  0  0  0  0  0  0  0  0  0  0
   10.5912   12.2774   22.9520 N   0  0  0  0  0  0  0  0  0  0  0  0
   13.0185   13.9291   23.1099 N   0  0  0  0  0  0  0  0  0  0  0  0
   12.3837   16.4068   23.4560 O   0  0  0  0  0  0  0  0  0  0  0  0
   10.6169   14.8163   22.6357 O   0  0  0  0  0  0  0  0  0  0  0  0
    7.4308   10.1537   25.1194 O   0  0  0  0  0  0  0  0  0  0  0  0
   12.0013   15.2469   22.6735 S   0  0  0  0  0  0  0  0  0  0  0  0
   13.5848   16.1546   17.3332 H   0  0  0  0  0  0  0  0  0  0  0  0
   11.7391   14.5709   17.8287 H   0  0  0  0  0  0  0  0  0  0  0  0
   14.7338   17.3378   19.1853 H   0  0  0  0  0  0  0  0  0  0  0  0
   11.0429   14.1689   20.1652 H   0  0  0  0  0  0  0  0  0  0  0  0
   14.0458   16.9444   21.5260 H   0  0  0  0  0  0  0  0  0  0  0  0
    8.5819   11.9961   26.6113 H   0  0  0  0  0  0  0  0  0  0  0  0
    7.1268   12.9357   26.9692 H   0  0  0  0  0  0  0  0  0  0  0  0
    6.8109   13.4854   24.6280 H   0  0  0  0  0  0  0  0  0  0  0  0
    8.4643   13.8995   25.0658 H   0  0  0  0  0  0  0  0  0  0  0  0
    6.6005   10.5169   26.9511 H   0  0  0  0  0  0  0  0  0  0  0  0
    5.7689   11.2861   25.5877 H   0  0  0  0  0  0  0  0  0  0  0  0
    8.0589   12.6525   22.8320 H   0  0  0  0  0  0  0  0  0  0  0  0
   10.1125   11.4480   24.8797 H   0  0  0  0  0  0  0  0  0  0  0  0
    6.8952   10.5344   23.1416 H   0  0  0  0  0  0  0  0  0  0  0  0
    9.3280    8.1105   23.3623 H   0  0  0  0  0  0  0  0  0  0  0  0
    9.5255    8.9662   24.9037 H   0  0  0  0  0  0  0  0  0  0  0  0
   10.8266    8.9990   23.6979 H   0  0  0  0  0  0  0  0  0  0  0  0
    8.6641    9.1424   21.4331 H   0  0  0  0  0  0  0  0  0  0  0  0
   10.0902   10.1872   21.2844 H   0  0  0  0  0  0  0  0  0  0  0  0
    8.4647   10.8983   21.2758 H   0  0  0  0  0  0  0  0  0  0  0  0
   12.1670   11.5037   24.0422 H   0  0  0  0  0  0  0  0  0  0  0  0
   11.9239   10.7921   22.4318 H   0  0  0  0  0  0  0  0  0  0  0  0
   13.9640   12.2391   22.4476 H   0  0  0  0  0  0  0  0  0  0  0  0
   12.7353   12.9075   21.3525 H   0  0  0  0  0  0  0  0  0  0  0  0
   10.6186   13.2617   23.2147 H   0  0  0  0  0  0  0  0  0  0  0  0
   13.3549   13.9089   24.0956 H   0  0  0  0  0  0  0  0  0  0  0  0
  1  2  2  0  0  0  0
  1  3  1  0  0  0  0
  2  4  1  0  0  0  0
  3  5  2  0  0  0  0
  4  6  2  0  0  0  0
  5  6  1  0  0  0  0
  6 23  1  0  0  0  0
  7  8  1  0  0  0  0
  7  9  1  0  0  0  0
  8 10  1  0  0  0  0
  9 22  1  0  0  0  0
 10 11  1  0  0  0  0
 10 12  1  0  0  0  0
 11 13  1  0  0  0  0
 11 18  1  0  0  0  0
 12 13  1  0  0  0  0
 12 22  1  0  0  0  0
 13 14  1  0  0  0  0
 13 15  1  0  0  0  0
 16 17  1  0  0  0  0
 16 18  1  0  0  0  0
 17 19  1  0  0  0  0
 19 23  1  0  0  0  0
 20 23  2  0  0  0  0
 21 23  2  0  0  0  0
  1 24  1  0  0  0  0
  2 25  1  0  0  0  0
  3 26  1  0  0  0  0
  4 27  1  0  0  0  0
  5 28  1  0  0  0  0
  7 29  1  0  0  0  0
  7 30  1  0  0  0  0
  8 31  1  0  0  0  0
  8 32  1  0  0  0  0
  9 33  1  0  0  0  0
  9 34  1  0  0  0  0
 10 35  1  0  0  0  0
 11 36  1  0  0  0  0
 12 37  1  0  0  0  0
 14 38  1  0  0  0  0
 14 39  1  0  0  0  0
 14 40  1  0  0  0  0
 15 41  1  0  0  0  0
 15 42  1  0  0  0  0
 15 43  1  0  0  0  0
 16 44  1  0  0  0  0
 16 45  1  0  0  0  0
 17 46  1  0  0  0  0
 17 47  1  0  0  0  0
 18 48  1  0  0  0  0
 19 49  1  0  0  0  0
M  END
> <Catalog ID>
Z1597783260

> <PlateID>
1041831-R-24

> <Well>
F08

> <MW (desalted)>
338.465

> <ClogP>
2.292

> <HBD>
2

> <TPSA>
67.430

> <RotBonds>
5

> <ROCS_ShapeQuery>
A71EV2A-x0451_0A_A71EV2A-x0310_0A_A71EV2A-x0416_0A_peptide

> <ROCS_TanimotoCombo>
0.528 

> <ROCS_ShapeTanimoto>
0.345 

> <ROCS_ColorTanimoto>
0.183 

> <ROCS_RefTversky>
0.304 

> <ROCS_RefColorTversky>
0.211 

> <ROCS_RefTverskyCombo>
0.515 

> <ROCS_FitTversky>
1.632 

> <ROCS_FitColorTversky>
0.578 

> <ROCS_FitTverskyCombo>
2.209 

> <ROCS_ColorScore>
-6.454

> <ROCS_Overlap>
2114.025

> <ROCS_Rank>
242                 

$$$$
untitled-dbase-838_2205
  -OEChem-11132311063D

 45 47  0     0  0  0  0  0  0999 V2000
    5.9016   11.4533   25.9106 C   0  0  0  0  0  0  0  0  0  0  0  0
    6.2444   12.8020   25.8242 C   0  0  0  0  0  0  0  0  0  0  0  0
   13.4498   15.4337   18.2362 C   0  0  0  0  0  0  0  0  0  0  0  0
    6.7091   10.4872   25.3124 C   0  0  0  0  0  0  0  0  0  0  0  0
   12.1874   15.3509   18.8130 C   0  0  0  0  0  0  0  0  0  0  0  0
    7.3972   13.1904   25.1387 C   0  0  0  0  0  0  0  0  0  0  0  0
   14.4385   16.1088   18.9336 C   0  0  0  0  0  0  0  0  0  0  0  0
   13.0112   16.5899   20.6684 C   0  0  0  0  0  0  0  0  0  0  0  0
    7.8622   10.8815   24.6275 C   0  0  0  0  0  0  0  0  0  0  0  0
   11.9555   15.9375   20.0522 C   0  0  0  0  0  0  0  0  0  0  0  0
    8.2197   12.2348   24.5324 C   0  0  0  0  0  0  0  0  0  0  0  0
    8.7337    9.8737   23.9852 C   0  0  0  0  0  0  0  0  0  0  0  0
   10.1143   11.7543   23.2988 C   0  0  0  0  0  0  0  0  0  0  0  0
   11.4817   14.6035   22.7236 C   0  0  0  0  0  0  0  0  0  0  0  0
   14.2495   13.0684   23.7000 C   0  0  0  0  0  0  0  0  0  0  0  0
   10.5986   15.8646   20.7039 C   0  0  0  0  0  0  0  0  0  0  0  0
   11.3620   12.1213   22.5523 C   0  0  0  0  0  0  0  0  0  0  0  0
   10.4630   14.6253   21.5914 C   0  0  0  0  0  0  0  0  0  0  0  0
   12.8583   13.1242   24.2330 C   0  0  0  0  0  0  0  0  0  0  0  0
   14.2511   16.6911   20.1392 N   0  0  0  0  0  0  0  0  0  0  0  0
    9.3738   12.6631   23.8500 N   0  0  0  0  0  0  0  0  0  0  0  0
    9.8408   10.4029   23.3420 N   0  0  0  0  0  0  0  0  0  0  0  0
   11.8831   13.3156   23.1506 N   0  0  0  0  0  0  0  0  0  0  0  0
    8.4729    8.6773   24.0346 O   0  0  0  0  0  0  0  0  0  0  0  0
   11.9018   15.6580   23.2073 O   0  0  0  0  0  0  0  0  0  0  0  0
    5.0041   11.1554   26.4449 H   0  0  0  0  0  0  0  0  0  0  0  0
    5.6128   13.5522   26.2913 H   0  0  0  0  0  0  0  0  0  0  0  0
   13.6535   14.9838   17.2712 H   0  0  0  0  0  0  0  0  0  0  0  0
    6.4270    9.4411   25.3897 H   0  0  0  0  0  0  0  0  0  0  0  0
   11.3911   14.8278   18.2904 H   0  0  0  0  0  0  0  0  0  0  0  0
    7.6497   14.2465   25.0809 H   0  0  0  0  0  0  0  0  0  0  0  0
   15.4399   16.2016   18.5263 H   0  0  0  0  0  0  0  0  0  0  0  0
   12.8902   17.0665   21.6363 H   0  0  0  0  0  0  0  0  0  0  0  0
   14.4802   14.0081   23.1767 H   0  0  0  0  0  0  0  0  0  0  0  0
   14.9555   12.9293   24.5320 H   0  0  0  0  0  0  0  0  0  0  0  0
   14.3396   12.2263   22.9981 H   0  0  0  0  0  0  0  0  0  0  0  0
   10.4263   16.7750   21.2929 H   0  0  0  0  0  0  0  0  0  0  0  0
    9.8212   15.8643   19.9289 H   0  0  0  0  0  0  0  0  0  0  0  0
   11.1049   12.2899   21.5080 H   0  0  0  0  0  0  0  0  0  0  0  0
   12.0724   11.3010   22.6387 H   0  0  0  0  0  0  0  0  0  0  0  0
   10.6030   13.7243   20.9822 H   0  0  0  0  0  0  0  0  0  0  0  0
    9.4580   14.5996   22.0292 H   0  0  0  0  0  0  0  0  0  0  0  0
   12.6355   12.1817   24.7545 H   0  0  0  0  0  0  0  0  0  0  0  0
   12.7783   13.9626   24.9407 H   0  0  0  0  0  0  0  0  0  0  0  0
   10.4824    9.7647   22.8798 H   0  0  0  0  0  0  0  0  0  0  0  0
  1  2  2  0  0  0  0
  1  4  1  0  0  0  0
  2  6  1  0  0  0  0
  3  5  1  0  0  0  0
  3  7  2  0  0  0  0
  4  9  2  0  0  0  0
  5 10  2  0  0  0  0
  6 11  2  0  0  0  0
  7 20  1  0  0  0  0
  8 10  1  0  0  0  0
  8 20  2  0  0  0  0
  9 11  1  0  0  0  0
  9 12  1  0  0  0  0
 10 16  1  0  0  0  0
 11 21  1  0  0  0  0
 12 22  1  0  0  0  0
 12 24  2  0  0  0  0
 13 17  1  0  0  0  0
 13 21  2  0  0  0  0
 13 22  1  0  0  0  0
 14 18  1  0  0  0  0
 14 23  1  0  0  0  0
 14 25  2  0  0  0  0
 15 19  1  0  0  0  0
 16 18  1  0  0  0  0
 17 23  1  0  0  0  0
 19 23  1  0  0  0  0
  1 26  1  0  0  0  0
  2 27  1  0  0  0  0
  3 28  1  0  0  0  0
  4 29  1  0  0  0  0
  5 30  1  0  0  0  0
  6 31  1  0  0  0  0
  7 32  1  0  0  0  0
  8 33  1  0  0  0  0
 15 34  1  0  0  0  0
 15 35  1  0  0  0  0
 15 36  1  0  0  0  0
 16 37  1  0  0  0  0
 16 38  1  0  0  0  0
 17 39  1  0  0  0  0
 17 40  1  0  0  0  0
 18 41  1  0  0  0  0
 18 42  1  0  0  0  0
 19 43  1  0  0  0  0
 19 44  1  0  0  0  0
 22 45  1  0  0  0  0
M  END
> <Catalog ID>
Z101493776

> <PlateID>
1041831-R-11

> <Well>
D09

> <MW (desalted)>
336.388

> <ClogP>
0.258

> <HBD>
1

> <TPSA>
74.660

> <RotBonds>
6

> <ROCS_ShapeQuery>
A71EV2A-x0451_0A_A71EV2A-x0310_0A_A71EV2A-x0416_0A_peptide

> <ROCS_TanimotoCombo>
0.528 

> <ROCS_ShapeTanimoto>
0.398 

> <ROCS_ColorTanimoto>
0.130 

> <ROCS_RefTversky>
0.343 

> <ROCS_RefColorTversky>
0.149 

> <ROCS_RefTverskyCombo>
0.493 

> <ROCS_FitTversky>
1.661 

> <ROCS_FitColorTversky>
0.496 

> <ROCS_FitTverskyCombo>
2.157 

> <ROCS_ColorScore>
-4.563

> <ROCS_Overlap>
2387.449

> <ROCS_Rank>
243                 

$$$$
untitled-dbase-490_7880
  -OEChem-11132311063D

 47 50  0     1  0  0  0  0  0999 V2000
   13.8716   12.7131   24.5544 C   0  0  0  0  0  0  0  0  0  0  0  0
   14.4753   13.9494   24.7841 C   0  0  0  0  0  0  0  0  0  0  0  0
   12.7050   12.6373   23.7936 C   0  0  0  0  0  0  0  0  0  0  0  0
   13.9124   15.1098   24.2531 C   0  0  0  0  0  0  0  0  0  0  0  0
   12.1420   13.7977   23.2625 C   0  0  0  0  0  0  0  0  0  0  0  0
   12.7457   15.0340   23.4922 C   0  0  0  0  0  0  0  0  0  0  0  0
    9.5684   10.4383   22.8434 C   0  0  0  0  0  0  0  0  0  0  0  0
    7.1130   10.2513   25.6255 C   0  0  0  0  0  0  0  0  0  0  0  0
    6.5764   11.2741   26.3003 C   0  0  0  0  0  0  0  0  0  0  0  0
    9.6441   11.7822   22.8412 C   0  0  0  0  0  0  0  0  0  0  0  0
    8.6767    9.7478   23.8149 C   0  0  0  0  0  0  0  0  0  0  0  0
    8.1699   12.0009   24.5327 C   0  0  0  0  0  0  0  0  0  0  0  0
   14.5005   15.9875   18.6524 C   0  0  0  0  0  0  0  0  0  0  0  0
   13.1872   15.4574   18.0882 C   0  0  0  0  0  0  0  0  0  0  0  0
   14.2467   16.8302   19.8986 C   0  0  0  0  0  0  0  0  0  0  0  0
   12.3690   14.7759   19.1768 C   0  0  0  0  0  0  0  0  0  0  0  0
   13.3748   16.0665   20.8979 C   0  0  1  0  0  0  0  0  0  0  0  0
   10.5287   12.4906   21.8790 C   0  0  0  0  0  0  0  0  0  0  0  0
   13.0216   16.9385   22.0949 C   0  0  0  0  0  0  0  0  0  0  0  0
    8.9401   12.6085   23.6941 N   0  0  0  0  0  0  0  0  0  0  0  0
    7.9993   10.6283   24.6406 N   0  0  0  0  0  0  0  0  0  0  0  0
   10.9611   13.7062   22.4942 N   0  0  0  0  0  0  0  0  0  0  0  0
    8.5995    8.5234   23.8264 O   0  0  0  0  0  0  0  0  0  0  0  0
   12.1510   15.6604   20.2758 O   0  0  0  0  0  0  0  0  0  0  0  0
   12.2077   16.1877   22.9789 O   0  0  0  0  0  0  0  0  0  0  0  0
    7.1651   12.8087   25.7268 S   0  0  0  0  0  0  0  0  0  0  0  0
   14.3095   11.8097   24.9686 H   0  0  0  0  0  0  0  0  0  0  0  0
   15.3838   14.0083   25.3761 H   0  0  0  0  0  0  0  0  0  0  0  0
   12.2435   11.6681   23.6207 H   0  0  0  0  0  0  0  0  0  0  0  0
   14.3879   16.0700   24.4353 H   0  0  0  0  0  0  0  0  0  0  0  0
   10.1371    9.8206   22.1578 H   0  0  0  0  0  0  0  0  0  0  0  0
    6.9048    9.2049   25.7968 H   0  0  0  0  0  0  0  0  0  0  0  0
    5.8629   11.1846   27.1067 H   0  0  0  0  0  0  0  0  0  0  0  0
   15.1541   15.1448   18.9090 H   0  0  0  0  0  0  0  0  0  0  0  0
   15.0233   16.5821   17.8952 H   0  0  0  0  0  0  0  0  0  0  0  0
   12.6143   16.3013   17.6845 H   0  0  0  0  0  0  0  0  0  0  0  0
   13.3794   14.7626   17.2640 H   0  0  0  0  0  0  0  0  0  0  0  0
   15.1992   17.1174   20.3576 H   0  0  0  0  0  0  0  0  0  0  0  0
   13.7364   17.7526   19.5932 H   0  0  0  0  0  0  0  0  0  0  0  0
   11.3898   14.4881   18.7812 H   0  0  0  0  0  0  0  0  0  0  0  0
   12.8620   13.8643   19.5346 H   0  0  0  0  0  0  0  0  0  0  0  0
   13.9010   15.1731   21.2574 H   0  0  0  0  0  0  0  0  0  0  0  0
    9.9687   12.7046   20.9654 H   0  0  0  0  0  0  0  0  0  0  0  0
   11.3870   11.8562   21.6444 H   0  0  0  0  0  0  0  0  0  0  0  0
   12.4728   17.8224   21.7662 H   0  0  0  0  0  0  0  0  0  0  0  0
   13.9294   17.2452   22.6168 H   0  0  0  0  0  0  0  0  0  0  0  0
   10.4221   14.5444   22.3904 H   0  0  0  0  0  0  0  0  0  0  0  0
  1  2  2  0  0  0  0
  1  3  1  0  0  0  0
  2  4  1  0  0  0  0
  3  5  2  0  0  0  0
  4  6  2  0  0  0  0
  5  6  1  0  0  0  0
  5 22  1  0  0  0  0
  6 25  1  0  0  0  0
  7 10  2  0  0  0  0
  7 11  1  0  0  0  0
  8  9  2  0  0  0  0
  8 21  1  0  0  0  0
  9 26  1  0  0  0  0
 10 18  1  0  0  0  0
 10 20  1  0  0  0  0
 11 21  1  0  0  0  0
 11 23  2  0  0  0  0
 12 20  2  0  0  0  0
 12 21  1  0  0  0  0
 12 26  1  0  0  0  0
 13 14  1  0  0  0  0
 13 15  1  0  0  0  0
 14 16  1  0  0  0  0
 15 17  1  0  0  0  0
 16 24  1  0  0  0  0
 17 19  1  0  0  0  0
 17 24  1  0  0  0  0
 18 22  1  0  0  0  0
 19 25  1  0  0  0  0
  1 27  1  0  0  0  0
  2 28  1  0  0  0  0
  3 29  1  0  0  0  0
  4 30  1  0  0  0  0
  7 31  1  0  0  0  0
  8 32  1  0  0  0  0
  9 33  1  0  0  0  0
 13 34  1  0  0  0  0
 13 35  1  0  0  0  0
 14 36  1  0  0  0  0
 14 37  1  0  0  0  0
 15 38  1  0  0  0  0
 15 39  1  0  0  0  0
 16 40  1  0  0  0  0
 16 41  1  0  0  0  0
 17 42  1  0  0  0  0
 18 43  1  0  0  0  0
 18 44  1  0  0  0  0
 19 45  1  0  0  0  0
 19 46  1  0  0  0  0
 22 47  1  0  0  0  0
M  END
> <Catalog ID>
Z839789814

> <PlateID>
1041831-R-07

> <Well>
A11

> <MW (desalted)>
371.453

> <ClogP>
1.976

> <HBD>
1

> <TPSA>
63.160

> <RotBonds>
6

> <ROCS_ShapeQuery>
A71EV2A-x0451_0A_A71EV2A-x0310_0A_A71EV2A-x0416_0A_peptide

> <ROCS_TanimotoCombo>
0.528 

> <ROCS_ShapeTanimoto>
0.363 

> <ROCS_ColorTanimoto>
0.164 

> <ROCS_RefTversky>
0.323 

> <ROCS_RefColorTversky>
0.188 

> <ROCS_RefTverskyCombo>
0.511 

> <ROCS_FitTversky>
1.519 

> <ROCS_FitColorTversky>
0.566 

> <ROCS_FitTverskyCombo>
2.085 

> <ROCS_ColorScore>
-5.746

> <ROCS_Overlap>
2247.493

> <ROCS_Rank>
244                 

$$$$
untitled-dbase-1742_2388
  -OEChem-11132311063D

 49 51  0     1  0  0  0  0  0999 V2000
    6.8955   12.5635   25.9371 C   0  0  0  0  0  0  0  0  0  0  0  0
    6.3986   11.2950   26.2303 C   0  0  0  0  0  0  0  0  0  0  0  0
    7.9627   12.7265   25.0464 C   0  0  0  0  0  0  0  0  0  0  0  0
   14.8269   16.0190   20.0640 C   0  0  0  0  0  0  0  0  0  0  0  0
    6.9502   10.1519   25.6448 C   0  0  0  0  0  0  0  0  0  0  0  0
   14.1495   15.2807   21.0343 C   0  0  0  0  0  0  0  0  0  0  0  0
   12.0936   15.5324   19.7906 C   0  0  0  0  0  0  0  0  0  0  0  0
    9.7022   10.0317   23.2935 C   0  0  0  0  0  0  0  0  0  0  0  0
    8.5350   11.5886   24.4439 C   0  0  0  0  0  0  0  0  0  0  0  0
   14.1376   16.5141   18.9569 C   0  0  0  0  0  0  0  0  0  0  0  0
   12.7710   16.2707   18.8202 C   0  0  0  0  0  0  0  0  0  0  0  0
    9.5977   11.3848   23.5197 C   0  0  0  0  0  0  0  0  0  0  0  0
    8.0166   10.3301   24.7564 C   0  0  0  0  0  0  0  0  0  0  0  0
   12.7828   15.0373   20.8976 C   0  0  0  0  0  0  0  0  0  0  0  0
   10.3359   15.0988   24.4026 C   0  0  0  0  0  0  0  0  0  0  0  0
   12.6166   13.7353   23.0475 C   0  0  0  0  0  0  0  0  0  0  0  0
   14.8842   17.3025   17.9315 C   0  0  0  0  0  0  0  0  0  0  0  0
   12.0128   16.7891   17.6425 C   0  0  0  0  0  0  0  0  0  0  0  0
    9.8536   15.9314   25.5438 C   0  0  0  0  0  0  0  0  0  0  0  0
   10.4442   12.4293   22.9081 C   0  0  0  0  0  0  0  0  0  0  0  0
   11.5383   12.9957   23.8426 C   0  0  2  0  0  0  0  0  0  0  0  0
    8.7442    9.4039   24.0436 N   0  0  0  0  0  0  0  0  0  0  0  0
   12.0958   14.2869   21.8805 N   0  0  0  0  0  0  0  0  0  0  0  0
   10.9936   13.9433   24.7843 N   0  0  0  0  0  0  0  0  0  0  0  0
   10.1285   15.4706   23.2535 O   0  0  0  0  0  0  0  0  0  0  0  0
   13.7669   13.8372   23.4655 O   0  0  0  0  0  0  0  0  0  0  0  0
    6.4497   13.4374   26.4045 H   0  0  0  0  0  0  0  0  0  0  0  0
    5.5691   11.1915   26.9251 H   0  0  0  0  0  0  0  0  0  0  0  0
    8.3380   13.7222   24.8275 H   0  0  0  0  0  0  0  0  0  0  0  0
   15.8917   16.2041   20.1799 H   0  0  0  0  0  0  0  0  0  0  0  0
    6.5635    9.1648   25.8745 H   0  0  0  0  0  0  0  0  0  0  0  0
   14.6970   14.9010   21.8931 H   0  0  0  0  0  0  0  0  0  0  0  0
   11.0276   15.3431   19.6831 H   0  0  0  0  0  0  0  0  0  0  0  0
   10.3705    9.4587   22.6656 H   0  0  0  0  0  0  0  0  0  0  0  0
   15.2802   16.6375   17.1553 H   0  0  0  0  0  0  0  0  0  0  0  0
   14.2357   18.0483   17.4555 H   0  0  0  0  0  0  0  0  0  0  0  0
   15.7209   17.8492   18.3838 H   0  0  0  0  0  0  0  0  0  0  0  0
   11.6130   17.7868   17.8573 H   0  0  0  0  0  0  0  0  0  0  0  0
   12.6544   16.8531   16.7550 H   0  0  0  0  0  0  0  0  0  0  0  0
   11.1778   16.1255   17.3855 H   0  0  0  0  0  0  0  0  0  0  0  0
   10.6021   16.6711   25.8705 H   0  0  0  0  0  0  0  0  0  0  0  0
    8.9572   16.5183   25.2868 H   0  0  0  0  0  0  0  0  0  0  0  0
    9.5825   15.3722   26.4536 H   0  0  0  0  0  0  0  0  0  0  0  0
    9.8095   13.2699   22.5612 H   0  0  0  0  0  0  0  0  0  0  0  0
   10.9274   12.0610   21.9797 H   0  0  0  0  0  0  0  0  0  0  0  0
   11.9915   12.1971   24.4406 H   0  0  0  0  0  0  0  0  0  0  0  0
    8.5925    8.4050   24.0708 H   0  0  0  0  0  0  0  0  0  0  0  0
   11.1021   14.1553   21.7054 H   0  0  0  0  0  0  0  0  0  0  0  0
   11.0984   13.7524   25.7774 H   0  0  0  0  0  0  0  0  0  0  0  0
  1  2  2  0  0  0  0
  1  3  1  0  0  0  0
  2  5  1  0  0  0  0
  3  9  2  0  0  0  0
  4  6  1  0  0  0  0
  4 10  2  0  0  0  0
  5 13  2  0  0  0  0
  6 14  2  0  0  0  0
  7 11  2  0  0  0  0
  7 14  1  0  0  0  0
  8 12  2  0  0  0  0
  8 22  1  0  0  0  0
  9 12  1  0  0  0  0
  9 13  1  0  0  0  0
 10 11  1  0  0  0  0
 10 17  1  0  0  0  0
 11 18  1  0  0  0  0
 12 20  1  0  0  0  0
 13 22  1  0  0  0  0
 14 23  1  0  0  0  0
 15 19  1  0  0  0  0
 15 24  1  0  0  0  0
 15 25  2  0  0  0  0
 16 21  1  0  0  0  0
 16 23  1  0  0  0  0
 16 26  2  0  0  0  0
 20 21  1  0  0  0  0
 21 24  1  1  0  0  0
  1 27  1  0  0  0  0
  2 28  1  0  0  0  0
  3 29  1  0  0  0  0
  4 30  1  0  0  0  0
  5 31  1  0  0  0  0
  6 32  1  0  0  0  0
  7 33  1  0  0  0  0
  8 34  1  0  0  0  0
 17 35  1  0  0  0  0
 17 36  1  0  0  0  0
 17 37  1  0  0  0  0
 18 38  1  0  0  0  0
 18 39  1  0  0  0  0
 18 40  1  0  0  0  0
 19 41  1  0  0  0  0
 19 42  1  0  0  0  0
 19 43  1  0  0  0  0
 20 44  1  0  0  0  0
 20 45  1  0  0  0  0
 21 46  1  0  0  0  0
 22 47  1  0  0  0  0
 23 48  1  0  0  0  0
 24 49  1  0  0  0  0
M  END
> <Catalog ID>
Z100491372

> <PlateID>
1041831-R-22

> <Well>
G03

> <MW (desalted)>
349.426

> <ClogP>
2.875

> <HBD>
3

> <TPSA>
73.990

> <RotBonds>
5

> <ROCS_ShapeQuery>
A71EV2A-x0451_0A_A71EV2A-x0310_0A_A71EV2A-x0416_0A_peptide

> <ROCS_TanimotoCombo>
0.527 

> <ROCS_ShapeTanimoto>
0.359 

> <ROCS_ColorTanimoto>
0.169 

> <ROCS_RefTversky>
0.320 

> <ROCS_RefColorTversky>
0.188 

> <ROCS_RefTverskyCombo>
0.508 

> <ROCS_FitTversky>
1.506 

> <ROCS_FitColorTversky>
0.624 

> <ROCS_FitTverskyCombo>
2.130 

> <ROCS_ColorScore>
-5.738

> <ROCS_Overlap>
2225.648

> <ROCS_Rank>
245                 

$$$$
untitled-dbase-916_660
  -OEChem-11132311063D

 44 47  0     0  0  0  0  0  0999 V2000
   12.8912   15.6190   21.1717 C   0  0  0  0  0  0  0  0  0  0  0  0
   11.7366   15.4746   19.0544 C   0  0  0  0  0  0  0  0  0  0  0  0
   14.0991   15.8078   20.5001 C   0  0  0  0  0  0  0  0  0  0  0  0
   12.9444   15.6635   18.3828 C   0  0  0  0  0  0  0  0  0  0  0  0
   11.7100   15.4523   20.4488 C   0  0  0  0  0  0  0  0  0  0  0  0
   14.1257   15.8301   19.1057 C   0  0  0  0  0  0  0  0  0  0  0  0
    7.7221   10.6833   24.4659 C   0  0  0  0  0  0  0  0  0  0  0  0
    9.6876   11.3952   23.8274 C   0  0  0  0  0  0  0  0  0  0  0  0
    6.4254   10.8315   25.0324 C   0  0  0  0  0  0  0  0  0  0  0  0
    6.0337   12.0416   25.4783 C   0  0  0  0  0  0  0  0  0  0  0  0
    6.9066   13.2044   25.3949 C   0  0  0  0  0  0  0  0  0  0  0  0
    8.1314   13.0655   24.8602 C   0  0  0  0  0  0  0  0  0  0  0  0
   10.6664   14.5435   22.5054 C   0  0  0  0  0  0  0  0  0  0  0  0
    8.2104   16.3430   21.0955 C   0  0  0  0  0  0  0  0  0  0  0  0
    8.2573   15.2739   20.0192 C   0  0  0  0  0  0  0  0  0  0  0  0
    9.6810   16.5945   21.4133 C   0  0  0  0  0  0  0  0  0  0  0  0
    9.3363   14.3266   20.5303 C   0  0  0  0  0  0  0  0  0  0  0  0
   10.3954   15.2485   21.1790 C   0  0  0  0  0  0  0  0  0  0  0  0
   10.8550   12.3021   23.5652 C   0  0  0  0  0  0  0  0  0  0  0  0
    8.3749    9.6605   23.9564 N   0  0  0  0  0  0  0  0  0  0  0  0
    9.6164   10.1116   23.5534 N   0  0  0  0  0  0  0  0  0  0  0  0
    8.5226   11.8132   24.4041 N   0  0  0  0  0  0  0  0  0  0  0  0
   10.6254   13.1645   22.4283 N   0  0  0  0  0  0  0  0  0  0  0  0
   10.8942   15.2099   23.5083 O   0  0  0  0  0  0  0  0  0  0  0  0
   15.6158   16.0633   18.2775 Cl  0  0  0  0  0  0  0  0  0  0  0  0
   12.8788   15.6026   22.2583 H   0  0  0  0  0  0  0  0  0  0  0  0
   10.8206   15.3458   18.4838 H   0  0  0  0  0  0  0  0  0  0  0  0
   15.0115   15.9366   21.0767 H   0  0  0  0  0  0  0  0  0  0  0  0
   12.9499   15.6785   17.2959 H   0  0  0  0  0  0  0  0  0  0  0  0
    5.7682    9.9718   25.0979 H   0  0  0  0  0  0  0  0  0  0  0  0
    5.0499   12.1806   25.9133 H   0  0  0  0  0  0  0  0  0  0  0  0
    6.5492   14.1563   25.7679 H   0  0  0  0  0  0  0  0  0  0  0  0
    8.8278   13.8898   24.7703 H   0  0  0  0  0  0  0  0  0  0  0  0
    7.6977   17.2488   20.7610 H   0  0  0  0  0  0  0  0  0  0  0  0
    7.6894   15.9656   21.9824 H   0  0  0  0  0  0  0  0  0  0  0  0
    7.3020   14.7843   19.8885 H   0  0  0  0  0  0  0  0  0  0  0  0
    8.5676   15.7106   19.0757 H   0  0  0  0  0  0  0  0  0  0  0  0
   10.0723   17.3730   20.7363 H   0  0  0  0  0  0  0  0  0  0  0  0
    9.8056   16.9727   22.4403 H   0  0  0  0  0  0  0  0  0  0  0  0
    8.9189   13.6229   21.2467 H   0  0  0  0  0  0  0  0  0  0  0  0
    9.7417   13.7532   19.6990 H   0  0  0  0  0  0  0  0  0  0  0  0
   11.0537   12.9371   24.4355 H   0  0  0  0  0  0  0  0  0  0  0  0
   11.7648   11.7249   23.3693 H   0  0  0  0  0  0  0  0  0  0  0  0
   10.4243   12.7363   21.5296 H   0  0  0  0  0  0  0  0  0  0  0  0
  1  3  1  0  0  0  0
  1  5  2  0  0  0  0
  2  4  2  0  0  0  0
  2  5  1  0  0  0  0
  3  6  2  0  0  0  0
  4  6  1  0  0  0  0
  5 18  1  0  0  0  0
  6 25  1  0  0  0  0
  7  9  1  0  0  0  0
  7 20  2  0  0  0  0
  7 22  1  0  0  0  0
  8 19  1  0  0  0  0
  8 21  2  0  0  0  0
  8 22  1  0  0  0  0
  9 10  2  0  0  0  0
 10 11  1  0  0  0  0
 11 12  2  0  0  0  0
 12 22  1  0  0  0  0
 13 18  1  0  0  0  0
 13 23  1  0  0  0  0
 13 24  2  0  0  0  0
 14 15  1  0  0  0  0
 14 16  1  0  0  0  0
 15 17  1  0  0  0  0
 16 18  1  0  0  0  0
 17 18  1  0  0  0  0
 19 23  1  0  0  0  0
 20 21  1  0  0  0  0
  1 26  1  0  0  0  0
  2 27  1  0  0  0  0
  3 28  1  0  0  0  0
  4 29  1  0  0  0  0
  9 30  1  0  0  0  0
 10 31  1  0  0  0  0
 11 32  1  0  0  0  0
 12 33  1  0  0  0  0
 14 34  1  0  0  0  0
 14 35  1  0  0  0  0
 15 36  1  0  0  0  0
 15 37  1  0  0  0  0
 16 38  1  0  0  0  0
 16 39  1  0  0  0  0
 17 40  1  0  0  0  0
 17 41  1  0  0  0  0
 19 42  1  0  0  0  0
 19 43  1  0  0  0  0
 23 44  1  0  0  0  0
M  END
> <Catalog ID>
Z70901704

> <PlateID>
1041831-R-12

> <Well>
D07

> <MW (desalted)>
354.833

> <ClogP>
3.061

> <HBD>
1

> <TPSA>
59.290

> <RotBonds>
4

> <ROCS_ShapeQuery>
A71EV2A-x0451_0A_A71EV2A-x0310_0A_A71EV2A-x0416_0A_peptide

> <ROCS_TanimotoCombo>
0.527 

> <ROCS_ShapeTanimoto>
0.348 

> <ROCS_ColorTanimoto>
0.179 

> <ROCS_RefTversky>
0.312 

> <ROCS_RefColorTversky>
0.199 

> <ROCS_RefTverskyCombo>
0.511 

> <ROCS_FitTversky>
1.494 

> <ROCS_FitColorTversky>
0.641 

> <ROCS_FitTverskyCombo>
2.135 

> <ROCS_ColorScore>
-6.083

> <ROCS_Overlap>
2170.806

> <ROCS_Rank>
246                 

$$$$
untitled-dbase-1713_2393
  -OEChem-11132311063D

 43 45  0     1  0  0  0  0  0999 V2000
    6.8953   12.5647   25.9378 C   0  0  0  0  0  0  0  0  0  0  0  0
    6.3985   11.2963   26.2311 C   0  0  0  0  0  0  0  0  0  0  0  0
    7.9623   12.7277   25.0468 C   0  0  0  0  0  0  0  0  0  0  0  0
    6.9498   10.1531   25.6455 C   0  0  0  0  0  0  0  0  0  0  0  0
   14.1483   15.2809   21.0337 C   0  0  0  0  0  0  0  0  0  0  0  0
   14.8257   16.0210   20.0648 C   0  0  0  0  0  0  0  0  0  0  0  0
   12.0923   15.5355   19.7908 C   0  0  0  0  0  0  0  0  0  0  0  0
    9.7011   10.0326   23.2935 C   0  0  0  0  0  0  0  0  0  0  0  0
    8.5344   11.5897   24.4442 C   0  0  0  0  0  0  0  0  0  0  0  0
    9.5968   11.3857   23.5197 C   0  0  0  0  0  0  0  0  0  0  0  0
    8.0160   10.3312   24.7568 C   0  0  0  0  0  0  0  0  0  0  0  0
   12.7815   15.0381   20.8967 C   0  0  0  0  0  0  0  0  0  0  0  0
   14.1365   16.5184   18.9589 C   0  0  0  0  0  0  0  0  0  0  0  0
   12.7697   16.2757   18.8219 C   0  0  0  0  0  0  0  0  0  0  0  0
   10.3355   15.0997   24.4023 C   0  0  0  0  0  0  0  0  0  0  0  0
   12.6157   13.7361   23.0467 C   0  0  0  0  0  0  0  0  0  0  0  0
    9.8536   15.9323   25.5437 C   0  0  0  0  0  0  0  0  0  0  0  0
   10.4432   12.4302   22.9079 C   0  0  0  0  0  0  0  0  0  0  0  0
   11.5377   12.9965   23.8420 C   0  0  2  0  0  0  0  0  0  0  0  0
    8.7433    9.4049   24.0439 N   0  0  0  0  0  0  0  0  0  0  0  0
   12.0947   14.2877   21.8798 N   0  0  0  0  0  0  0  0  0  0  0  0
   10.9932   13.9442   24.7838 N   0  0  0  0  0  0  0  0  0  0  0  0
   10.1279   15.4715   23.2532 O   0  0  0  0  0  0  0  0  0  0  0  0
   13.7662   13.8379   23.4643 O   0  0  0  0  0  0  0  0  0  0  0  0
   14.8016   17.2280   18.0360 F   0  0  0  0  0  0  0  0  0  0  0  0
   11.9147   16.8856   17.4576 Cl  0  0  0  0  0  0  0  0  0  0  0  0
    6.4497   13.4387   26.4052 H   0  0  0  0  0  0  0  0  0  0  0  0
    5.5691   11.1929   26.9261 H   0  0  0  0  0  0  0  0  0  0  0  0
    8.3376   13.7232   24.8278 H   0  0  0  0  0  0  0  0  0  0  0  0
    6.5631    9.1660   25.8753 H   0  0  0  0  0  0  0  0  0  0  0  0
   14.6964   14.8976   21.8908 H   0  0  0  0  0  0  0  0  0  0  0  0
   15.8900   16.2091   20.1714 H   0  0  0  0  0  0  0  0  0  0  0  0
   11.0263   15.3437   19.6876 H   0  0  0  0  0  0  0  0  0  0  0  0
   10.3692    9.4596   22.6653 H   0  0  0  0  0  0  0  0  0  0  0  0
   10.6022   16.6720   25.8701 H   0  0  0  0  0  0  0  0  0  0  0  0
    8.9572   16.5193   25.2869 H   0  0  0  0  0  0  0  0  0  0  0  0
    9.5827   15.3733   26.4536 H   0  0  0  0  0  0  0  0  0  0  0  0
    9.8085   13.2708   22.5611 H   0  0  0  0  0  0  0  0  0  0  0  0
   10.9262   12.0619   21.9793 H   0  0  0  0  0  0  0  0  0  0  0  0
   11.9910   12.1979   24.4400 H   0  0  0  0  0  0  0  0  0  0  0  0
    8.5916    8.4061   24.0711 H   0  0  0  0  0  0  0  0  0  0  0  0
   11.1009   14.1561   21.7049 H   0  0  0  0  0  0  0  0  0  0  0  0
   11.0983   13.7533   25.7770 H   0  0  0  0  0  0  0  0  0  0  0  0
  1  2  2  0  0  0  0
  1  3  1  0  0  0  0
  2  4  1  0  0  0  0
  3  9  2  0  0  0  0
  4 11  2  0  0  0  0
  5  6  1  0  0  0  0
  5 12  2  0  0  0  0
  6 13  2  0  0  0  0
  7 12  1  0  0  0  0
  7 14  2  0  0  0  0
  8 10  2  0  0  0  0
  8 20  1  0  0  0  0
  9 10  1  0  0  0  0
  9 11  1  0  0  0  0
 10 18  1  0  0  0  0
 11 20  1  0  0  0  0
 12 21  1  0  0  0  0
 13 14  1  0  0  0  0
 13 25  1  0  0  0  0
 14 26  1  0  0  0  0
 15 17  1  0  0  0  0
 15 22  1  0  0  0  0
 15 23  2  0  0  0  0
 16 19  1  0  0  0  0
 16 21  1  0  0  0  0
 16 24  2  0  0  0  0
 18 19  1  0  0  0  0
 19 22  1  1  0  0  0
  1 27  1  0  0  0  0
  2 28  1  0  0  0  0
  3 29  1  0  0  0  0
  4 30  1  0  0  0  0
  5 31  1  0  0  0  0
  6 32  1  0  0  0  0
  7 33  1  0  0  0  0
  8 34  1  0  0  0  0
 17 35  1  0  0  0  0
 17 36  1  0  0  0  0
 17 37  1  0  0  0  0
 18 38  1  0  0  0  0
 18 39  1  0  0  0  0
 19 40  1  0  0  0  0
 20 41  1  0  0  0  0
 21 42  1  0  0  0  0
 22 43  1  0  0  0  0
M  END
> <Catalog ID>
Z100692130

> <PlateID>
1041831-R-22

> <Well>
D04

> <MW (desalted)>
373.809

> <ClogP>
3.131

> <HBD>
3

> <TPSA>
73.990

> <RotBonds>
5

> <ROCS_ShapeQuery>
A71EV2A-x0451_0A_A71EV2A-x0310_0A_A71EV2A-x0416_0A_peptide

> <ROCS_TanimotoCombo>
0.527 

> <ROCS_ShapeTanimoto>
0.358 

> <ROCS_ColorTanimoto>
0.169 

> <ROCS_RefTversky>
0.320 

> <ROCS_RefColorTversky>
0.188 

> <ROCS_RefTverskyCombo>
0.508 

> <ROCS_FitTversky>
1.507 

> <ROCS_FitColorTversky>
0.623 

> <ROCS_FitTverskyCombo>
2.130 

> <ROCS_ColorScore>
-5.737

> <ROCS_Overlap>
2224.575

> <ROCS_Rank>
247                 

$$$$
untitled-dbase-2009_313
  -OEChem-11132311063D

 51 54  0     0  0  0  0  0  0999 V2000
   14.3680   16.0284   20.2182 C   0  0  0  0  0  0  0  0  0  0  0  0
   11.9532   15.9701   20.1696 C   0  0  0  0  0  0  0  0  0  0  0  0
   14.4028   15.7185   18.8587 C   0  0  0  0  0  0  0  0  0  0  0  0
   11.9880   15.6602   18.8100 C   0  0  0  0  0  0  0  0  0  0  0  0
    7.2035    9.3549   25.5572 C   0  0  0  0  0  0  0  0  0  0  0  0
    6.2999   10.3900   25.8739 C   0  0  0  0  0  0  0  0  0  0  0  0
   13.1431   16.1542   20.8737 C   0  0  0  0  0  0  0  0  0  0  0  0
   13.2129   15.5344   18.1546 C   0  0  0  0  0  0  0  0  0  0  0  0
    8.1075    9.9536   24.7201 C   0  0  0  0  0  0  0  0  0  0  0  0
    9.5913   11.7199   23.0970 C   0  0  0  0  0  0  0  0  0  0  0  0
    9.9427   10.4196   23.2602 C   0  0  0  0  0  0  0  0  0  0  0  0
    8.3669   12.2226   23.8114 C   0  0  0  0  0  0  0  0  0  0  0  0
   11.0370   13.6967   23.1270 C   0  0  0  0  0  0  0  0  0  0  0  0
   13.8539   18.0195   24.1307 C   0  0  0  0  0  0  0  0  0  0  0  0
   12.3310   18.0626   24.0816 C   0  0  0  0  0  0  0  0  0  0  0  0
   14.3005   17.3538   22.8319 C   0  0  0  0  0  0  0  0  0  0  0  0
   11.9325   17.4234   22.7542 C   0  0  0  0  0  0  0  0  0  0  0  0
   13.1044   16.4953   22.3629 C   0  0  0  0  0  0  0  0  0  0  0  0
   11.1596    9.8022   22.6221 C   0  0  0  0  0  0  0  0  0  0  0  0
   10.2817   12.7355   22.2364 C   0  0  0  0  0  0  0  0  0  0  0  0
   13.0397   15.1730   23.1544 C   0  0  0  0  0  0  0  0  0  0  0  0
    6.6055   11.5518   25.2850 N   0  0  0  0  0  0  0  0  0  0  0  0
    7.7195   11.2599   24.5812 N   0  0  0  0  0  0  0  0  0  0  0  0
    9.2089    9.5520   24.0608 N   0  0  0  0  0  0  0  0  0  0  0  0
   12.1610   14.2226   22.5111 N   0  0  0  0  0  0  0  0  0  0  0  0
    7.9272   13.3601   23.7673 O   0  0  0  0  0  0  0  0  0  0  0  0
   10.6611   13.9681   24.2662 O   0  0  0  0  0  0  0  0  0  0  0  0
   13.2562   15.1523   16.4775 Cl  0  0  0  0  0  0  0  0  0  0  0  0
   15.2995   16.1701   20.7599 H   0  0  0  0  0  0  0  0  0  0  0  0
   10.9947   16.0666   20.6729 H   0  0  0  0  0  0  0  0  0  0  0  0
   15.3646   15.6240   18.3612 H   0  0  0  0  0  0  0  0  0  0  0  0
   11.0528   15.5195   18.2743 H   0  0  0  0  0  0  0  0  0  0  0  0
    7.1933    8.3275   25.8903 H   0  0  0  0  0  0  0  0  0  0  0  0
    5.4282   10.3442   26.5108 H   0  0  0  0  0  0  0  0  0  0  0  0
   14.2860   19.0203   24.2322 H   0  0  0  0  0  0  0  0  0  0  0  0
   14.1840   17.4327   24.9954 H   0  0  0  0  0  0  0  0  0  0  0  0
   11.9135   17.4947   24.9208 H   0  0  0  0  0  0  0  0  0  0  0  0
   11.9501   19.0861   24.1593 H   0  0  0  0  0  0  0  0  0  0  0  0
   14.5286   18.1335   22.0923 H   0  0  0  0  0  0  0  0  0  0  0  0
   15.2148   16.7656   22.9691 H   0  0  0  0  0  0  0  0  0  0  0  0
   10.9784   16.8902   22.8294 H   0  0  0  0  0  0  0  0  0  0  0  0
   11.8000   18.2143   22.0037 H   0  0  0  0  0  0  0  0  0  0  0  0
   12.0069    9.9103   23.2919 H   0  0  0  0  0  0  0  0  0  0  0  0
   11.3645   10.3063   21.6824 H   0  0  0  0  0  0  0  0  0  0  0  0
   10.9686    8.7500   22.4341 H   0  0  0  0  0  0  0  0  0  0  0  0
    9.5425   13.3014   21.6684 H   0  0  0  0  0  0  0  0  0  0  0  0
   10.9363   12.2182   21.5352 H   0  0  0  0  0  0  0  0  0  0  0  0
   14.0500   14.7424   23.2172 H   0  0  0  0  0  0  0  0  0  0  0  0
   12.6653   15.3792   24.1679 H   0  0  0  0  0  0  0  0  0  0  0  0
    9.5485    8.5972   24.1215 H   0  0  0  0  0  0  0  0  0  0  0  0
   12.3774   13.9269   21.5643 H   0  0  0  0  0  0  0  0  0  0  0  0
  1  3  1  0  0  0  0
  1  7  2  0  0  0  0
  2  4  2  0  0  0  0
  2  7  1  0  0  0  0
  3  8  2  0  0  0  0
  4  8  1  0  0  0  0
  5  6  1  0  0  0  0
  5  9  2  0  0  0  0
  6 22  2  0  0  0  0
  7 18  1  0  0  0  0
  8 28  1  0  0  0  0
  9 23  1  0  0  0  0
  9 24  1  0  0  0  0
 10 11  2  0  0  0  0
 10 12  1  0  0  0  0
 10 20  1  0  0  0  0
 11 19  1  0  0  0  0
 11 24  1  0  0  0  0
 12 23  1  0  0  0  0
 12 26  2  0  0  0  0
 13 20  1  0  0  0  0
 13 25  1  0  0  0  0
 13 27  2  0  0  0  0
 14 15  1  0  0  0  0
 14 16  1  0  0  0  0
 15 17  1  0  0  0  0
 16 18  1  0  0  0  0
 17 18  1  0  0  0  0
 18 21  1  0  0  0  0
 21 25  1  0  0  0  0
 22 23  1  0  0  0  0
  1 29  1  0  0  0  0
  2 30  1  0  0  0  0
  3 31  1  0  0  0  0
  4 32  1  0  0  0  0
  5 33  1  0  0  0  0
  6 34  1  0  0  0  0
 14 35  1  0  0  0  0
 14 36  1  0  0  0  0
 15 37  1  0  0  0  0
 15 38  1  0  0  0  0
 16 39  1  0  0  0  0
 16 40  1  0  0  0  0
 17 41  1  0  0  0  0
 17 42  1  0  0  0  0
 19 43  1  0  0  0  0
 19 44  1  0  0  0  0
 19 45  1  0  0  0  0
 20 46  1  0  0  0  0
 20 47  1  0  0  0  0
 21 48  1  0  0  0  0
 21 49  1  0  0  0  0
 24 50  1  0  0  0  0
 25 51  1  0  0  0  0
M  END
> <Catalog ID>
Z1124055922

> <PlateID>
1041831-R-26

> <Well>
A10

> <MW (desalted)>
398.886

> <ClogP>
2.579

> <HBD>
2

> <TPSA>
76.020

> <RotBonds>
5

> <ROCS_ShapeQuery>
A71EV2A-x0451_0A_A71EV2A-x0310_0A_A71EV2A-x0416_0A_peptide

> <ROCS_TanimotoCombo>
0.527 

> <ROCS_ShapeTanimoto>
0.348 

> <ROCS_ColorTanimoto>
0.179 

> <ROCS_RefTversky>
0.317 

> <ROCS_RefColorTversky>
0.203 

> <ROCS_RefTverskyCombo>
0.519 

> <ROCS_FitTversky>
1.396 

> <ROCS_FitColorTversky>
0.610 

> <ROCS_FitTverskyCombo>
2.006 

> <ROCS_ColorScore>
-6.197

> <ROCS_Overlap>
2202.957

> <ROCS_Rank>
248                 

$$$$
untitled-dbase-531_106
  -OEChem-11132311063D

 49 53  0     1  0  0  0  0  0999 V2000
   13.4975   15.8835   18.5760 C   0  0  0  0  0  0  0  0  0  0  0  0
   13.4513   17.1473   19.1997 C   0  0  0  0  0  0  0  0  0  0  0  0
   13.1918   15.0088   19.5850 C   0  0  0  0  0  0  0  0  0  0  0  0
   12.5213   13.7600   22.0236 C   0  0  0  0  0  0  0  0  0  0  0  0
   12.7322   13.0548   20.8838 C   0  0  0  0  0  0  0  0  0  0  0  0
   12.6532   15.2574   21.9702 C   0  0  0  0  0  0  0  0  0  0  0  0
   10.7407   13.5094   23.6156 C   0  0  0  0  0  0  0  0  0  0  0  0
    6.8366   10.3298   25.1076 C   0  0  0  0  0  0  0  0  0  0  0  0
    7.8164   10.2116   22.8045 C   0  0  0  0  0  0  0  0  0  0  0  0
    9.1581    9.4385   24.8323 C   0  0  0  0  0  0  0  0  0  0  0  0
    7.4029   12.4534   23.9113 C   0  0  0  0  0  0  0  0  0  0  0  0
    8.7740   11.6822   25.9424 C   0  0  0  0  0  0  0  0  0  0  0  0
   10.1815   11.1065   23.1903 C   0  0  0  0  0  0  0  0  0  0  0  0
    6.9101   11.0151   23.7408 C   0  0  2  0  0  0  0  0  0  0  0  0
    8.2346   10.2663   25.7277 C   0  0  1  0  0  0  0  0  0  0  0  0
    9.2102    9.9357   23.3827 C   0  0  0  0  0  0  0  0  0  0  0  0
    8.7186   12.5706   24.6920 C   0  0  0  0  0  0  0  0  0  0  0  0
   12.6046   11.5562   20.7993 C   0  0  0  0  0  0  0  0  0  0  0  0
   12.1999   13.2106   23.3582 C   0  0  0  0  0  0  0  0  0  0  0  0
   13.1417   17.0801   20.4995 N   0  0  0  0  0  0  0  0  0  0  0  0
   12.9869   15.7567   20.7140 N   0  0  0  0  0  0  0  0  0  0  0  0
   13.0626   13.6736   19.6839 N   0  0  0  0  0  0  0  0  0  0  0  0
    9.8976   12.3994   23.8222 N   0  0  0  0  0  0  0  0  0  0  0  0
   12.4920   16.0253   22.9048 O   0  0  0  0  0  0  0  0  0  0  0  0
   10.3662   14.6850   23.6298 O   0  0  0  0  0  0  0  0  0  0  0  0
   13.7215   15.6494   17.5457 H   0  0  0  0  0  0  0  0  0  0  0  0
   13.6322   18.1169   18.7585 H   0  0  0  0  0  0  0  0  0  0  0  0
    6.1547   10.8780   25.7696 H   0  0  0  0  0  0  0  0  0  0  0  0
    6.4249    9.3185   24.9999 H   0  0  0  0  0  0  0  0  0  0  0  0
    7.3311    9.2455   22.6088 H   0  0  0  0  0  0  0  0  0  0  0  0
    7.8975   10.7111   21.8312 H   0  0  0  0  0  0  0  0  0  0  0  0
   10.1672    9.3968   25.2604 H   0  0  0  0  0  0  0  0  0  0  0  0
    8.7894    8.4037   24.8260 H   0  0  0  0  0  0  0  0  0  0  0  0
    7.4883   12.9516   22.9374 H   0  0  0  0  0  0  0  0  0  0  0  0
    6.6331   13.0121   24.4615 H   0  0  0  0  0  0  0  0  0  0  0  0
    8.1621   12.1600   26.7201 H   0  0  0  0  0  0  0  0  0  0  0  0
    9.7933   11.6522   26.3476 H   0  0  0  0  0  0  0  0  0  0  0  0
   11.1734   10.7944   23.5399 H   0  0  0  0  0  0  0  0  0  0  0  0
   10.2806   11.2923   22.1139 H   0  0  0  0  0  0  0  0  0  0  0  0
    5.9041   11.0458   23.3044 H   0  0  0  0  0  0  0  0  0  0  0  0
    8.1675    9.7710   26.7044 H   0  0  0  0  0  0  0  0  0  0  0  0
    9.6364    9.1140   22.7887 H   0  0  0  0  0  0  0  0  0  0  0  0
    8.7484   13.6018   25.0645 H   0  0  0  0  0  0  0  0  0  0  0  0
   11.5834   11.2998   20.5353 H   0  0  0  0  0  0  0  0  0  0  0  0
   12.8579   11.1216   21.7616 H   0  0  0  0  0  0  0  0  0  0  0  0
   13.2873   11.1823   20.0424 H   0  0  0  0  0  0  0  0  0  0  0  0
   12.7881   13.6875   24.1363 H   0  0  0  0  0  0  0  0  0  0  0  0
   12.3271   12.1321   23.3857 H   0  0  0  0  0  0  0  0  0  0  0  0
   13.2021   13.0635   18.8845 H   0  0  0  0  0  0  0  0  0  0  0  0
  1  2  1  0  0  0  0
  1  3  2  0  0  0  0
  2 20  2  0  0  0  0
  3 21  1  0  0  0  0
  3 22  1  0  0  0  0
  4  5  2  0  0  0  0
  4  6  1  0  0  0  0
  4 19  1  0  0  0  0
  5 18  1  0  0  0  0
  5 22  1  0  0  0  0
  6 21  1  0  0  0  0
  6 24  2  0  0  0  0
  7 19  1  0  0  0  0
  7 23  1  0  0  0  0
  7 25  2  0  0  0  0
  8 14  1  0  0  0  0
  8 15  1  0  0  0  0
  9 14  1  0  0  0  0
  9 16  1  0  0  0  0
 10 15  1  0  0  0  0
 10 16  1  0  0  0  0
 11 14  1  0  0  0  0
 11 17  1  0  0  0  0
 12 15  1  0  0  0  0
 12 17  1  0  0  0  0
 13 16  1  0  0  0  0
 13 23  1  0  0  0  0
 17 23  1  0  0  0  0
 20 21  1  0  0  0  0
  1 26  1  0  0  0  0
  2 27  1  0  0  0  0
  8 28  1  0  0  0  0
  8 29  1  0  0  0  0
  9 30  1  0  0  0  0
  9 31  1  0  0  0  0
 10 32  1  0  0  0  0
 10 33  1  0  0  0  0
 11 34  1  0  0  0  0
 11 35  1  0  0  0  0
 12 36  1  0  0  0  0
 12 37  1  0  0  0  0
 13 38  1  0  0  0  0
 13 39  1  0  0  0  0
 14 40  1  0  0  0  0
 15 41  1  0  0  0  0
 16 42  1  0  0  0  0
 17 43  1  0  0  0  0
 18 44  1  0  0  0  0
 18 45  1  0  0  0  0
 18 46  1  0  0  0  0
 19 47  1  0  0  0  0
 19 48  1  0  0  0  0
 22 49  1  0  0  0  0
M  END
> <Catalog ID>
Z1124083570

> <PlateID>
1041831-R-07

> <Well>
F02

> <MW (desalted)>
340.419

> <ClogP>
0.963

> <HBD>
1

> <TPSA>
67.230

> <RotBonds>
2

> <ROCS_ShapeQuery>
A71EV2A-x0451_0A_A71EV2A-x0310_0A_A71EV2A-x0416_0A_peptide

> <ROCS_TanimotoCombo>
0.527 

> <ROCS_ShapeTanimoto>
0.324 

> <ROCS_ColorTanimoto>
0.203 

> <ROCS_RefTversky>
0.297 

> <ROCS_RefColorTversky>
0.240 

> <ROCS_RefTverskyCombo>
0.537 

> <ROCS_FitTversky>
1.397 

> <ROCS_FitColorTversky>
0.569 

> <ROCS_FitTverskyCombo>
1.966 

> <ROCS_ColorScore>
-7.371

> <ROCS_Overlap>
2063.662

> <ROCS_Rank>
249                 

$$$$
untitled-dbase-543_519
  -OEChem-11132311063D

 43 45  0     1  0  0  0  0  0999 V2000
   15.6471   11.3572   27.8563 C   0  0  0  0  0  0  0  0  0  0  0  0
   14.7543   12.3923   28.1337 C   0  0  0  0  0  0  0  0  0  0  0  0
   16.1889   11.2273   26.5775 C   0  0  0  0  0  0  0  0  0  0  0  0
   14.4030   13.2975   27.1323 C   0  0  0  0  0  0  0  0  0  0  0  0
   15.8377   12.1325   25.5760 C   0  0  0  0  0  0  0  0  0  0  0  0
    8.2987   11.8917   24.5992 C   0  0  0  0  0  0  0  0  0  0  0  0
   15.2856   15.2647   24.5972 C   0  0  0  0  0  0  0  0  0  0  0  0
   14.9448   13.1676   25.8534 C   0  0  0  0  0  0  0  0  0  0  0  0
   14.5832   14.0993   24.8221 C   0  0  0  0  0  0  0  0  0  0  0  0
    7.6509   10.7091   25.0038 C   0  0  0  0  0  0  0  0  0  0  0  0
    9.1190   11.4989   23.5700 C   0  0  0  0  0  0  0  0  0  0  0  0
   13.4004   14.8793   23.1480 C   0  0  0  0  0  0  0  0  0  0  0  0
   10.7308   13.3910   23.1195 C   0  0  0  0  0  0  0  0  0  0  0  0
    6.6576   10.5541   26.0800 C   0  0  0  0  0  0  0  0  0  0  0  0
   11.4824   16.2525   22.2384 C   0  0  0  0  0  0  0  0  0  0  0  0
    9.5579    9.2801   22.4711 C   0  0  0  0  0  0  0  0  0  0  0  0
   12.3594   14.9927   22.1040 C   0  0  2  0  0  0  0  0  0  0  0  0
   13.5016   13.8769   23.9924 N   0  0  0  0  0  0  0  0  0  0  0  0
    8.0271    9.6449   24.2898 N   0  0  0  0  0  0  0  0  0  0  0  0
    8.9202   10.1573   23.4261 N   0  0  0  0  0  0  0  0  0  0  0  0
   10.0141   12.2439   22.7673 N   0  0  0  0  0  0  0  0  0  0  0  0
   11.5002   13.8164   22.0410 N   0  0  0  0  0  0  0  0  0  0  0  0
   10.7092   13.9632   24.2066 O   0  0  0  0  0  0  0  0  0  0  0  0
   14.5730   16.1237   23.2950 S   0  0  0  0  0  0  0  0  0  0  0  0
   15.9215   10.6528   28.6362 H   0  0  0  0  0  0  0  0  0  0  0  0
   14.3333   12.4943   29.1296 H   0  0  0  0  0  0  0  0  0  0  0  0
   16.8850   10.4221   26.3621 H   0  0  0  0  0  0  0  0  0  0  0  0
   13.7056   14.0991   27.3642 H   0  0  0  0  0  0  0  0  0  0  0  0
   16.2688   12.0176   24.5842 H   0  0  0  0  0  0  0  0  0  0  0  0
    8.1858   12.8895   24.9989 H   0  0  0  0  0  0  0  0  0  0  0  0
   16.1557   15.6478   25.1124 H   0  0  0  0  0  0  0  0  0  0  0  0
    5.6309   10.6965   25.7012 H   0  0  0  0  0  0  0  0  0  0  0  0
    6.7031    9.5549   26.5489 H   0  0  0  0  0  0  0  0  0  0  0  0
    6.8132   11.2791   26.8989 H   0  0  0  0  0  0  0  0  0  0  0  0
   10.9930   16.2751   23.2183 H   0  0  0  0  0  0  0  0  0  0  0  0
   12.0722   17.1700   22.1325 H   0  0  0  0  0  0  0  0  0  0  0  0
   10.7016   16.2815   21.4701 H   0  0  0  0  0  0  0  0  0  0  0  0
   10.4702    8.8891   22.9291 H   0  0  0  0  0  0  0  0  0  0  0  0
    8.8774    8.4628   22.2164 H   0  0  0  0  0  0  0  0  0  0  0  0
    9.7952    9.8441   21.5647 H   0  0  0  0  0  0  0  0  0  0  0  0
   12.8166   15.0418   21.0950 H   0  0  0  0  0  0  0  0  0  0  0  0
   10.1497   11.8988   21.8203 H   0  0  0  0  0  0  0  0  0  0  0  0
   11.4621   13.2899   21.1811 H   0  0  0  0  0  0  0  0  0  0  0  0
  1  2  2  0  0  0  0
  1  3  1  0  0  0  0
  2  4  1  0  0  0  0
  3  5  2  0  0  0  0
  4  8  2  0  0  0  0
  5  8  1  0  0  0  0
  6 10  1  0  0  0  0
  6 11  2  0  0  0  0
  7  9  2  0  0  0  0
  7 24  1  0  0  0  0
  8  9  1  0  0  0  0
  9 18  1  0  0  0  0
 10 14  1  0  0  0  0
 10 19  2  0  0  0  0
 11 20  1  0  0  0  0
 11 21  1  0  0  0  0
 12 17  1  0  0  0  0
 12 18  2  0  0  0  0
 12 24  1  0  0  0  0
 13 21  1  0  0  0  0
 13 22  1  0  0  0  0
 13 23  2  0  0  0  0
 15 17  1  0  0  0  0
 16 20  1  0  0  0  0
 17 22  1  0  0  0  0
 19 20  1  0  0  0  0
  1 25  1  0  0  0  0
  2 26  1  0  0  0  0
  3 27  1  0  0  0  0
  4 28  1  0  0  0  0
  5 29  1  0  0  0  0
  6 30  1  0  0  0  0
  7 31  1  0  0  0  0
 14 32  1  0  0  0  0
 14 33  1  0  0  0  0
 14 34  1  0  0  0  0
 15 35  1  0  0  0  0
 15 36  1  0  0  0  0
 15 37  1  0  0  0  0
 16 38  1  0  0  0  0
 16 39  1  0  0  0  0
 16 40  1  0  0  0  0
 17 41  1  0  0  0  0
 21 42  1  0  0  0  0
 22 43  1  0  0  0  0
M  END
> <Catalog ID>
Z1149178051

> <PlateID>
1041831-R-07

> <Well>
G04

> <MW (desalted)>
341.431

> <ClogP>
2.711

> <HBD>
2

> <TPSA>
71.840

> <RotBonds>
4

> <ROCS_ShapeQuery>
A71EV2A-x0451_0A_A71EV2A-x0310_0A_A71EV2A-x0416_0A_peptide

> <ROCS_TanimotoCombo>
0.527 

> <ROCS_ShapeTanimoto>
0.316 

> <ROCS_ColorTanimoto>
0.211 

> <ROCS_RefTversky>
0.288 

> <ROCS_RefColorTversky>
0.227 

> <ROCS_RefTverskyCombo>
0.515 

> <ROCS_FitTversky>
1.443 

> <ROCS_FitColorTversky>
0.753 

> <ROCS_FitTverskyCombo>
2.196 

> <ROCS_ColorScore>
-6.924

> <ROCS_Overlap>
2001.552

> <ROCS_Rank>
250                 

$$$$
untitled-dbase-2545_3477
  -OEChem-11132311063D

 44 47  0     1  0  0  0  0  0999 V2000
   14.2922   15.2526   19.9884 C   0  0  0  0  0  0  0  0  0  0  0  0
   12.2016   16.3926   20.3972 C   0  0  0  0  0  0  0  0  0  0  0  0
   14.1840   15.5418   18.6282 C   0  0  0  0  0  0  0  0  0  0  0  0
   12.0935   16.6819   19.0369 C   0  0  0  0  0  0  0  0  0  0  0  0
   13.3010   15.6779   20.8729 C   0  0  0  0  0  0  0  0  0  0  0  0
   13.0847   16.2565   18.1524 C   0  0  0  0  0  0  0  0  0  0  0  0
   12.2581   14.6477   22.9237 C   0  0  0  0  0  0  0  0  0  0  0  0
   10.6365   13.0655   23.5826 C   0  0  0  0  0  0  0  0  0  0  0  0
    7.2039   10.4904   26.1552 C   0  0  0  0  0  0  0  0  0  0  0  0
    6.8167   11.7415   24.0247 C   0  0  0  0  0  0  0  0  0  0  0  0
    9.8345   10.8470   22.8211 C   0  0  0  0  0  0  0  0  0  0  0  0
    9.1593   11.7000   25.0678 C   0  0  0  0  0  0  0  0  0  0  0  0
    6.0929   11.4341   26.6164 C   0  0  0  0  0  0  0  0  0  0  0  0
    6.3129   12.9523   24.8089 C   0  0  0  0  0  0  0  0  0  0  0  0
    9.3645    9.5614   23.4877 C   0  0  0  0  0  0  0  0  0  0  0  0
    7.8480   10.9099   24.8115 C   0  0  0  0  0  0  0  0  0  0  0  0
   13.4187   15.3633   22.3569 C   0  0  0  0  0  0  0  0  0  0  0  0
   11.3065   15.1972   23.6480 N   0  0  0  0  0  0  0  0  0  0  0  0
   10.3559   14.2689   24.0353 N   0  0  0  0  0  0  0  0  0  0  0  0
    9.8680   11.9282   23.8064 N   0  0  3  0  0  0  0  0  0  0  0  0
    6.3714   12.7716   26.2245 O   0  0  0  0  0  0  0  0  0  0  0  0
    8.0740    9.6992   24.0695 O   0  0  0  0  0  0  0  0  0  0  0  0
   12.9820   16.5367   16.8466 F   0  0  0  0  0  0  0  0  0  0  0  0
   12.0743   12.9641   22.6531 S   0  0  0  0  0  0  0  0  0  0  0  0
   15.1520   14.6945   20.3496 H   0  0  0  0  0  0  0  0  0  0  0  0
   11.4246   16.7283   21.0789 H   0  0  0  0  0  0  0  0  0  0  0  0
   14.9559   15.2114   17.9397 H   0  0  0  0  0  0  0  0  0  0  0  0
   11.2375   17.2379   18.6661 H   0  0  0  0  0  0  0  0  0  0  0  0
    7.9866   10.4604   26.9352 H   0  0  0  0  0  0  0  0  0  0  0  0
    6.7886    9.4694   26.0793 H   0  0  0  0  0  0  0  0  0  0  0  0
    5.9502   11.1375   23.7112 H   0  0  0  0  0  0  0  0  0  0  0  0
    7.2884   12.1046   23.0939 H   0  0  0  0  0  0  0  0  0  0  0  0
   10.8450   10.7053   22.4182 H   0  0  0  0  0  0  0  0  0  0  0  0
    9.1682   11.0905   21.9853 H   0  0  0  0  0  0  0  0  0  0  0  0
    8.9313   12.6486   25.5693 H   0  0  0  0  0  0  0  0  0  0  0  0
    9.8147   11.1229   25.7324 H   0  0  0  0  0  0  0  0  0  0  0  0
    5.1166   11.1308   26.2204 H   0  0  0  0  0  0  0  0  0  0  0  0
    6.0232   11.4130   27.7088 H   0  0  0  0  0  0  0  0  0  0  0  0
    6.9334   13.8338   24.5652 H   0  0  0  0  0  0  0  0  0  0  0  0
    5.2779   13.2194   24.5191 H   0  0  0  0  0  0  0  0  0  0  0  0
    9.3771    8.7182   22.7866 H   0  0  0  0  0  0  0  0  0  0  0  0
   10.0590    9.2985   24.2949 H   0  0  0  0  0  0  0  0  0  0  0  0
   14.3580   14.7946   22.5160 H   0  0  0  0  0  0  0  0  0  0  0  0
   13.6078   16.3134   22.8978 H   0  0  0  0  0  0  0  0  0  0  0  0
  1  3  1  0  0  0  0
  1  5  2  0  0  0  0
  2  4  2  0  0  0  0
  2  5  1  0  0  0  0
  3  6  2  0  0  0  0
  4  6  1  0  0  0  0
  5 17  1  0  0  0  0
  6 23  1  0  0  0  0
  7 17  1  0  0  0  0
  7 18  2  0  0  0  0
  7 24  1  0  0  0  0
  8 19  2  0  0  0  0
  8 20  1  0  0  0  0
  8 24  1  0  0  0  0
  9 13  1  0  0  0  0
  9 16  1  0  0  0  0
 10 14  1  0  0  0  0
 10 16  1  0  0  0  0
 11 15  1  0  0  0  0
 11 20  1  0  0  0  0
 12 16  1  0  0  0  0
 12 20  1  0  0  0  0
 13 21  1  0  0  0  0
 14 21  1  0  0  0  0
 15 22  1  0  0  0  0
 16 22  1  0  0  0  0
 18 19  1  0  0  0  0
  1 25  1  0  0  0  0
  2 26  1  0  0  0  0
  3 27  1  0  0  0  0
  4 28  1  0  0  0  0
  9 29  1  0  0  0  0
  9 30  1  0  0  0  0
 10 31  1  0  0  0  0
 10 32  1  0  0  0  0
 11 33  1  0  0  0  0
 11 34  1  0  0  0  0
 12 35  1  0  0  0  0
 12 36  1  0  0  0  0
 13 37  1  0  0  0  0
 13 38  1  0  0  0  0
 14 39  1  0  0  0  0
 14 40  1  0  0  0  0
 15 41  1  0  0  0  0
 15 42  1  0  0  0  0
 17 43  1  0  0  0  0
 17 44  1  0  0  0  0
M  END
> <Catalog ID>
Z1665845043

> <PlateID>
1041831-R-32

> <Well>
G06

> <MW (desalted)>
349.423

> <ClogP>
1.493

> <HBD>
0

> <TPSA>
47.480

> <RotBonds>
3

> <ROCS_ShapeQuery>
A71EV2A-x0451_0A_A71EV2A-x0310_0A_A71EV2A-x0416_0A_peptide

> <ROCS_TanimotoCombo>
0.527 

> <ROCS_ShapeTanimoto>
0.341 

> <ROCS_ColorTanimoto>
0.186 

> <ROCS_RefTversky>
0.305 

> <ROCS_RefColorTversky>
0.205 

> <ROCS_RefTverskyCombo>
0.510 

> <ROCS_FitTversky>
1.531 

> <ROCS_FitColorTversky>
0.663 

> <ROCS_FitTverskyCombo>
2.194 

> <ROCS_ColorScore>
-6.272

> <ROCS_Overlap>
2119.761

> <ROCS_Rank>
251                 

$$$$
untitled-dbase-2268_2313
  -OEChem-11132311063D

 44 47  0     1  0  0  0  0  0999 V2000
    4.3657   12.0362   27.1047 C   0  0  0  0  0  0  0  0  0  0  0  0
    5.4140   11.4385   26.4141 C   0  0  0  0  0  0  0  0  0  0  0  0
    4.2953   13.4200   27.1061 C   0  0  0  0  0  0  0  0  0  0  0  0
    6.1877   13.6067   25.8167 C   0  0  0  0  0  0  0  0  0  0  0  0
    8.8797   10.1165   23.8358 C   0  0  0  0  0  0  0  0  0  0  0  0
    6.3468   12.2317   25.7551 C   0  0  0  0  0  0  0  0  0  0  0  0
    9.3762   11.3902   24.0180 C   0  0  0  0  0  0  0  0  0  0  0  0
    7.4465   11.6408   25.0295 C   0  0  0  0  0  0  0  0  0  0  0  0
   10.7229   13.3708   23.2173 C   0  0  0  0  0  0  0  0  0  0  0  0
   14.3986   15.7843   18.6044 C   0  0  0  0  0  0  0  0  0  0  0  0
   12.9817   16.2259   18.2079 C   0  0  0  0  0  0  0  0  0  0  0  0
   13.3978   16.9299   20.4351 C   0  0  0  0  0  0  0  0  0  0  0  0
   13.4901   14.5580   20.5950 C   0  0  0  0  0  0  0  0  0  0  0  0
   14.3364   15.7614   20.1411 C   0  0  1  0  0  0  0  0  0  0  0  0
   12.2709   16.3652   19.5673 C   0  0  2  0  0  0  0  0  0  0  0  0
   12.0630   14.9480   20.1534 C   0  0  2  0  0  0  0  0  0  0  0  0
   10.7138   11.8886   23.5387 C   0  0  0  0  0  0  0  0  0  0  0  0
   11.0729   14.9265   21.3127 C   0  0  0  0  0  0  0  0  0  0  0  0
    5.1825   14.2235   26.4776 N   0  0  0  0  0  0  0  0  0  0  0  0
    8.5556   12.2658   24.7019 N   0  0  0  0  0  0  0  0  0  0  0  0
   11.0091   13.6170   21.8711 N   0  0  0  0  0  0  0  0  0  0  0  0
   10.4994   14.2463   24.0493 O   0  0  0  0  0  0  0  0  0  0  0  0
    7.3237    9.9984   24.5473 S   0  0  0  0  0  0  0  0  0  0  0  0
    3.6270   11.4380   27.6256 H   0  0  0  0  0  0  0  0  0  0  0  0
    5.4910   10.3542   26.3983 H   0  0  0  0  0  0  0  0  0  0  0  0
    3.4969   13.9348   27.6302 H   0  0  0  0  0  0  0  0  0  0  0  0
    6.8816   14.2815   25.3236 H   0  0  0  0  0  0  0  0  0  0  0  0
    9.3386    9.2749   23.3369 H   0  0  0  0  0  0  0  0  0  0  0  0
   14.6599   14.8096   18.1804 H   0  0  0  0  0  0  0  0  0  0  0  0
   15.1329   16.5183   18.2540 H   0  0  0  0  0  0  0  0  0  0  0  0
   13.0194   17.1903   17.6887 H   0  0  0  0  0  0  0  0  0  0  0  0
   12.4942   15.5028   17.5466 H   0  0  0  0  0  0  0  0  0  0  0  0
   13.1365   17.0192   21.4938 H   0  0  0  0  0  0  0  0  0  0  0  0
   13.7797   17.8907   20.0734 H   0  0  0  0  0  0  0  0  0  0  0  0
   13.8179   13.6245   20.1257 H   0  0  0  0  0  0  0  0  0  0  0  0
   13.5565   14.4324   21.6819 H   0  0  0  0  0  0  0  0  0  0  0  0
   15.3163   15.8110   20.6197 H   0  0  0  0  0  0  0  0  0  0  0  0
   11.3639   16.9718   19.5208 H   0  0  0  0  0  0  0  0  0  0  0  0
   11.7001   14.2574   19.3825 H   0  0  0  0  0  0  0  0  0  0  0  0
   11.4761   11.6876   24.3022 H   0  0  0  0  0  0  0  0  0  0  0  0
   11.0164   11.3337   22.6416 H   0  0  0  0  0  0  0  0  0  0  0  0
   11.4258   15.6416   22.0550 H   0  0  0  0  0  0  0  0  0  0  0  0
   10.1017   15.2206   20.9165 H   0  0  0  0  0  0  0  0  0  0  0  0
   11.1815   12.8160   21.2554 H   0  0  0  0  0  0  0  0  0  0  0  0
  1  2  1  0  0  0  0
  1  3  2  0  0  0  0
  2  6  2  0  0  0  0
  3 19  1  0  0  0  0
  4  6  1  0  0  0  0
  4 19  2  0  0  0  0
  5  7  2  0  0  0  0
  5 23  1  0  0  0  0
  6  8  1  0  0  0  0
  7 17  1  0  0  0  0
  7 20  1  0  0  0  0
  8 20  2  0  0  0  0
  8 23  1  0  0  0  0
  9 17  1  0  0  0  0
  9 21  1  0  0  0  0
  9 22  2  0  0  0  0
 10 11  1  0  0  0  0
 10 14  1  0  0  0  0
 11 15  1  0  0  0  0
 12 14  1  0  0  0  0
 12 15  1  0  0  0  0
 13 14  1  0  0  0  0
 13 16  1  0  0  0  0
 15 16  1  0  0  0  0
 16 18  1  0  0  0  0
 18 21  1  0  0  0  0
  1 24  1  0  0  0  0
  2 25  1  0  0  0  0
  3 26  1  0  0  0  0
  4 27  1  0  0  0  0
  5 28  1  0  0  0  0
 10 29  1  0  0  0  0
 10 30  1  0  0  0  0
 11 31  1  0  0  0  0
 11 32  1  0  0  0  0
 12 33  1  0  0  0  0
 12 34  1  0  0  0  0
 13 35  1  0  0  0  0
 13 36  1  0  0  0  0
 14 37  1  0  0  0  0
 15 38  1  0  0  0  0
 16 39  1  0  0  0  0
 17 40  1  0  0  0  0
 17 41  1  0  0  0  0
 18 42  1  0  0  0  0
 18 43  1  0  0  0  0
 21 44  1  0  0  0  0
M  END
> <Catalog ID>
Z996975574

> <PlateID>
1041831-R-29

> <Well>
C09

> <MW (desalted)>
327.444

> <ClogP>
2.647

> <HBD>
1

> <TPSA>
54.880

> <RotBonds>
5

> <ROCS_ShapeQuery>
A71EV2A-x0451_0A_A71EV2A-x0310_0A_A71EV2A-x0416_0A_peptide

> <ROCS_TanimotoCombo>
0.527 

> <ROCS_ShapeTanimoto>
0.323 

> <ROCS_ColorTanimoto>
0.204 

> <ROCS_RefTversky>
0.291 

> <ROCS_RefColorTversky>
0.243 

> <ROCS_RefTverskyCombo>
0.534 

> <ROCS_FitTversky>
1.509 

> <ROCS_FitColorTversky>
0.561 

> <ROCS_FitTverskyCombo>
2.071 

> <ROCS_ColorScore>
-7.457

> <ROCS_Overlap>
2024.138

> <ROCS_Rank>
252                 

$$$$
untitled-dbase-2812_6975
  -OEChem-11132311063D

 47 50  0     1  0  0  0  0  0999 V2000
    8.1256    9.8318   23.6451 C   0  0  0  0  0  0  0  0  0  0  0  0
    9.3634   10.3851   23.3172 C   0  0  0  0  0  0  0  0  0  0  0  0
    7.2167   10.5611   24.4116 C   0  0  0  0  0  0  0  0  0  0  0  0
    8.7833   12.3970   24.5227 C   0  0  0  0  0  0  0  0  0  0  0  0
    5.3841   13.1168   27.1490 C   0  0  0  0  0  0  0  0  0  0  0  0
    6.0939   13.7715   25.2984 C   0  0  0  0  0  0  0  0  0  0  0  0
    9.6923   11.6676   23.7561 C   0  0  0  0  0  0  0  0  0  0  0  0
    7.5456   11.8437   24.8505 C   0  0  0  0  0  0  0  0  0  0  0  0
   10.7008   14.6043   22.6194 C   0  0  0  0  0  0  0  0  0  0  0  0
   14.8116   15.1405   19.6676 C   0  0  0  0  0  0  0  0  0  0  0  0
   14.0092   14.7833   18.4148 C   0  0  0  0  0  0  0  0  0  0  0  0
   13.0136   16.2368   21.1228 C   0  0  0  0  0  0  0  0  0  0  0  0
   11.6819   15.6439   19.0440 C   0  0  0  0  0  0  0  0  0  0  0  0
   11.9252   15.3219   20.5304 C   0  0  0  0  0  0  0  0  0  0  0  0
   14.1943   16.4494   20.1598 C   0  0  2  0  0  0  0  0  0  0  0  0
   12.9880   15.9123   18.2768 C   0  0  1  0  0  0  0  0  0  0  0  0
   11.0248   12.2622   23.4025 C   0  0  0  0  0  0  0  0  0  0  0  0
   10.6313   15.4048   21.3359 C   0  0  0  0  0  0  0  0  0  0  0  0
    5.2851   14.1494   26.2610 N   0  0  0  0  0  0  0  0  0  0  0  0
    6.2034   12.1238   26.7965 N   0  0  0  0  0  0  0  0  0  0  0  0
    6.6442   12.5673   25.6095 N   0  0  0  0  0  0  0  0  0  0  0  0
   13.6693   17.0479   18.9209 N   0  0  0  0  0  0  0  0  0  0  0  0
   10.9134   13.2580   22.3612 N   0  0  0  0  0  0  0  0  0  0  0  0
   10.5840   15.1030   23.7356 O   0  0  0  0  0  0  0  0  0  0  0  0
    7.8695    8.8333   23.3031 H   0  0  0  0  0  0  0  0  0  0  0  0
   10.0654    9.8092   22.7202 H   0  0  0  0  0  0  0  0  0  0  0  0
    6.2553   10.1178   24.6599 H   0  0  0  0  0  0  0  0  0  0  0  0
    9.0450   13.3967   24.8637 H   0  0  0  0  0  0  0  0  0  0  0  0
    4.8408   13.0862   28.0816 H   0  0  0  0  0  0  0  0  0  0  0  0
    6.3046   14.3147   24.3872 H   0  0  0  0  0  0  0  0  0  0  0  0
   14.7761   14.3450   20.4188 H   0  0  0  0  0  0  0  0  0  0  0  0
   15.8624   15.2923   19.3925 H   0  0  0  0  0  0  0  0  0  0  0  0
   14.6811   14.7662   17.5480 H   0  0  0  0  0  0  0  0  0  0  0  0
   13.5430   13.7959   18.4935 H   0  0  0  0  0  0  0  0  0  0  0  0
   12.5807   17.2132   21.3789 H   0  0  0  0  0  0  0  0  0  0  0  0
   13.3781   15.8027   22.0619 H   0  0  0  0  0  0  0  0  0  0  0  0
   11.1454   14.8085   18.5767 H   0  0  0  0  0  0  0  0  0  0  0  0
   11.0279   16.5217   18.9549 H   0  0  0  0  0  0  0  0  0  0  0  0
   12.2802   14.2851   20.5986 H   0  0  0  0  0  0  0  0  0  0  0  0
   14.9443   17.0974   20.6245 H   0  0  0  0  0  0  0  0  0  0  0  0
   12.7676   16.1282   17.2267 H   0  0  0  0  0  0  0  0  0  0  0  0
   11.4793   12.7389   24.2778 H   0  0  0  0  0  0  0  0  0  0  0  0
   11.7196   11.4906   23.0548 H   0  0  0  0  0  0  0  0  0  0  0  0
    9.8055   15.0258   20.7280 H   0  0  0  0  0  0  0  0  0  0  0  0
   10.4281   16.4503   21.5816 H   0  0  0  0  0  0  0  0  0  0  0  0
   13.0111   17.7973   19.1288 H   0  0  0  0  0  0  0  0  0  0  0  0
   10.9947   12.9579   21.3941 H   0  0  0  0  0  0  0  0  0  0  0  0
  1  2  1  0  0  0  0
  1  3  2  0  0  0  0
  2  7  2  0  0  0  0
  3  8  1  0  0  0  0
  4  7  1  0  0  0  0
  4  8  2  0  0  0  0
  5 19  1  0  0  0  0
  5 20  2  0  0  0  0
  6 19  2  0  0  0  0
  6 21  1  0  0  0  0
  7 17  1  0  0  0  0
  8 21  1  0  0  0  0
  9 18  1  0  0  0  0
  9 23  1  0  0  0  0
  9 24  2  0  0  0  0
 10 11  1  0  0  0  0
 10 15  1  0  0  0  0
 11 16  1  0  0  0  0
 12 14  1  0  0  0  0
 12 15  1  0  0  0  0
 13 14  1  0  0  0  0
 13 16  1  0  0  0  0
 14 18  1  0  0  0  0
 15 22  1  0  0  0  0
 16 22  1  0  0  0  0
 17 23  1  0  0  0  0
 20 21  1  0  0  0  0
  1 25  1  0  0  0  0
  2 26  1  0  0  0  0
  3 27  1  0  0  0  0
  4 28  1  0  0  0  0
  5 29  1  0  0  0  0
  6 30  1  0  0  0  0
 10 31  1  0  0  0  0
 10 32  1  0  0  0  0
 11 33  1  0  0  0  0
 11 34  1  0  0  0  0
 12 35  1  0  0  0  0
 12 36  1  0  0  0  0
 13 37  1  0  0  0  0
 13 38  1  0  0  0  0
 14 39  1  0  0  0  0
 15 40  1  0  0  0  0
 16 41  1  0  0  0  0
 17 42  1  0  0  0  0
 17 43  1  0  0  0  0
 18 44  1  0  0  0  0
 18 45  1  0  0  0  0
 22 46  1  0  0  0  0
 23 47  1  0  0  0  0
M  END
> <Catalog ID>
Z1459006885

> <PlateID>
1041831-R-36

> <Well>
B03

> <MW (desalted)>
325.408

> <ClogP>
0.556

> <HBD>
2

> <TPSA>
71.840

> <RotBonds>
5

> <ROCS_ShapeQuery>
A71EV2A-x0451_0A_A71EV2A-x0310_0A_A71EV2A-x0416_0A_peptide

> <ROCS_TanimotoCombo>
0.527 

> <ROCS_ShapeTanimoto>
0.342 

> <ROCS_ColorTanimoto>
0.185 

> <ROCS_RefTversky>
0.306 

> <ROCS_RefColorTversky>
0.231 

> <ROCS_RefTverskyCombo>
0.537 

> <ROCS_FitTversky>
1.515 

> <ROCS_FitColorTversky>
0.483 

> <ROCS_FitTverskyCombo>
1.998 

> <ROCS_ColorScore>
-7.107

> <ROCS_Overlap>
2128.091

> <ROCS_Rank>
253                 

$$$$
untitled-dbase-1212_210
  -OEChem-11132311063D

 52 55  0     1  0  0  0  0  0999 V2000
    6.7578   12.8207   26.1842 C   0  0  0  0  0  0  0  0  0  0  0  0
    6.2711   11.5341   26.3871 C   0  0  0  0  0  0  0  0  0  0  0  0
    7.7847   13.0500   25.2630 C   0  0  0  0  0  0  0  0  0  0  0  0
    6.8027   10.4743   25.6598 C   0  0  0  0  0  0  0  0  0  0  0  0
    9.5938   13.5846   20.9746 C   0  0  0  0  0  0  0  0  0  0  0  0
   11.6974   14.4408   21.7075 C   0  0  0  0  0  0  0  0  0  0  0  0
   10.5004   13.7825   22.0161 C   0  0  0  0  0  0  0  0  0  0  0  0
    8.3601   11.9915   24.5458 C   0  0  0  0  0  0  0  0  0  0  0  0
    7.8382   10.6989   24.7456 C   0  0  0  0  0  0  0  0  0  0  0  0
    9.9195   14.0438   19.7027 C   0  0  0  0  0  0  0  0  0  0  0  0
   12.8664   14.8551   22.3762 C   0  0  0  0  0  0  0  0  0  0  0  0
   11.8960   14.8469   20.3971 C   0  0  0  0  0  0  0  0  0  0  0  0
   10.1964   13.3117   23.3838 C   0  0  0  0  0  0  0  0  0  0  0  0
    9.5567    8.6126   22.4260 C   0  0  0  0  0  0  0  0  0  0  0  0
    9.5186   11.0783   22.6130 C   0  0  0  0  0  0  0  0  0  0  0  0
    9.4934    9.7668   23.3713 C   0  0  1  0  0  0  0  0  0  0  0  0
    8.9369   13.8253   18.5966 C   0  0  0  0  0  0  0  0  0  0  0  0
   13.2068   14.6838   23.7999 C   0  0  0  0  0  0  0  0  0  0  0  0
   13.7695   16.0399   19.2260 C   0  0  0  0  0  0  0  0  0  0  0  0
    9.5215    6.1256   22.1809 C   0  0  0  0  0  0  0  0  0  0  0  0
    9.3298    7.1263   24.4261 C   0  0  0  0  0  0  0  0  0  0  0  0
   11.0618   14.6846   19.3553 N   0  0  0  0  0  0  0  0  0  0  0  0
   13.7353   15.4708   21.5676 N   0  0  0  0  0  0  0  0  0  0  0  0
   13.1184   15.4508   20.3722 N   0  0  0  0  0  0  0  0  0  0  0  0
    9.3875   12.1802   23.5657 N   0  0  0  0  0  0  0  0  0  0  0  0
    9.4727    7.3381   22.9879 N   0  0  0  0  0  0  0  0  0  0  0  0
   10.5919   14.0310   24.3035 O   0  0  0  0  0  0  0  0  0  0  0  0
    9.6778    8.8302   21.2175 O   0  0  0  0  0  0  0  0  0  0  0  0
    8.2625    9.5844   24.0624 O   0  0  0  0  0  0  0  0  0  0  0  0
    6.3302   13.6534   26.7348 H   0  0  0  0  0  0  0  0  0  0  0  0
    5.4758   11.3582   27.1055 H   0  0  0  0  0  0  0  0  0  0  0  0
    8.0801   14.0821   25.1250 H   0  0  0  0  0  0  0  0  0  0  0  0
    6.4122    9.4716   25.8141 H   0  0  0  0  0  0  0  0  0  0  0  0
    8.6485   13.0803   21.1554 H   0  0  0  0  0  0  0  0  0  0  0  0
   10.4438   11.1483   22.0405 H   0  0  0  0  0  0  0  0  0  0  0  0
    8.6792   11.1563   21.9160 H   0  0  0  0  0  0  0  0  0  0  0  0
   10.3356    9.6738   24.0736 H   0  0  0  0  0  0  0  0  0  0  0  0
    8.2475   14.6740   18.5306 H   0  0  0  0  0  0  0  0  0  0  0  0
    9.4469   13.7111   17.6330 H   0  0  0  0  0  0  0  0  0  0  0  0
    8.3543   12.9113   18.7617 H   0  0  0  0  0  0  0  0  0  0  0  0
   13.7417   13.7344   23.9714 H   0  0  0  0  0  0  0  0  0  0  0  0
   13.8484   15.5003   24.1754 H   0  0  0  0  0  0  0  0  0  0  0  0
   12.3102   14.6825   24.4447 H   0  0  0  0  0  0  0  0  0  0  0  0
   13.4746   17.0913   19.1739 H   0  0  0  0  0  0  0  0  0  0  0  0
   14.8537   15.9521   19.3380 H   0  0  0  0  0  0  0  0  0  0  0  0
   13.4588   15.5093   18.3216 H   0  0  0  0  0  0  0  0  0  0  0  0
   10.5657    5.7958   22.0765 H   0  0  0  0  0  0  0  0  0  0  0  0
    8.9346    5.3350   22.6713 H   0  0  0  0  0  0  0  0  0  0  0  0
    9.1007    6.3307   21.1855 H   0  0  0  0  0  0  0  0  0  0  0  0
    8.2620    7.0974   24.6887 H   0  0  0  0  0  0  0  0  0  0  0  0
    9.8017    6.1725   24.7048 H   0  0  0  0  0  0  0  0  0  0  0  0
    9.8184    7.9493   24.9682 H   0  0  0  0  0  0  0  0  0  0  0  0
  1  2  2  0  0  0  0
  1  3  1  0  0  0  0
  2  4  1  0  0  0  0
  3  8  2  0  0  0  0
  4  9  2  0  0  0  0
  5  7  1  0  0  0  0
  5 10  2  0  0  0  0
  6  7  2  0  0  0  0
  6 11  1  0  0  0  0
  6 12  1  0  0  0  0
  7 13  1  0  0  0  0
  8  9  1  0  0  0  0
  8 25  1  0  0  0  0
  9 29  1  0  0  0  0
 10 17  1  0  0  0  0
 10 22  1  0  0  0  0
 11 18  1  0  0  0  0
 11 23  2  0  0  0  0
 12 22  2  0  0  0  0
 12 24  1  0  0  0  0
 13 25  1  0  0  0  0
 13 27  2  0  0  0  0
 14 16  1  0  0  0  0
 14 26  1  0  0  0  0
 14 28  2  0  0  0  0
 15 16  1  0  0  0  0
 15 25  1  0  0  0  0
 16 29  1  0  0  0  0
 19 24  1  0  0  0  0
 20 26  1  0  0  0  0
 21 26  1  0  0  0  0
 23 24  1  0  0  0  0
  1 30  1  0  0  0  0
  2 31  1  0  0  0  0
  3 32  1  0  0  0  0
  4 33  1  0  0  0  0
  5 34  1  0  0  0  0
 15 35  1  0  0  0  0
 15 36  1  0  0  0  0
 16 37  1  0  0  0  0
 17 38  1  0  0  0  0
 17 39  1  0  0  0  0
 17 40  1  0  0  0  0
 18 41  1  0  0  0  0
 18 42  1  0  0  0  0
 18 43  1  0  0  0  0
 19 44  1  0  0  0  0
 19 45  1  0  0  0  0
 19 46  1  0  0  0  0
 20 47  1  0  0  0  0
 20 48  1  0  0  0  0
 20 49  1  0  0  0  0
 21 50  1  0  0  0  0
 21 51  1  0  0  0  0
 21 52  1  0  0  0  0
M  END
> <Catalog ID>
Z240560934

> <PlateID>
1041831-R-16

> <Well>
B03

> <MW (desalted)>
393.439

> <ClogP>
1.313

> <HBD>
0

> <TPSA>
80.560

> <RotBonds>
2

> <ROCS_ShapeQuery>
A71EV2A-x0451_0A_A71EV2A-x0310_0A_A71EV2A-x0416_0A_peptide

> <ROCS_TanimotoCombo>
0.527 

> <ROCS_ShapeTanimoto>
0.384 

> <ROCS_ColorTanimoto>
0.143 

> <ROCS_RefTversky>
0.343 

> <ROCS_RefColorTversky>
0.167 

> <ROCS_RefTverskyCombo>
0.510 

> <ROCS_FitTversky>
1.444 

> <ROCS_FitColorTversky>
0.502 

> <ROCS_FitTverskyCombo>
1.946 

> <ROCS_ColorScore>
-5.100

> <ROCS_Overlap>
2389.070

> <ROCS_Rank>
254                 

$$$$
untitled-dbase-274_1578
  -OEChem-11132311063D

 43 45  0     1  0  0  0  0  0999 V2000
    7.9827   12.7468   25.0193 C   0  0  0  0  0  0  0  0  0  0  0  0
    6.9122   12.5849   25.9063 C   0  0  0  0  0  0  0  0  0  0  0  0
    6.9656   10.1732   25.6146 C   0  0  0  0  0  0  0  0  0  0  0  0
   14.1749   15.4089   20.8346 C   0  0  0  0  0  0  0  0  0  0  0  0
    9.7258   10.0500   23.2731 C   0  0  0  0  0  0  0  0  0  0  0  0
   12.2745   15.6060   19.7461 C   0  0  0  0  0  0  0  0  0  0  0  0
    8.5561   11.6082   24.4191 C   0  0  0  0  0  0  0  0  0  0  0  0
    9.6219   11.4032   23.4987 C   0  0  0  0  0  0  0  0  0  0  0  0
    8.0354   10.3502   24.7299 C   0  0  0  0  0  0  0  0  0  0  0  0
   12.8132   15.0550   20.8831 C   0  0  0  0  0  0  0  0  0  0  0  0
    6.4131   11.3170   26.1979 C   0  0  0  0  0  0  0  0  0  0  0  0
   10.3594   15.1169   24.3832 C   0  0  0  0  0  0  0  0  0  0  0  0
   12.6423   13.7529   23.0326 C   0  0  0  0  0  0  0  0  0  0  0  0
    9.8751   15.9496   25.5236 C   0  0  0  0  0  0  0  0  0  0  0  0
   13.2301   16.9594   17.8663 C   0  0  0  0  0  0  0  0  0  0  0  0
   10.4699   12.4475   22.8889 C   0  0  0  0  0  0  0  0  0  0  0  0
   11.5624   13.0135   23.8254 C   0  0  2  0  0  0  0  0  0  0  0  0
   14.4823   16.1289   19.7524 N   0  0  0  0  0  0  0  0  0  0  0  0
    8.7646    9.4232   24.0199 N   0  0  0  0  0  0  0  0  0  0  0  0
   13.3062   16.2318   19.1103 N   0  0  0  0  0  0  0  0  0  0  0  0
   12.1240   14.3048   21.8646 N   0  0  0  0  0  0  0  0  0  0  0  0
   11.0161   13.9613   24.7661 N   0  0  0  0  0  0  0  0  0  0  0  0
   10.1544   15.4888   23.2338 O   0  0  0  0  0  0  0  0  0  0  0  0
   13.7919   13.8544   23.4528 O   0  0  0  0  0  0  0  0  0  0  0  0
    5.3870   11.1912   27.0509 F   0  0  0  0  0  0  0  0  0  0  0  0
    8.3599   13.7421   24.8018 H   0  0  0  0  0  0  0  0  0  0  0  0
    6.4665   13.4595   26.3727 H   0  0  0  0  0  0  0  0  0  0  0  0
    6.5764    9.1867   25.8426 H   0  0  0  0  0  0  0  0  0  0  0  0
   14.9579   15.1741   21.5416 H   0  0  0  0  0  0  0  0  0  0  0  0
   10.3964    9.4754   22.6493 H   0  0  0  0  0  0  0  0  0  0  0  0
   11.2700   15.6064   19.3443 H   0  0  0  0  0  0  0  0  0  0  0  0
   10.6232   16.6890   25.8518 H   0  0  0  0  0  0  0  0  0  0  0  0
    8.9794   16.5368   25.2649 H   0  0  0  0  0  0  0  0  0  0  0  0
    9.6021   15.3905   26.4329 H   0  0  0  0  0  0  0  0  0  0  0  0
   13.0050   18.0035   18.0994 H   0  0  0  0  0  0  0  0  0  0  0  0
   14.1858   16.8826   17.3404 H   0  0  0  0  0  0  0  0  0  0  0  0
   12.4425   16.5274   17.2426 H   0  0  0  0  0  0  0  0  0  0  0  0
    9.8361   13.2883   22.5407 H   0  0  0  0  0  0  0  0  0  0  0  0
   10.9548   12.0792   21.9614 H   0  0  0  0  0  0  0  0  0  0  0  0
   12.0142   12.2148   24.4243 H   0  0  0  0  0  0  0  0  0  0  0  0
    8.6122    8.4245   24.0466 H   0  0  0  0  0  0  0  0  0  0  0  0
   11.1306   14.1734   21.6875 H   0  0  0  0  0  0  0  0  0  0  0  0
   11.1188   13.7703   25.7595 H   0  0  0  0  0  0  0  0  0  0  0  0
  1  2  1  0  0  0  0
  1  7  2  0  0  0  0
  2 11  2  0  0  0  0
  3  9  2  0  0  0  0
  3 11  1  0  0  0  0
  4 10  1  0  0  0  0
  4 18  2  0  0  0  0
  5  8  2  0  0  0  0
  5 19  1  0  0  0  0
  6 10  2  0  0  0  0
  6 20  1  0  0  0  0
  7  8  1  0  0  0  0
  7  9  1  0  0  0  0
  8 16  1  0  0  0  0
  9 19  1  0  0  0  0
 10 21  1  0  0  0  0
 11 25  1  0  0  0  0
 12 14  1  0  0  0  0
 12 22  1  0  0  0  0
 12 23  2  0  0  0  0
 13 17  1  0  0  0  0
 13 21  1  0  0  0  0
 13 24  2  0  0  0  0
 15 20  1  0  0  0  0
 16 17  1  0  0  0  0
 17 22  1  0  0  0  0
 18 20  1  0  0  0  0
  1 26  1  0  0  0  0
  2 27  1  0  0  0  0
  3 28  1  0  0  0  0
  4 29  1  0  0  0  0
  5 30  1  0  0  0  0
  6 31  1  0  0  0  0
 14 32  1  0  0  0  0
 14 33  1  0  0  0  0
 14 34  1  0  0  0  0
 15 35  1  0  0  0  0
 15 36  1  0  0  0  0
 15 37  1  0  0  0  0
 16 38  1  0  0  0  0
 16 39  1  0  0  0  0
 17 40  1  0  0  0  0
 19 41  1  0  0  0  0
 21 42  1  0  0  0  0
 22 43  1  0  0  0  0
M  END
> <Catalog ID>
Z1343740231

> <PlateID>
1041831-R-04

> <Well>
D05

> <MW (desalted)>
343.356

> <ClogP>
0.760

> <HBD>
3

> <TPSA>
91.810

> <RotBonds>
5

> <ROCS_ShapeQuery>
A71EV2A-x0451_0A_A71EV2A-x0310_0A_A71EV2A-x0416_0A_peptide

> <ROCS_TanimotoCombo>
0.527 

> <ROCS_ShapeTanimoto>
0.366 

> <ROCS_ColorTanimoto>
0.161 

> <ROCS_RefTversky>
0.324 

> <ROCS_RefColorTversky>
0.184 

> <ROCS_RefTverskyCombo>
0.508 

> <ROCS_FitTversky>
1.555 

> <ROCS_FitColorTversky>
0.555 

> <ROCS_FitTverskyCombo>
2.110 

> <ROCS_ColorScore>
-5.636

> <ROCS_Overlap>
2251.009

> <ROCS_Rank>
255                 

$$$$
untitled-dbase-2709_169
  -OEChem-11132311063D

 50 54  0     1  0  0  0  0  0999 V2000
   14.9487   16.2735   19.3322 C   0  0  0  0  0  0  0  0  0  0  0  0
   14.2716   16.9814   18.3453 C   0  0  0  0  0  0  0  0  0  0  0  0
   14.2349   15.4862   20.2288 C   0  0  0  0  0  0  0  0  0  0  0  0
   12.8914   16.8691   18.2979 C   0  0  0  0  0  0  0  0  0  0  0  0
   12.8563   15.4411   20.0973 C   0  0  0  0  0  0  0  0  0  0  0  0
    8.4462    8.3993   22.3600 C   0  0  0  0  0  0  0  0  0  0  0  0
    9.6675    9.2229   22.8424 C   0  0  0  0  0  0  0  0  0  0  0  0
    7.6540    9.7290   22.2835 C   0  0  0  0  0  0  0  0  0  0  0  0
   10.0954   14.4828   22.3129 C   0  0  0  0  0  0  0  0  0  0  0  0
   12.2496   13.4894   23.1527 C   0  0  0  0  0  0  0  0  0  0  0  0
    7.8825   12.5691   25.4802 C   0  0  0  0  0  0  0  0  0  0  0  0
   10.7009   14.5633   20.9113 C   0  0  0  0  0  0  0  0  0  0  0  0
   12.8273   13.5840   21.7383 C   0  0  0  0  0  0  0  0  0  0  0  0
    6.5683   11.8692   25.1530 C   0  0  0  0  0  0  0  0  0  0  0  0
    8.9610   11.7535   24.7755 C   0  0  2  0  0  0  0  0  0  0  0  0
   10.7242   13.3728   23.1598 C   0  0  0  0  0  0  0  0  0  0  0  0
    9.0035   11.7575   23.2170 C   0  0  2  0  0  0  0  0  0  0  0  0
    8.3021   10.3482   24.7326 C   0  0  2  0  0  0  0  0  0  0  0  0
    8.6684   10.2884   23.2593 C   0  0  0  0  0  0  0  0  0  0  0  0
   12.1637   16.1145   19.1515 N   0  0  0  0  0  0  0  0  0  0  0  0
   12.1633   14.6573   20.9926 N   0  0  0  0  0  0  0  0  0  0  0  0
   10.2998   12.0638   22.7208 N   0  0  0  0  0  0  0  0  0  0  0  0
    6.9047   10.4786   25.0923 O   0  0  0  0  0  0  0  0  0  0  0  0
   16.0306   16.3362   19.4031 H   0  0  0  0  0  0  0  0  0  0  0  0
   14.8071   17.6016   17.6356 H   0  0  0  0  0  0  0  0  0  0  0  0
   14.7553   14.9300   21.0017 H   0  0  0  0  0  0  0  0  0  0  0  0
   12.3163   17.4008   17.5469 H   0  0  0  0  0  0  0  0  0  0  0  0
    8.5746    7.8688   21.4132 H   0  0  0  0  0  0  0  0  0  0  0  0
    8.0616    7.7009   23.1124 H   0  0  0  0  0  0  0  0  0  0  0  0
   10.2623    8.7578   23.6334 H   0  0  0  0  0  0  0  0  0  0  0  0
   10.3341    9.4897   22.0145 H   0  0  0  0  0  0  0  0  0  0  0  0
    7.6847   10.1937   21.2908 H   0  0  0  0  0  0  0  0  0  0  0  0
    6.6122    9.6722   22.6082 H   0  0  0  0  0  0  0  0  0  0  0  0
   10.2462   15.4451   22.8200 H   0  0  0  0  0  0  0  0  0  0  0  0
    9.0098   14.3435   22.2375 H   0  0  0  0  0  0  0  0  0  0  0  0
   12.7043   12.6408   23.6788 H   0  0  0  0  0  0  0  0  0  0  0  0
   12.5400   14.3878   23.7136 H   0  0  0  0  0  0  0  0  0  0  0  0
    7.8788   13.6206   25.1792 H   0  0  0  0  0  0  0  0  0  0  0  0
    8.0531   12.5283   26.5629 H   0  0  0  0  0  0  0  0  0  0  0  0
   10.4118   13.6871   20.3168 H   0  0  0  0  0  0  0  0  0  0  0  0
   10.2922   15.4486   20.4077 H   0  0  0  0  0  0  0  0  0  0  0  0
   13.9033   13.7852   21.8161 H   0  0  0  0  0  0  0  0  0  0  0  0
   12.7103   12.6283   21.2115 H   0  0  0  0  0  0  0  0  0  0  0  0
    5.8058   12.0380   25.9179 H   0  0  0  0  0  0  0  0  0  0  0  0
    6.1769   12.1735   24.1771 H   0  0  0  0  0  0  0  0  0  0  0  0
    9.9318   11.7784   25.2851 H   0  0  0  0  0  0  0  0  0  0  0  0
   10.3756   13.5017   24.2094 H   0  0  0  0  0  0  0  0  0  0  0  0
    8.1792   12.3857   22.7548 H   0  0  0  0  0  0  0  0  0  0  0  0
    8.7884    9.6030   25.3708 H   0  0  0  0  0  0  0  0  0  0  0  0
   10.9611   11.3653   23.0582 H   0  0  0  0  0  0  0  0  0  0  0  0
  1  2  2  0  0  0  0
  1  3  1  0  0  0  0
  2  4  1  0  0  0  0
  3  5  2  0  0  0  0
  4 20  2  0  0  0  0
  5 20  1  0  0  0  0
  5 21  1  0  0  0  0
  6  7  1  0  0  0  0
  6  8  1  0  0  0  0
  7 19  1  0  0  0  0
  8 19  1  0  0  0  0
  9 12  1  0  0  0  0
  9 16  1  0  0  0  0
 10 13  1  0  0  0  0
 10 16  1  0  0  0  0
 11 14  1  0  0  0  0
 11 15  1  0  0  0  0
 12 21  1  0  0  0  0
 13 21  1  0  0  0  0
 14 23  1  0  0  0  0
 15 17  1  0  0  0  0
 15 18  1  0  0  0  0
 16 22  1  0  0  0  0
 17 19  1  0  0  0  0
 17 22  1  0  0  0  0
 18 19  1  0  0  0  0
 18 23  1  0  0  0  0
  1 24  1  0  0  0  0
  2 25  1  0  0  0  0
  3 26  1  0  0  0  0
  4 27  1  0  0  0  0
  6 28  1  0  0  0  0
  6 29  1  0  0  0  0
  7 30  1  0  0  0  0
  7 31  1  0  0  0  0
  8 32  1  0  0  0  0
  8 33  1  0  0  0  0
  9 34  1  0  0  0  0
  9 35  1  0  0  0  0
 10 36  1  0  0  0  0
 10 37  1  0  0  0  0
 11 38  1  0  0  0  0
 11 39  1  0  0  0  0
 12 40  1  0  0  0  0
 12 41  1  0  0  0  0
 13 42  1  0  0  0  0
 13 43  1  0  0  0  0
 14 44  1  0  0  0  0
 14 45  1  0  0  0  0
 15 46  1  0  0  0  0
 16 47  1  0  0  0  0
 17 48  1  0  0  0  0
 18 49  1  0  0  0  0
 22 50  1  0  0  0  0
M  END
> <Catalog ID>
Z1638210874

> <PlateID>
1041831-R-34

> <Well>
G10

> <MW (desalted)>
313.437

> <ClogP>
1.621

> <HBD>
1

> <TPSA>
37.390

> <RotBonds>
3

> <ROCS_ShapeQuery>
A71EV2A-x0451_0A_A71EV2A-x0310_0A_A71EV2A-x0416_0A_peptide

> <ROCS_TanimotoCombo>
0.527 

> <ROCS_ShapeTanimoto>
0.344 

> <ROCS_ColorTanimoto>
0.183 

> <ROCS_RefTversky>
0.306 

> <ROCS_RefColorTversky>
0.222 

> <ROCS_RefTverskyCombo>
0.528 

> <ROCS_FitTversky>
1.562 

> <ROCS_FitColorTversky>
0.508 

> <ROCS_FitTverskyCombo>
2.070 

> <ROCS_ColorScore>
-6.826

> <ROCS_Overlap>
2126.457

> <ROCS_Rank>
256                 

$$$$
untitled-dbase-1100_371
  -OEChem-11132311063D

 47 50  0     1  0  0  0  0  0999 V2000
   13.8873   13.2507   28.0149 C   0  0  0  0  0  0  0  0  0  0  0  0
    6.2925   11.1562   26.0438 C   0  0  0  0  0  0  0  0  0  0  0  0
   14.0115   11.9917   28.5991 C   0  0  0  0  0  0  0  0  0  0  0  0
    6.9351   12.3821   26.2655 C   0  0  0  0  0  0  0  0  0  0  0  0
   13.6314   13.3827   26.6452 C   0  0  0  0  0  0  0  0  0  0  0  0
    6.7899   10.2595   25.0988 C   0  0  0  0  0  0  0  0  0  0  0  0
   13.8844   10.8274   27.8363 C   0  0  0  0  0  0  0  0  0  0  0  0
    8.0830   12.7292   25.5460 C   0  0  0  0  0  0  0  0  0  0  0  0
   13.2274   10.6249   24.2805 C   0  0  0  0  0  0  0  0  0  0  0  0
   13.4994   12.2230   25.8558 C   0  0  0  0  0  0  0  0  0  0  0  0
    7.9286   10.6113   24.3899 C   0  0  0  0  0  0  0  0  0  0  0  0
   13.2462   11.9867   24.4756 C   0  0  0  0  0  0  0  0  0  0  0  0
   13.6287   10.9746   26.4683 C   0  0  0  0  0  0  0  0  0  0  0  0
    8.5712   11.8317   24.6075 C   0  0  0  0  0  0  0  0  0  0  0  0
   10.5688   13.0202   23.7082 C   0  0  0  0  0  0  0  0  0  0  0  0
   11.4787   15.2621   22.0492 C   0  0  0  0  0  0  0  0  0  0  0  0
    8.6197    9.8025   23.3416 C   0  0  0  0  0  0  0  0  0  0  0  0
    9.7872   10.7135   22.9472 C   0  0  0  0  0  0  0  0  0  0  0  0
   11.1636   16.1593   20.8986 C   0  0  0  0  0  0  0  0  0  0  0  0
   13.0364   13.0328   23.4084 C   0  0  0  0  0  0  0  0  0  0  0  0
   11.6933   12.8747   22.7101 C   0  0  2  0  0  0  0  0  0  0  0  0
   13.4587   10.0230   25.4882 N   0  0  0  0  0  0  0  0  0  0  0  0
    9.6959   11.9422   23.7636 N   0  0  0  0  0  0  0  0  0  0  0  0
   11.4243   13.9072   21.7523 N   0  0  0  0  0  0  0  0  0  0  0  0
   10.4949   14.0446   24.3871 O   0  0  0  0  0  0  0  0  0  0  0  0
   11.7557   15.7509   23.1383 O   0  0  0  0  0  0  0  0  0  0  0  0
   13.9896   14.1415   28.6289 H   0  0  0  0  0  0  0  0  0  0  0  0
    5.4017   10.9043   26.6125 H   0  0  0  0  0  0  0  0  0  0  0  0
   14.2104   11.9125   29.6648 H   0  0  0  0  0  0  0  0  0  0  0  0
    6.5353   13.0706   27.0054 H   0  0  0  0  0  0  0  0  0  0  0  0
   13.5364   14.3712   26.2049 H   0  0  0  0  0  0  0  0  0  0  0  0
    6.2939    9.3102   24.9263 H   0  0  0  0  0  0  0  0  0  0  0  0
   13.9823    9.8478   28.2917 H   0  0  0  0  0  0  0  0  0  0  0  0
    8.5534   13.6845   25.7432 H   0  0  0  0  0  0  0  0  0  0  0  0
   13.0687   10.0296   23.3918 H   0  0  0  0  0  0  0  0  0  0  0  0
    8.9791    8.8543   23.7528 H   0  0  0  0  0  0  0  0  0  0  0  0
    7.9572    9.6181   22.4905 H   0  0  0  0  0  0  0  0  0  0  0  0
   10.7524   10.2302   23.1350 H   0  0  0  0  0  0  0  0  0  0  0  0
    9.7428   10.9842   21.8865 H   0  0  0  0  0  0  0  0  0  0  0  0
   10.0894   16.3953   20.8312 H   0  0  0  0  0  0  0  0  0  0  0  0
   11.6717   17.1342   20.9741 H   0  0  0  0  0  0  0  0  0  0  0  0
   11.4368   15.7666   19.9061 H   0  0  0  0  0  0  0  0  0  0  0  0
   13.1097   14.0250   23.8738 H   0  0  0  0  0  0  0  0  0  0  0  0
   13.8616   12.9913   22.6843 H   0  0  0  0  0  0  0  0  0  0  0  0
   11.5810   11.9094   22.2176 H   0  0  0  0  0  0  0  0  0  0  0  0
   13.4992    9.0244   25.6392 H   0  0  0  0  0  0  0  0  0  0  0  0
   11.1796   13.6309   20.8004 H   0  0  0  0  0  0  0  0  0  0  0  0
  1  3  2  0  0  0  0
  1  5  1  0  0  0  0
  2  4  2  0  0  0  0
  2  6  1  0  0  0  0
  3  7  1  0  0  0  0
  4  8  1  0  0  0  0
  5 10  2  0  0  0  0
  6 11  2  0  0  0  0
  7 13  2  0  0  0  0
  8 14  2  0  0  0  0
  9 12  2  0  0  0  0
  9 22  1  0  0  0  0
 10 12  1  0  0  0  0
 10 13  1  0  0  0  0
 11 14  1  0  0  0  0
 11 17  1  0  0  0  0
 12 20  1  0  0  0  0
 13 22  1  0  0  0  0
 14 23  1  0  0  0  0
 15 21  1  0  0  0  0
 15 23  1  0  0  0  0
 15 25  2  0  0  0  0
 16 19  1  0  0  0  0
 16 24  1  0  0  0  0
 16 26  2  0  0  0  0
 17 18  1  0  0  0  0
 18 23  1  0  0  0  0
 20 21  1  0  0  0  0
 21 24  1  0  0  0  0
  1 27  1  0  0  0  0
  2 28  1  0  0  0  0
  3 29  1  0  0  0  0
  4 30  1  0  0  0  0
  5 31  1  0  0  0  0
  6 32  1  0  0  0  0
  7 33  1  0  0  0  0
  8 34  1  0  0  0  0
  9 35  1  0  0  0  0
 17 36  1  0  0  0  0
 17 37  1  0  0  0  0
 18 38  1  0  0  0  0
 18 39  1  0  0  0  0
 19 40  1  0  0  0  0
 19 41  1  0  0  0  0
 19 42  1  0  0  0  0
 20 43  1  0  0  0  0
 20 44  1  0  0  0  0
 21 45  1  0  0  0  0
 22 46  1  0  0  0  0
 24 47  1  0  0  0  0
M  END
> <Catalog ID>
Z32328539

> <PlateID>
1041831-R-14

> <Well>
F11

> <MW (desalted)>
347.410

> <ClogP>
2.388

> <HBD>
2

> <TPSA>
65.200

> <RotBonds>
4

> <ROCS_ShapeQuery>
A71EV2A-x0451_0A_A71EV2A-x0310_0A_A71EV2A-x0416_0A_peptide

> <ROCS_TanimotoCombo>
0.526 

> <ROCS_ShapeTanimoto>
0.354 

> <ROCS_ColorTanimoto>
0.172 

> <ROCS_RefTversky>
0.318 

> <ROCS_RefColorTversky>
0.191 

> <ROCS_RefTverskyCombo>
0.509 

> <ROCS_FitTversky>
1.472 

> <ROCS_FitColorTversky>
0.632 

> <ROCS_FitTverskyCombo>
2.104 

> <ROCS_ColorScore>
-5.827

> <ROCS_Overlap>
2213.162

> <ROCS_Rank>
257                 

$$$$
untitled-dbase-1350_333
  -OEChem-11132311063D

 44 46  0     1  0  0  0  0  0999 V2000
   13.2405   16.4751   18.2422 C   0  0  0  0  0  0  0  0  0  0  0  0
   13.9303   17.0580   19.3052 C   0  0  0  0  0  0  0  0  0  0  0  0
   12.3738   15.4073   18.4750 C   0  0  0  0  0  0  0  0  0  0  0  0
   13.7534   16.5730   20.6011 C   0  0  0  0  0  0  0  0  0  0  0  0
   12.1969   14.9223   19.7708 C   0  0  0  0  0  0  0  0  0  0  0  0
   12.8867   15.5051   20.8339 C   0  0  0  0  0  0  0  0  0  0  0  0
   12.6985   14.9886   22.2140 C   0  0  0  0  0  0  0  0  0  0  0  0
   10.6250   13.1928   23.8993 C   0  0  0  0  0  0  0  0  0  0  0  0
    7.0746   12.0101   26.6691 C   0  0  0  0  0  0  0  0  0  0  0  0
    6.2123   10.9273   26.0308 C   0  0  0  0  0  0  0  0  0  0  0  0
    8.4924   11.9951   26.1050 C   0  0  0  0  0  0  0  0  0  0  0  0
    6.1852   11.0632   24.5102 C   0  0  0  0  0  0  0  0  0  0  0  0
   10.4189   10.6673   23.9356 C   0  0  0  0  0  0  0  0  0  0  0  0
    9.4075    9.7004   23.3382 C   0  0  0  0  0  0  0  0  0  0  0  0
    8.4941   12.1246   24.5707 C   0  0  2  0  0  0  0  0  0  0  0  0
    7.5873   11.0837   23.8959 C   0  0  1  0  0  0  0  0  0  0  0  0
   12.0896   13.0141   23.5876 C   0  0  0  0  0  0  0  0  0  0  0  0
    9.8716   12.0255   24.0536 N   0  0  0  0  0  0  0  0  0  0  0  0
   12.3310   13.6494   22.3279 N   0  0  0  0  0  0  0  0  0  0  0  0
   12.8509   15.7500   23.1656 O   0  0  0  0  0  0  0  0  0  0  0  0
   10.1627   14.3322   23.9990 O   0  0  0  0  0  0  0  0  0  0  0  0
    8.1602    9.7780   24.0258 O   0  0  0  0  0  0  0  0  0  0  0  0
   13.3783   16.8528   17.2333 H   0  0  0  0  0  0  0  0  0  0  0  0
   14.6052   17.8893   19.1238 H   0  0  0  0  0  0  0  0  0  0  0  0
   11.8365   14.9536   17.6473 H   0  0  0  0  0  0  0  0  0  0  0  0
   14.2959   17.0347   21.4221 H   0  0  0  0  0  0  0  0  0  0  0  0
   11.5191   14.0896   19.9404 H   0  0  0  0  0  0  0  0  0  0  0  0
    6.6203   12.9932   26.4946 H   0  0  0  0  0  0  0  0  0  0  0  0
    7.1089   11.8617   27.7543 H   0  0  0  0  0  0  0  0  0  0  0  0
    6.5974    9.9384   26.3083 H   0  0  0  0  0  0  0  0  0  0  0  0
    5.1910   10.9922   26.4227 H   0  0  0  0  0  0  0  0  0  0  0  0
    9.0647   12.8176   26.5503 H   0  0  0  0  0  0  0  0  0  0  0  0
    8.9795   11.0626   26.4141 H   0  0  0  0  0  0  0  0  0  0  0  0
    5.6092   10.2282   24.0939 H   0  0  0  0  0  0  0  0  0  0  0  0
    5.6608   11.9890   24.2436 H   0  0  0  0  0  0  0  0  0  0  0  0
   10.6829   10.3527   24.9517 H   0  0  0  0  0  0  0  0  0  0  0  0
   11.3339   10.6500   23.3400 H   0  0  0  0  0  0  0  0  0  0  0  0
    9.2528    9.8956   22.2703 H   0  0  0  0  0  0  0  0  0  0  0  0
    9.7759    8.6740   23.4333 H   0  0  0  0  0  0  0  0  0  0  0  0
    8.1027   13.1205   24.3256 H   0  0  0  0  0  0  0  0  0  0  0  0
    7.4830   11.3118   22.8266 H   0  0  0  0  0  0  0  0  0  0  0  0
   12.2979   11.9495   23.5382 H   0  0  0  0  0  0  0  0  0  0  0  0
   12.6645   13.4815   24.3814 H   0  0  0  0  0  0  0  0  0  0  0  0
   12.1644   13.1041   21.4807 H   0  0  0  0  0  0  0  0  0  0  0  0
  1  2  2  0  0  0  0
  1  3  1  0  0  0  0
  2  4  1  0  0  0  0
  3  5  2  0  0  0  0
  4  6  2  0  0  0  0
  5  6  1  0  0  0  0
  6  7  1  0  0  0  0
  7 19  1  0  0  0  0
  7 20  2  0  0  0  0
  8 17  1  0  0  0  0
  8 18  1  0  0  0  0
  8 21  2  0  0  0  0
  9 10  1  0  0  0  0
  9 11  1  0  0  0  0
 10 12  1  0  0  0  0
 11 15  1  0  0  0  0
 12 16  1  0  0  0  0
 13 14  1  0  0  0  0
 13 18  1  0  0  0  0
 14 22  1  0  0  0  0
 15 16  1  0  0  0  0
 15 18  1  0  0  0  0
 16 22  1  0  0  0  0
 17 19  1  0  0  0  0
  1 23  1  0  0  0  0
  2 24  1  0  0  0  0
  3 25  1  0  0  0  0
  4 26  1  0  0  0  0
  5 27  1  0  0  0  0
  9 28  1  0  0  0  0
  9 29  1  0  0  0  0
 10 30  1  0  0  0  0
 10 31  1  0  0  0  0
 11 32  1  0  0  0  0
 11 33  1  0  0  0  0
 12 34  1  0  0  0  0
 12 35  1  0  0  0  0
 13 36  1  0  0  0  0
 13 37  1  0  0  0  0
 14 38  1  0  0  0  0
 14 39  1  0  0  0  0
 15 40  1  0  0  0  0
 16 41  1  0  0  0  0
 17 42  1  0  0  0  0
 17 43  1  0  0  0  0
 19 44  1  0  0  0  0
M  END
> <Catalog ID>
Z886909626

> <PlateID>
1041831-R-17

> <Well>
G11

> <MW (desalted)>
302.368

> <ClogP>
1.988

> <HBD>
1

> <TPSA>
58.640

> <RotBonds>
3

> <ROCS_ShapeQuery>
A71EV2A-x0451_0A_A71EV2A-x0310_0A_A71EV2A-x0416_0A_peptide

> <ROCS_TanimotoCombo>
0.526 

> <ROCS_ShapeTanimoto>
0.325 

> <ROCS_ColorTanimoto>
0.201 

> <ROCS_RefTversky>
0.291 

> <ROCS_RefColorTversky>
0.213 

> <ROCS_RefTverskyCombo>
0.504 

> <ROCS_FitTversky>
1.561 

> <ROCS_FitColorTversky>
0.786 

> <ROCS_FitTverskyCombo>
2.347 

> <ROCS_ColorScore>
-6.486

> <ROCS_Overlap>
2019.364

> <ROCS_Rank>
258                 

$$$$
untitled-dbase-3292_4742
  -OEChem-11132311063D

 52 55  0     1  0  0  0  0  0999 V2000
   13.9876   16.1193   18.9193 C   0  0  0  0  0  0  0  0  0  0  0  0
    4.3452   10.6461   26.0706 C   0  0  0  0  0  0  0  0  0  0  0  0
   13.8757   15.9688   20.3015 C   0  0  0  0  0  0  0  0  0  0  0  0
   12.9169   15.7806   18.0919 C   0  0  0  0  0  0  0  0  0  0  0  0
    5.1908   10.6292   24.9358 C   0  0  0  0  0  0  0  0  0  0  0  0
   11.6224   15.1407   20.0288 C   0  0  0  0  0  0  0  0  0  0  0  0
    8.5518   11.9951   24.4751 C   0  0  0  0  0  0  0  0  0  0  0  0
    5.1647   10.8595   27.1545 C   0  0  0  0  0  0  0  0  0  0  0  0
   12.6931   15.4794   20.8562 C   0  0  0  0  0  0  0  0  0  0  0  0
   11.7344   15.2912   18.6466 C   0  0  0  0  0  0  0  0  0  0  0  0
    7.6801   10.8939   24.5722 C   0  0  0  0  0  0  0  0  0  0  0  0
    6.4667   10.8338   25.4071 C   0  0  0  0  0  0  0  0  0  0  0  0
    9.5220   11.5881   23.5921 C   0  0  0  0  0  0  0  0  0  0  0  0
   11.0931   13.5567   23.4100 C   0  0  0  0  0  0  0  0  0  0  0  0
   15.2246   11.5323   24.5104 C   0  0  0  0  0  0  0  0  0  0  0  0
   15.5531   12.1025   23.1532 C   0  0  0  0  0  0  0  0  0  0  0  0
   14.9304   12.7815   25.3094 C   0  0  0  0  0  0  0  0  0  0  0  0
   14.6134   13.2947   23.0531 C   0  0  1  0  0  0  0  0  0  0  0  0
    9.8978    9.4566   22.3119 C   0  0  0  0  0  0  0  0  0  0  0  0
   12.5738   15.3180   22.3441 C   0  0  0  0  0  0  0  0  0  0  0  0
   13.2886   12.9519   22.3857 C   0  0  0  0  0  0  0  0  0  0  0  0
    8.0626    9.8648   23.8115 N   0  0  0  0  0  0  0  0  0  0  0  0
    9.1854   10.3176   23.2279 N   0  0  0  0  0  0  0  0  0  0  0  0
   10.6663   12.2632   23.0991 N   0  0  0  0  0  0  0  0  0  0  0  0
   12.2990   13.9231   22.7266 N   0  0  0  0  0  0  0  0  0  0  0  0
   10.4972   14.3200   24.1731 O   0  0  0  0  0  0  0  0  0  0  0  0
    6.4594   10.9751   26.7585 O   0  0  0  0  0  0  0  0  0  0  0  0
   14.3437   13.7220   24.4000 O   0  0  0  0  0  0  0  0  0  0  0  0
   10.7063   14.9656   17.8522 F   0  0  0  0  0  0  0  0  0  0  0  0
   14.9082   16.5008   18.4873 H   0  0  0  0  0  0  0  0  0  0  0  0
    3.2726   10.5188   26.0954 H   0  0  0  0  0  0  0  0  0  0  0  0
   14.7153   16.2351   20.9383 H   0  0  0  0  0  0  0  0  0  0  0  0
   13.0044   15.8973   17.0159 H   0  0  0  0  0  0  0  0  0  0  0  0
    4.8966   10.4857   23.9053 H   0  0  0  0  0  0  0  0  0  0  0  0
   10.6970   14.7593   20.4517 H   0  0  0  0  0  0  0  0  0  0  0  0
    8.4884   12.9517   24.9746 H   0  0  0  0  0  0  0  0  0  0  0  0
    4.9911   10.9503   28.2166 H   0  0  0  0  0  0  0  0  0  0  0  0
   14.3919   10.8243   24.5006 H   0  0  0  0  0  0  0  0  0  0  0  0
   16.1036   11.0220   24.9217 H   0  0  0  0  0  0  0  0  0  0  0  0
   16.6092   12.3850   23.0446 H   0  0  0  0  0  0  0  0  0  0  0  0
   15.3263   11.3562   22.3758 H   0  0  0  0  0  0  0  0  0  0  0  0
   14.2004   12.5835   26.1003 H   0  0  0  0  0  0  0  0  0  0  0  0
   15.8274   13.2135   25.7599 H   0  0  0  0  0  0  0  0  0  0  0  0
   15.0859   14.1217   22.5315 H   0  0  0  0  0  0  0  0  0  0  0  0
   10.6263    8.8802   22.8882 H   0  0  0  0  0  0  0  0  0  0  0  0
    9.1892    8.7886   21.8142 H   0  0  0  0  0  0  0  0  0  0  0  0
   10.4023   10.0686   21.5590 H   0  0  0  0  0  0  0  0  0  0  0  0
   13.4993   15.6280   22.8416 H   0  0  0  0  0  0  0  0  0  0  0  0
   11.7659   15.9400   22.7434 H   0  0  0  0  0  0  0  0  0  0  0  0
   13.4513   12.9433   21.3060 H   0  0  0  0  0  0  0  0  0  0  0  0
   12.9836   11.9641   22.7375 H   0  0  0  0  0  0  0  0  0  0  0  0
   11.2435   11.7464   22.4434 H   0  0  0  0  0  0  0  0  0  0  0  0
  1  3  1  0  0  0  0
  1  4  2  0  0  0  0
  2  5  1  0  0  0  0
  2  8  2  0  0  0  0
  3  9  2  0  0  0  0
  4 10  1  0  0  0  0
  5 12  2  0  0  0  0
  6  9  1  0  0  0  0
  6 10  2  0  0  0  0
  7 11  1  0  0  0  0
  7 13  2  0  0  0  0
  8 27  1  0  0  0  0
  9 20  1  0  0  0  0
 10 29  1  0  0  0  0
 11 12  1  0  0  0  0
 11 22  2  0  0  0  0
 12 27  1  0  0  0  0
 13 23  1  0  0  0  0
 13 24  1  0  0  0  0
 14 24  1  0  0  0  0
 14 25  1  0  0  0  0
 14 26  2  0  0  0  0
 15 16  1  0  0  0  0
 15 17  1  0  0  0  0
 16 18  1  0  0  0  0
 17 28  1  0  0  0  0
 18 21  1  0  0  0  0
 18 28  1  0  0  0  0
 19 23  1  0  0  0  0
 20 25  1  0  0  0  0
 21 25  1  0  0  0  0
 22 23  1  0  0  0  0
  1 30  1  0  0  0  0
  2 31  1  0  0  0  0
  3 32  1  0  0  0  0
  4 33  1  0  0  0  0
  5 34  1  0  0  0  0
  6 35  1  0  0  0  0
  7 36  1  0  0  0  0
  8 37  1  0  0  0  0
 15 38  1  0  0  0  0
 15 39  1  0  0  0  0
 16 40  1  0  0  0  0
 16 41  1  0  0  0  0
 17 42  1  0  0  0  0
 17 43  1  0  0  0  0
 18 44  1  0  0  0  0
 19 45  1  0  0  0  0
 19 46  1  0  0  0  0
 19 47  1  0  0  0  0
 20 48  1  0  0  0  0
 20 49  1  0  0  0  0
 21 50  1  0  0  0  0
 21 51  1  0  0  0  0
 24 52  1  0  0  0  0
M  END
> <Catalog ID>
Z1893068456

> <PlateID>
1041831-R-42

> <Well>
B03

> <MW (desalted)>
398.431

> <ClogP>
3.510

> <HBD>
1

> <TPSA>
72.530

> <RotBonds>
6

> <ROCS_ShapeQuery>
A71EV2A-x0451_0A_A71EV2A-x0310_0A_A71EV2A-x0416_0A_peptide

> <ROCS_TanimotoCombo>
0.526 

> <ROCS_ShapeTanimoto>
0.350 

> <ROCS_ColorTanimoto>
0.176 

> <ROCS_RefTversky>
0.320 

> <ROCS_RefColorTversky>
0.199 

> <ROCS_RefTverskyCombo>
0.519 

> <ROCS_FitTversky>
1.369 

> <ROCS_FitColorTversky>
0.600 

> <ROCS_FitTverskyCombo>
1.969 

> <ROCS_ColorScore>
-6.083

> <ROCS_Overlap>
2227.995

> <ROCS_Rank>
259                 

$$$$
untitled-dbase-3103_372
  -OEChem-11132311063D

 49 51  0     1  0  0  0  0  0999 V2000
   12.2986   15.9823   19.7634 C   0  0  0  0  0  0  0  0  0  0  0  0
   13.4665   15.5541   20.3945 C   0  0  0  0  0  0  0  0  0  0  0  0
   11.0624   15.4777   20.1672 C   0  0  0  0  0  0  0  0  0  0  0  0
   13.3983   14.6211   21.4291 C   0  0  0  0  0  0  0  0  0  0  0  0
   10.9942   14.5447   21.2018 C   0  0  0  0  0  0  0  0  0  0  0  0
   12.1622   14.1164   21.8328 C   0  0  0  0  0  0  0  0  0  0  0  0
   10.7866   13.2354   23.6993 C   0  0  0  0  0  0  0  0  0  0  0  0
    8.7116   12.1527   25.8851 C   0  0  0  0  0  0  0  0  0  0  0  0
    7.3037   12.1622   26.4865 C   0  0  0  0  0  0  0  0  0  0  0  0
   10.3383   10.8121   23.1290 C   0  0  0  0  0  0  0  0  0  0  0  0
    6.3704   11.0854   24.5193 C   0  0  0  0  0  0  0  0  0  0  0  0
    9.7074    9.6457   23.8721 C   0  0  0  0  0  0  0  0  0  0  0  0
    8.6489   12.1738   24.3506 C   0  0  2  0  0  0  0  0  0  0  0  0
    7.7421   11.0493   23.8311 C   0  0  1  0  0  0  0  0  0  0  0  0
    5.2944   10.8946   28.0965 C   0  0  0  0  0  0  0  0  0  0  0  0
   13.0789   12.3704   24.9447 C   0  0  0  0  0  0  0  0  0  0  0  0
    5.1816   11.0311   26.6162 C   0  0  0  0  0  0  0  0  0  0  0  0
   12.0880   13.1115   22.9468 C   0  0  2  0  0  0  0  0  0  0  0  0
    9.9878   12.0907   23.7523 N   0  0  0  0  0  0  0  0  0  0  0  0
    6.5011   11.0396   25.9850 N   0  0  2  0  0  0  0  0  0  0  0  0
   10.4883   14.3105   24.2253 O   0  0  0  0  0  0  0  0  0  0  0  0
    8.2955    9.7456   24.0339 O   0  0  0  0  0  0  0  0  0  0  0  0
   13.1313   13.3139   23.8795 O   0  0  0  0  0  0  0  0  0  0  0  0
   12.3517   16.7098   18.9587 H   0  0  0  0  0  0  0  0  0  0  0  0
   14.4290   15.9477   20.0810 H   0  0  0  0  0  0  0  0  0  0  0  0
   10.1528   15.8117   19.6768 H   0  0  0  0  0  0  0  0  0  0  0  0
   14.3135   14.2930   21.9149 H   0  0  0  0  0  0  0  0  0  0  0  0
   10.0267   14.1569   21.5096 H   0  0  0  0  0  0  0  0  0  0  0  0
    9.2647   13.0240   26.2503 H   0  0  0  0  0  0  0  0  0  0  0  0
    9.2398   11.2612   26.2405 H   0  0  0  0  0  0  0  0  0  0  0  0
    7.4017   12.0908   27.5787 H   0  0  0  0  0  0  0  0  0  0  0  0
    6.8146   13.1239   26.2707 H   0  0  0  0  0  0  0  0  0  0  0  0
   11.4294   10.7361   23.1699 H   0  0  0  0  0  0  0  0  0  0  0  0
   10.0428   10.7771   22.0800 H   0  0  0  0  0  0  0  0  0  0  0  0
    5.8342   11.9890   24.2117 H   0  0  0  0  0  0  0  0  0  0  0  0
    5.7935   10.2167   24.1872 H   0  0  0  0  0  0  0  0  0  0  0  0
    9.9501    8.6803   23.3750 H   0  0  0  0  0  0  0  0  0  0  0  0
   10.1496    9.5714   24.8870 H   0  0  0  0  0  0  0  0  0  0  0  0
    8.1917   13.1304   24.0541 H   0  0  0  0  0  0  0  0  0  0  0  0
    7.5633   11.1822   22.7490 H   0  0  0  0  0  0  0  0  0  0  0  0
    5.8751   11.7372   28.4998 H   0  0  0  0  0  0  0  0  0  0  0  0
    4.2888   10.8958   28.5424 H   0  0  0  0  0  0  0  0  0  0  0  0
    5.8022    9.9496   28.3399 H   0  0  0  0  0  0  0  0  0  0  0  0
   13.8992   12.5604   25.6413 H   0  0  0  0  0  0  0  0  0  0  0  0
   13.1573   11.3581   24.5403 H   0  0  0  0  0  0  0  0  0  0  0  0
   12.1264   12.4786   25.4689 H   0  0  0  0  0  0  0  0  0  0  0  0
    4.5999   10.1853   26.2210 H   0  0  0  0  0  0  0  0  0  0  0  0
    4.6649   11.9732   26.3809 H   0  0  0  0  0  0  0  0  0  0  0  0
   12.1587   12.0920   22.5638 H   0  0  0  0  0  0  0  0  0  0  0  0
  1  2  2  0  0  0  0
  1  3  1  0  0  0  0
  2  4  1  0  0  0  0
  3  5  2  0  0  0  0
  4  6  2  0  0  0  0
  5  6  1  0  0  0  0
  6 18  1  0  0  0  0
  7 18  1  0  0  0  0
  7 19  1  0  0  0  0
  7 21  2  0  0  0  0
  8  9  1  0  0  0  0
  8 13  1  0  0  0  0
  9 20  1  0  0  0  0
 10 12  1  0  0  0  0
 10 19  1  0  0  0  0
 11 14  1  0  0  0  0
 11 20  1  0  0  0  0
 12 22  1  0  0  0  0
 13 14  1  0  0  0  0
 13 19  1  0  0  0  0
 14 22  1  0  0  0  0
 15 17  1  0  0  0  0
 16 23  1  0  0  0  0
 17 20  1  0  0  0  0
 18 23  1  6  0  0  0
  1 24  1  0  0  0  0
  2 25  1  0  0  0  0
  3 26  1  0  0  0  0
  4 27  1  0  0  0  0
  5 28  1  0  0  0  0
  8 29  1  0  0  0  0
  8 30  1  0  0  0  0
  9 31  1  0  0  0  0
  9 32  1  0  0  0  0
 10 33  1  0  0  0  0
 10 34  1  0  0  0  0
 11 35  1  0  0  0  0
 11 36  1  0  0  0  0
 12 37  1  0  0  0  0
 12 38  1  0  0  0  0
 13 39  1  0  0  0  0
 14 40  1  0  0  0  0
 15 41  1  0  0  0  0
 15 42  1  0  0  0  0
 15 43  1  0  0  0  0
 16 44  1  0  0  0  0
 16 45  1  0  0  0  0
 16 46  1  0  0  0  0
 17 47  1  0  0  0  0
 17 48  1  0  0  0  0
 18 49  1  0  0  0  0
M  END
> <Catalog ID>
Z2044882777

> <PlateID>
1041831-R-39

> <Well>
G04

> <MW (desalted)>
318.411

> <ClogP>
2.131

> <HBD>
0

> <TPSA>
42.010

> <RotBonds>
4

> <ROCS_ShapeQuery>
A71EV2A-x0451_0A_A71EV2A-x0310_0A_A71EV2A-x0416_0A_peptide

> <ROCS_TanimotoCombo>
0.526 

> <ROCS_ShapeTanimoto>
0.350 

> <ROCS_ColorTanimoto>
0.176 

> <ROCS_RefTversky>
0.309 

> <ROCS_RefColorTversky>
0.190 

> <ROCS_RefTverskyCombo>
0.499 

> <ROCS_FitTversky>
1.607 

> <ROCS_FitColorTversky>
0.701 

> <ROCS_FitTverskyCombo>
2.308 

> <ROCS_ColorScore>
-5.783

> <ROCS_Overlap>
2149.411

> <ROCS_Rank>
260                 

$$$$
untitled-dbase-2776_98
  -OEChem-11132311063D

 45 48  0     1  0  0  0  0  0999 V2000
   13.3570   16.0223   18.4078 C   0  0  0  0  0  0  0  0  0  0  0  0
   14.3908   15.8383   19.3260 C   0  0  0  0  0  0  0  0  0  0  0  0
   12.0301   15.9966   18.8371 C   0  0  0  0  0  0  0  0  0  0  0  0
   14.0976   15.6283   20.6735 C   0  0  0  0  0  0  0  0  0  0  0  0
   11.7369   15.7866   20.1846 C   0  0  0  0  0  0  0  0  0  0  0  0
    7.7354   12.6083   25.3708 C   0  0  0  0  0  0  0  0  0  0  0  0
   12.7707   15.6025   21.1028 C   0  0  0  0  0  0  0  0  0  0  0  0
    7.9300   10.7237   24.4663 C   0  0  0  0  0  0  0  0  0  0  0  0
    9.8267    9.8939   22.6122 C   0  0  0  0  0  0  0  0  0  0  0  0
    9.8898   11.1574   23.0626 C   0  0  0  0  0  0  0  0  0  0  0  0
    8.7254    9.0477   23.1616 C   0  0  0  0  0  0  0  0  0  0  0  0
   12.4622   15.3815   22.5211 C   0  0  0  0  0  0  0  0  0  0  0  0
   12.4381   12.9118   25.1625 C   0  0  0  0  0  0  0  0  0  0  0  0
   12.5372   11.6113   24.3599 C   0  0  0  0  0  0  0  0  0  0  0  0
   13.2671   14.0192   24.5194 C   0  0  0  0  0  0  0  0  0  0  0  0
   13.0303   12.9844   22.2899 C   0  0  0  0  0  0  0  0  0  0  0  0
   12.2187   11.8236   22.8744 C   0  0  2  0  0  0  0  0  0  0  0  0
    8.6436    7.6257   22.6652 C   0  0  0  0  0  0  0  0  0  0  0  0
    7.1756   11.3726   25.3303 N   0  0  0  0  0  0  0  0  0  0  0  0
    8.7959   12.7912   24.5901 N   0  0  0  0  0  0  0  0  0  0  0  0
    7.8385    9.4365   24.0295 N   0  0  0  0  0  0  0  0  0  0  0  0
    8.9341   11.5764   23.9969 N   0  0  0  0  0  0  0  0  0  0  0  0
   12.8905   14.1898   23.1105 N   0  0  0  0  0  0  0  0  0  0  0  0
   10.8023   12.0391   22.6791 N   0  0  0  0  0  0  0  0  0  0  0  0
   11.8520   16.2846   23.0914 O   0  0  0  0  0  0  0  0  0  0  0  0
   13.5853   16.1857   17.3587 H   0  0  0  0  0  0  0  0  0  0  0  0
   15.4239   15.8581   18.9915 H   0  0  0  0  0  0  0  0  0  0  0  0
   11.2252   16.1402   18.1223 H   0  0  0  0  0  0  0  0  0  0  0  0
   14.9110   15.4860   21.3804 H   0  0  0  0  0  0  0  0  0  0  0  0
   10.6993   15.7684   20.5078 H   0  0  0  0  0  0  0  0  0  0  0  0
    7.3584   13.4074   25.9913 H   0  0  0  0  0  0  0  0  0  0  0  0
   10.5211    9.4823   21.8912 H   0  0  0  0  0  0  0  0  0  0  0  0
   11.3906   13.2285   25.2357 H   0  0  0  0  0  0  0  0  0  0  0  0
   12.7894   12.7360   26.1855 H   0  0  0  0  0  0  0  0  0  0  0  0
   13.5594   11.2207   24.4476 H   0  0  0  0  0  0  0  0  0  0  0  0
   11.8776   10.8505   24.7942 H   0  0  0  0  0  0  0  0  0  0  0  0
   13.1426   14.9454   25.0858 H   0  0  0  0  0  0  0  0  0  0  0  0
   14.3333   13.7639   24.5436 H   0  0  0  0  0  0  0  0  0  0  0  0
   14.0965   12.7269   22.2765 H   0  0  0  0  0  0  0  0  0  0  0  0
   12.7369   13.1810   21.2526 H   0  0  0  0  0  0  0  0  0  0  0  0
   12.4921   10.8979   22.3267 H   0  0  0  0  0  0  0  0  0  0  0  0
    9.2377    6.9896   23.3127 H   0  0  0  0  0  0  0  0  0  0  0  0
    9.0248    7.5816   21.6502 H   0  0  0  0  0  0  0  0  0  0  0  0
    7.6072    7.3046   22.6784 H   0  0  0  0  0  0  0  0  0  0  0  0
   10.4876   12.8956   22.2315 H   0  0  0  0  0  0  0  0  0  0  0  0
  1  2  2  0  0  0  0
  1  3  1  0  0  0  0
  2  4  1  0  0  0  0
  3  5  2  0  0  0  0
  4  7  2  0  0  0  0
  5  7  1  0  0  0  0
  6 19  1  0  0  0  0
  6 20  2  0  0  0  0
  7 12  1  0  0  0  0
  8 19  2  0  0  0  0
  8 21  1  0  0  0  0
  8 22  1  0  0  0  0
  9 10  2  0  0  0  0
  9 11  1  0  0  0  0
 10 22  1  0  0  0  0
 10 24  1  0  0  0  0
 11 18  1  0  0  0  0
 11 21  2  0  0  0  0
 12 23  1  0  0  0  0
 12 25  2  0  0  0  0
 13 14  1  0  0  0  0
 13 15  1  0  0  0  0
 14 17  1  0  0  0  0
 15 23  1  0  0  0  0
 16 17  1  0  0  0  0
 16 23  1  0  0  0  0
 17 24  1  0  0  0  0
 20 22  1  0  0  0  0
  1 26  1  0  0  0  0
  2 27  1  0  0  0  0
  3 28  1  0  0  0  0
  4 29  1  0  0  0  0
  5 30  1  0  0  0  0
  6 31  1  0  0  0  0
  9 32  1  0  0  0  0
 13 33  1  0  0  0  0
 13 34  1  0  0  0  0
 14 35  1  0  0  0  0
 14 36  1  0  0  0  0
 15 37  1  0  0  0  0
 15 38  1  0  0  0  0
 16 39  1  0  0  0  0
 16 40  1  0  0  0  0
 17 41  1  0  0  0  0
 18 42  1  0  0  0  0
 18 43  1  0  0  0  0
 18 44  1  0  0  0  0
 24 45  1  0  0  0  0
M  END
> <Catalog ID>
Z1002310020

> <PlateID>
1041831-R-35

> <Well>
F07

> <MW (desalted)>
336.391

> <ClogP>
1.950

> <HBD>
1

> <TPSA>
75.420

> <RotBonds>
3

> <ROCS_ShapeQuery>
A71EV2A-x0451_0A_A71EV2A-x0310_0A_A71EV2A-x0416_0A_peptide

> <ROCS_TanimotoCombo>
0.526 

> <ROCS_ShapeTanimoto>
0.350 

> <ROCS_ColorTanimoto>
0.176 

> <ROCS_RefTversky>
0.314 

> <ROCS_RefColorTversky>
0.199 

> <ROCS_RefTverskyCombo>
0.513 

> <ROCS_FitTversky>
1.488 

> <ROCS_FitColorTversky>
0.599 

> <ROCS_FitTverskyCombo>
2.087 

> <ROCS_ColorScore>
-6.094

> <ROCS_Overlap>
2183.538

> <ROCS_Rank>
261                 

$$$$
untitled-dbase-891_1278
  -OEChem-11132311063D

 52 55  0     1  0  0  0  0  0999 V2000
    8.0343    9.7492   24.0726 C   0  0  0  0  0  0  0  0  0  0  0  0
   16.4688   10.7595   25.5558 C   0  0  0  0  0  0  0  0  0  0  0  0
    7.1177   10.5425   24.7626 C   0  0  0  0  0  0  0  0  0  0  0  0
    9.2096   10.3128   23.5759 C   0  0  0  0  0  0  0  0  0  0  0  0
   15.4668   11.1725   24.6455 C   0  0  0  0  0  0  0  0  0  0  0  0
    8.5516   12.4631   24.4592 C   0  0  0  0  0  0  0  0  0  0  0  0
   16.6511   11.8095   26.4253 C   0  0  0  0  0  0  0  0  0  0  0  0
    7.3764   11.8995   24.9559 C   0  0  0  0  0  0  0  0  0  0  0  0
    9.4683   11.6698   23.7692 C   0  0  0  0  0  0  0  0  0  0  0  0
   15.1080   12.4453   25.0238 C   0  0  0  0  0  0  0  0  0  0  0  0
    6.4282   12.7205   25.6708 C   0  0  0  0  0  0  0  0  0  0  0  0
    5.1298   13.5180   27.2319 C   0  0  0  0  0  0  0  0  0  0  0  0
   14.1162   13.3979   24.4618 C   0  0  0  0  0  0  0  0  0  0  0  0
   11.0769   13.5660   23.3654 C   0  0  0  0  0  0  0  0  0  0  0  0
    4.4396   13.6725   28.5368 C   0  0  0  0  0  0  0  0  0  0  0  0
    3.6081   12.4464   28.9105 C   0  0  0  0  0  0  0  0  0  0  0  0
    4.4372   11.2573   29.4038 C   0  0  0  0  0  0  0  0  0  0  0  0
    5.3148   10.5941   28.3394 C   0  0  0  0  0  0  0  0  0  0  0  0
    6.4609   11.4736   27.8466 C   0  0  0  0  0  0  0  0  0  0  0  0
   12.3476   13.4214   21.2046 C   0  0  0  0  0  0  0  0  0  0  0  0
   12.4278   13.7712   22.6824 C   0  0  2  0  0  0  0  0  0  0  0  0
    5.8183   13.7735   25.1766 N   0  0  0  0  0  0  0  0  0  0  0  0
    4.9969   14.2787   26.1630 N   0  0  0  0  0  0  0  0  0  0  0  0
    6.0275   12.5246   26.9555 N   0  0  0  0  0  0  0  0  0  0  0  0
   10.6431   12.2332   23.2707 N   0  0  0  0  0  0  0  0  0  0  0  0
   13.4057   12.9549   23.3540 N   0  0  0  0  0  0  0  0  0  0  0  0
   13.9907   14.5063   24.9758 O   0  0  0  0  0  0  0  0  0  0  0  0
   10.5014   14.4805   23.9484 O   0  0  0  0  0  0  0  0  0  0  0  0
   15.8253   12.8410   26.1080 O   0  0  0  0  0  0  0  0  0  0  0  0
    7.8327    8.6924   23.9221 H   0  0  0  0  0  0  0  0  0  0  0  0
   16.9930    9.8150   25.5752 H   0  0  0  0  0  0  0  0  0  0  0  0
    6.2060   10.0883   25.1440 H   0  0  0  0  0  0  0  0  0  0  0  0
    9.9160    9.6849   23.0388 H   0  0  0  0  0  0  0  0  0  0  0  0
   15.0597   10.6092   23.8178 H   0  0  0  0  0  0  0  0  0  0  0  0
    8.7583   13.5213   24.6081 H   0  0  0  0  0  0  0  0  0  0  0  0
   17.2956   11.9718   27.2769 H   0  0  0  0  0  0  0  0  0  0  0  0
    5.1688   13.8995   29.3232 H   0  0  0  0  0  0  0  0  0  0  0  0
    3.7703   14.5392   28.4709 H   0  0  0  0  0  0  0  0  0  0  0  0
    2.9289   12.7344   29.7229 H   0  0  0  0  0  0  0  0  0  0  0  0
    2.9764   12.1362   28.0687 H   0  0  0  0  0  0  0  0  0  0  0  0
    5.0568   11.5658   30.2548 H   0  0  0  0  0  0  0  0  0  0  0  0
    3.7427   10.4989   29.7872 H   0  0  0  0  0  0  0  0  0  0  0  0
    5.7484    9.6897   28.7841 H   0  0  0  0  0  0  0  0  0  0  0  0
    4.6937   10.2657   27.4969 H   0  0  0  0  0  0  0  0  0  0  0  0
    6.9860   11.9508   28.6823 H   0  0  0  0  0  0  0  0  0  0  0  0
    7.1899   10.8464   27.3239 H   0  0  0  0  0  0  0  0  0  0  0  0
   12.0299   12.3840   21.0580 H   0  0  0  0  0  0  0  0  0  0  0  0
   13.3214   13.5416   20.7161 H   0  0  0  0  0  0  0  0  0  0  0  0
   11.6345   14.0727   20.6879 H   0  0  0  0  0  0  0  0  0  0  0  0
   12.7468   14.8116   22.8102 H   0  0  0  0  0  0  0  0  0  0  0  0
   11.2750   11.5965   22.7716 H   0  0  0  0  0  0  0  0  0  0  0  0
   13.6123   12.0452   22.9484 H   0  0  0  0  0  0  0  0  0  0  0  0
  1  3  2  0  0  0  0
  1  4  1  0  0  0  0
  2  5  1  0  0  0  0
  2  7  2  0  0  0  0
  3  8  1  0  0  0  0
  4  9  2  0  0  0  0
  5 10  2  0  0  0  0
  6  8  2  0  0  0  0
  6  9  1  0  0  0  0
  7 29  1  0  0  0  0
  8 11  1  0  0  0  0
  9 25  1  0  0  0  0
 10 13  1  0  0  0  0
 10 29  1  0  0  0  0
 11 22  2  0  0  0  0
 11 24  1  0  0  0  0
 12 15  1  0  0  0  0
 12 23  2  0  0  0  0
 12 24  1  0  0  0  0
 13 26  1  0  0  0  0
 13 27  2  0  0  0  0
 14 21  1  0  0  0  0
 14 25  1  0  0  0  0
 14 28  2  0  0  0  0
 15 16  1  0  0  0  0
 16 17  1  0  0  0  0
 17 18  1  0  0  0  0
 18 19  1  0  0  0  0
 19 24  1  0  0  0  0
 20 21  1  6  0  0  0
 21 26  1  0  0  0  0
 22 23  1  0  0  0  0
  1 30  1  0  0  0  0
  2 31  1  0  0  0  0
  3 32  1  0  0  0  0
  4 33  1  0  0  0  0
  5 34  1  0  0  0  0
  6 35  1  0  0  0  0
  7 36  1  0  0  0  0
 15 37  1  0  0  0  0
 15 38  1  0  0  0  0
 16 39  1  0  0  0  0
 16 40  1  0  0  0  0
 17 41  1  0  0  0  0
 17 42  1  0  0  0  0
 18 43  1  0  0  0  0
 18 44  1  0  0  0  0
 19 45  1  0  0  0  0
 19 46  1  0  0  0  0
 20 47  1  0  0  0  0
 20 48  1  0  0  0  0
 20 49  1  0  0  0  0
 21 50  1  0  0  0  0
 25 51  1  0  0  0  0
 26 52  1  0  0  0  0
M  END
> <Catalog ID>
Z85931652

> <PlateID>
1041831-R-12

> <Well>
B02

> <MW (desalted)>
393.439

> <ClogP>
1.873

> <HBD>
2

> <TPSA>
102.050

> <RotBonds>
5

> <ROCS_ShapeQuery>
A71EV2A-x0451_0A_A71EV2A-x0310_0A_A71EV2A-x0416_0A_peptide

> <ROCS_TanimotoCombo>
0.526 

> <ROCS_ShapeTanimoto>
0.337 

> <ROCS_ColorTanimoto>
0.188 

> <ROCS_RefTversky>
0.311 

> <ROCS_RefColorTversky>
0.222 

> <ROCS_RefTverskyCombo>
0.533 

> <ROCS_FitTversky>
1.331 

> <ROCS_FitColorTversky>
0.553 

> <ROCS_FitTverskyCombo>
1.884 

> <ROCS_ColorScore>
-6.813

> <ROCS_Overlap>
2167.342

> <ROCS_Rank>
262                 

$$$$
untitled-dbase-1026_506
  -OEChem-11132311063D

 42 44  0     0  0  0  0  0  0999 V2000
   14.6418   15.7894   19.8744 C   0  0  0  0  0  0  0  0  0  0  0  0
   13.6521   15.5201   20.8196 C   0  0  0  0  0  0  0  0  0  0  0  0
   14.2857   16.1324   18.5700 C   0  0  0  0  0  0  0  0  0  0  0  0
   11.9501   15.9367   19.1561 C   0  0  0  0  0  0  0  0  0  0  0  0
   12.3062   15.5937   20.4605 C   0  0  0  0  0  0  0  0  0  0  0  0
   12.9399   16.2060   18.2109 C   0  0  0  0  0  0  0  0  0  0  0  0
    9.8274   11.3255   23.7260 C   0  0  0  0  0  0  0  0  0  0  0  0
    7.8695   10.7349   24.5050 C   0  0  0  0  0  0  0  0  0  0  0  0
    7.5307   13.0467   26.0118 C   0  0  0  0  0  0  0  0  0  0  0  0
    8.6570   12.9096   25.2928 C   0  0  0  0  0  0  0  0  0  0  0  0
    6.5543   11.9145   25.9244 C   0  0  0  0  0  0  0  0  0  0  0  0
   11.6725   14.3078   22.5395 C   0  0  0  0  0  0  0  0  0  0  0  0
    9.7028   13.9838   25.3081 C   0  0  0  0  0  0  0  0  0  0  0  0
    5.2824   12.0480   26.7246 C   0  0  0  0  0  0  0  0  0  0  0  0
   11.2384   15.3043   21.4819 C   0  0  0  0  0  0  0  0  0  0  0  0
   11.0663   12.0769   23.4482 C   0  0  0  0  0  0  0  0  0  0  0  0
   12.5593   16.5721   16.8160 C   0  0  0  0  0  0  0  0  0  0  0  0
    9.5388   10.1492   23.2212 N   0  0  0  0  0  0  0  0  0  0  0  0
    8.3078    9.7770   23.7102 N   0  0  0  0  0  0  0  0  0  0  0  0
    6.7134   10.8321   25.2185 N   0  0  0  0  0  0  0  0  0  0  0  0
    8.8150   11.7472   24.5422 N   0  0  0  0  0  0  0  0  0  0  0  0
   10.8627   13.1829   22.5374 N   0  0  0  0  0  0  0  0  0  0  0  0
   12.6267   14.4897   23.2914 O   0  0  0  0  0  0  0  0  0  0  0  0
   13.6295   16.8075   16.0005 F   0  0  0  0  0  0  0  0  0  0  0  0
   11.8303   15.6094   16.1778 F   0  0  0  0  0  0  0  0  0  0  0  0
   11.7996   17.7046   16.7591 F   0  0  0  0  0  0  0  0  0  0  0  0
   15.6898   15.7322   20.1541 H   0  0  0  0  0  0  0  0  0  0  0  0
   13.9390   15.2542   21.8337 H   0  0  0  0  0  0  0  0  0  0  0  0
   15.0636   16.3398   17.8399 H   0  0  0  0  0  0  0  0  0  0  0  0
   10.9010   15.9952   18.8758 H   0  0  0  0  0  0  0  0  0  0  0  0
    7.3077   13.9076   26.6280 H   0  0  0  0  0  0  0  0  0  0  0  0
   10.4111   13.7902   26.1107 H   0  0  0  0  0  0  0  0  0  0  0  0
    9.2292   14.9508   25.4657 H   0  0  0  0  0  0  0  0  0  0  0  0
   10.2268   13.9948   24.3545 H   0  0  0  0  0  0  0  0  0  0  0  0
    4.5288   12.5333   26.1136 H   0  0  0  0  0  0  0  0  0  0  0  0
    5.4813   12.6421   27.6105 H   0  0  0  0  0  0  0  0  0  0  0  0
    4.9430   11.0600   27.0180 H   0  0  0  0  0  0  0  0  0  0  0  0
   10.9402   16.2375   21.9765 H   0  0  0  0  0  0  0  0  0  0  0  0
   10.3423   14.9161   20.9814 H   0  0  0  0  0  0  0  0  0  0  0  0
   11.5068   12.5003   24.3689 H   0  0  0  0  0  0  0  0  0  0  0  0
   11.8510   11.4407   23.0012 H   0  0  0  0  0  0  0  0  0  0  0  0
   10.0984   13.1330   21.8723 H   0  0  0  0  0  0  0  0  0  0  0  0
  1  2  1  0  0  0  0
  1  3  2  0  0  0  0
  2  5  2  0  0  0  0
  3  6  1  0  0  0  0
  4  5  1  0  0  0  0
  4  6  2  0  0  0  0
  5 15  1  0  0  0  0
  6 17  1  0  0  0  0
  7 16  1  0  0  0  0
  7 18  2  0  0  0  0
  7 21  1  0  0  0  0
  8 19  2  0  0  0  0
  8 20  1  0  0  0  0
  8 21  1  0  0  0  0
  9 10  2  0  0  0  0
  9 11  1  0  0  0  0
 10 13  1  0  0  0  0
 10 21  1  0  0  0  0
 11 14  1  0  0  0  0
 11 20  2  0  0  0  0
 12 15  1  0  0  0  0
 12 22  1  0  0  0  0
 12 23  2  0  0  0  0
 16 22  1  0  0  0  0
 17 24  1  0  0  0  0
 17 25  1  0  0  0  0
 17 26  1  0  0  0  0
 18 19  1  0  0  0  0
  1 27  1  0  0  0  0
  2 28  1  0  0  0  0
  3 29  1  0  0  0  0
  4 30  1  0  0  0  0
  9 31  1  0  0  0  0
 13 32  1  0  0  0  0
 13 33  1  0  0  0  0
 13 34  1  0  0  0  0
 14 35  1  0  0  0  0
 14 36  1  0  0  0  0
 14 37  1  0  0  0  0
 15 38  1  0  0  0  0
 15 39  1  0  0  0  0
 16 40  1  0  0  0  0
 16 41  1  0  0  0  0
 22 42  1  0  0  0  0
M  END
> <Catalog ID>
Z169712832

> <PlateID>
1041831-R-13

> <Well>
G07

> <MW (desalted)>
363.337

> <ClogP>
1.877

> <HBD>
1

> <TPSA>
72.180

> <RotBonds>
5

> <ROCS_ShapeQuery>
A71EV2A-x0451_0A_A71EV2A-x0310_0A_A71EV2A-x0416_0A_peptide

> <ROCS_TanimotoCombo>
0.526 

> <ROCS_ShapeTanimoto>
0.346 

> <ROCS_ColorTanimoto>
0.180 

> <ROCS_RefTversky>
0.312 

> <ROCS_RefColorTversky>
0.200 

> <ROCS_RefTverskyCombo>
0.512 

> <ROCS_FitTversky>
1.448 

> <ROCS_FitColorTversky>
0.642 

> <ROCS_FitTverskyCombo>
2.090 

> <ROCS_ColorScore>
-6.102

> <ROCS_Overlap>
2172.455

> <ROCS_Rank>
263                 

$$$$
untitled-dbase-1520_2405
  -OEChem-11132311063D

 46 48  0     1  0  0  0  0  0999 V2000
    6.8967   12.5640   25.9390 C   0  0  0  0  0  0  0  0  0  0  0  0
    6.4001   11.2955   26.2323 C   0  0  0  0  0  0  0  0  0  0  0  0
   12.7666   16.2761   18.8208 C   0  0  0  0  0  0  0  0  0  0  0  0
    7.9633   12.7271   25.0475 C   0  0  0  0  0  0  0  0  0  0  0  0
   14.1332   16.5200   18.9570 C   0  0  0  0  0  0  0  0  0  0  0  0
    6.9512   10.1524   25.6462 C   0  0  0  0  0  0  0  0  0  0  0  0
   12.0903   15.5354   19.7902 C   0  0  0  0  0  0  0  0  0  0  0  0
   14.1472   15.2823   21.0319 C   0  0  0  0  0  0  0  0  0  0  0  0
    9.7014   10.0325   23.2929 C   0  0  0  0  0  0  0  0  0  0  0  0
    8.5352   11.5893   24.4444 C   0  0  0  0  0  0  0  0  0  0  0  0
   14.8235   16.0230   20.0625 C   0  0  0  0  0  0  0  0  0  0  0  0
    9.5972   11.3856   23.5194 C   0  0  0  0  0  0  0  0  0  0  0  0
    8.0170   10.3307   24.7570 C   0  0  0  0  0  0  0  0  0  0  0  0
   12.7806   15.0385   20.8957 C   0  0  0  0  0  0  0  0  0  0  0  0
   10.3361   15.0994   24.4024 C   0  0  0  0  0  0  0  0  0  0  0  0
   12.6158   13.7361   23.0455 C   0  0  0  0  0  0  0  0  0  0  0  0
   16.2845   16.2840   20.2077 C   0  0  0  0  0  0  0  0  0  0  0  0
    9.8547   15.9318   25.5442 C   0  0  0  0  0  0  0  0  0  0  0  0
   10.4433   12.4302   22.9074 C   0  0  0  0  0  0  0  0  0  0  0  0
   11.5381   12.9963   23.8411 C   0  0  2  0  0  0  0  0  0  0  0  0
    8.7440    9.4046   24.0436 N   0  0  0  0  0  0  0  0  0  0  0  0
   12.0942   14.2879   21.8790 N   0  0  0  0  0  0  0  0  0  0  0  0
   10.9941   13.9438   24.7834 N   0  0  0  0  0  0  0  0  0  0  0  0
   10.1280   15.4714   23.2535 O   0  0  0  0  0  0  0  0  0  0  0  0
   13.7664   13.8378   23.4626 O   0  0  0  0  0  0  0  0  0  0  0  0
    6.4513   13.4378   26.4068 H   0  0  0  0  0  0  0  0  0  0  0  0
    5.5710   11.1919   26.9276 H   0  0  0  0  0  0  0  0  0  0  0  0
   12.2289   16.6634   17.9602 H   0  0  0  0  0  0  0  0  0  0  0  0
    8.3385   13.7228   24.8285 H   0  0  0  0  0  0  0  0  0  0  0  0
   14.6514   17.0974   18.1964 H   0  0  0  0  0  0  0  0  0  0  0  0
    6.5646    9.1653   25.8759 H   0  0  0  0  0  0  0  0  0  0  0  0
   11.0252   15.3514   19.6737 H   0  0  0  0  0  0  0  0  0  0  0  0
   14.6879   14.8951   21.8928 H   0  0  0  0  0  0  0  0  0  0  0  0
   10.3692    9.4596   22.6643 H   0  0  0  0  0  0  0  0  0  0  0  0
   16.4531   17.2154   20.7620 H   0  0  0  0  0  0  0  0  0  0  0  0
   16.7845   15.4658   20.7423 H   0  0  0  0  0  0  0  0  0  0  0  0
   16.7735   16.3687   19.2283 H   0  0  0  0  0  0  0  0  0  0  0  0
   10.6035   16.6714   25.8705 H   0  0  0  0  0  0  0  0  0  0  0  0
    8.9582   16.5188   25.2879 H   0  0  0  0  0  0  0  0  0  0  0  0
    9.5843   15.3725   26.4541 H   0  0  0  0  0  0  0  0  0  0  0  0
    9.8084   13.2708   22.5611 H   0  0  0  0  0  0  0  0  0  0  0  0
   10.9258   12.0621   21.9786 H   0  0  0  0  0  0  0  0  0  0  0  0
   11.9917   12.1976   24.4387 H   0  0  0  0  0  0  0  0  0  0  0  0
    8.5923    8.4058   24.0707 H   0  0  0  0  0  0  0  0  0  0  0  0
   11.1004   14.1564   21.7045 H   0  0  0  0  0  0  0  0  0  0  0  0
   11.0996   13.7528   25.7765 H   0  0  0  0  0  0  0  0  0  0  0  0
  1  2  2  0  0  0  0
  1  4  1  0  0  0  0
  2  6  1  0  0  0  0
  3  5  2  0  0  0  0
  3  7  1  0  0  0  0
  4 10  2  0  0  0  0
  5 11  1  0  0  0  0
  6 13  2  0  0  0  0
  7 14  2  0  0  0  0
  8 11  2  0  0  0  0
  8 14  1  0  0  0  0
  9 12  2  0  0  0  0
  9 21  1  0  0  0  0
 10 12  1  0  0  0  0
 10 13  1  0  0  0  0
 11 17  1  0  0  0  0
 12 19  1  0  0  0  0
 13 21  1  0  0  0  0
 14 22  1  0  0  0  0
 15 18  1  0  0  0  0
 15 23  1  0  0  0  0
 15 24  2  0  0  0  0
 16 20  1  0  0  0  0
 16 22  1  0  0  0  0
 16 25  2  0  0  0  0
 19 20  1  0  0  0  0
 20 23  1  0  0  0  0
  1 26  1  0  0  0  0
  2 27  1  0  0  0  0
  3 28  1  0  0  0  0
  4 29  1  0  0  0  0
  5 30  1  0  0  0  0
  6 31  1  0  0  0  0
  7 32  1  0  0  0  0
  8 33  1  0  0  0  0
  9 34  1  0  0  0  0
 17 35  1  0  0  0  0
 17 36  1  0  0  0  0
 17 37  1  0  0  0  0
 18 38  1  0  0  0  0
 18 39  1  0  0  0  0
 18 40  1  0  0  0  0
 19 41  1  0  0  0  0
 19 42  1  0  0  0  0
 20 43  1  0  0  0  0
 21 44  1  0  0  0  0
 22 45  1  0  0  0  0
 23 46  1  0  0  0  0
M  END
> <Catalog ID>
Z31513291

> <PlateID>
1041831-R-19

> <Well>
H11

> <MW (desalted)>
335.400

> <ClogP>
2.426

> <HBD>
3

> <TPSA>
73.990

> <RotBonds>
5

> <ROCS_ShapeQuery>
A71EV2A-x0451_0A_A71EV2A-x0310_0A_A71EV2A-x0416_0A_peptide

> <ROCS_TanimotoCombo>
0.526 

> <ROCS_ShapeTanimoto>
0.357 

> <ROCS_ColorTanimoto>
0.169 

> <ROCS_RefTversky>
0.317 

> <ROCS_RefColorTversky>
0.188 

> <ROCS_RefTverskyCombo>
0.505 

> <ROCS_FitTversky>
1.535 

> <ROCS_FitColorTversky>
0.623 

> <ROCS_FitTverskyCombo>
2.159 

> <ROCS_ColorScore>
-5.738

> <ROCS_Overlap>
2205.555

> <ROCS_Rank>
264                 

$$$$
untitled-dbase-700_2608
  -OEChem-11132311063D

 50 53  0     1  0  0  0  0  0999 V2000
    7.0520   12.8824   25.7102 C   0  0  0  0  0  0  0  0  0  0  0  0
    6.7684   11.7130   26.4129 C   0  0  0  0  0  0  0  0  0  0  0  0
    7.8708   12.8555   24.5754 C   0  0  0  0  0  0  0  0  0  0  0  0
   14.4595   15.8367   20.4248 C   0  0  0  0  0  0  0  0  0  0  0  0
    7.2919   10.4825   26.0058 C   0  0  0  0  0  0  0  0  0  0  0  0
   14.8993   16.5889   19.3308 C   0  0  0  0  0  0  0  0  0  0  0  0
   12.2123   15.7417   19.5145 C   0  0  0  0  0  0  0  0  0  0  0  0
    9.4476    9.8776   23.1591 C   0  0  0  0  0  0  0  0  0  0  0  0
    8.4101   11.6266   24.1460 C   0  0  0  0  0  0  0  0  0  0  0  0
   13.1256   15.4160   20.5167 C   0  0  0  0  0  0  0  0  0  0  0  0
   12.6566   16.4876   18.4332 C   0  0  0  0  0  0  0  0  0  0  0  0
    9.2554   11.2370   23.0696 C   0  0  0  0  0  0  0  0  0  0  0  0
    8.1088   10.4708   24.8697 C   0  0  0  0  0  0  0  0  0  0  0  0
   13.9844   16.9089   18.3383 C   0  0  0  0  0  0  0  0  0  0  0  0
   12.6921   14.6354   21.6648 C   0  0  0  0  0  0  0  0  0  0  0  0
   15.3655   18.2184   16.7290 C   0  0  0  0  0  0  0  0  0  0  0  0
   10.6328   13.7977   23.7177 C   0  0  0  0  0  0  0  0  0  0  0  0
   11.8486   16.9397   17.2613 C   0  0  0  0  0  0  0  0  0  0  0  0
   12.8840   17.7049   16.4300 C   0  0  0  0  0  0  0  0  0  0  0  0
   15.2846   18.9547   15.4126 C   0  0  0  0  0  0  0  0  0  0  0  0
    9.8431   12.1428   22.0144 C   0  0  0  0  0  0  0  0  0  0  0  0
   11.0439   12.9520   22.5215 C   0  0  1  0  0  0  0  0  0  0  0  0
    8.7519    9.4244   24.2478 N   0  0  0  0  0  0  0  0  0  0  0  0
   14.1732   17.6458   17.1505 N   0  0  0  0  0  0  0  0  0  0  0  0
   11.6053   13.7743   21.4739 N   0  0  0  0  0  0  0  0  0  0  0  0
   13.2623   14.7584   22.7633 O   0  0  0  0  0  0  0  0  0  0  0  0
   16.4404   18.1705   17.3274 O   0  0  0  0  0  0  0  0  0  0  0  0
   10.7228   13.4041   24.8760 O   0  0  0  0  0  0  0  0  0  0  0  0
   10.1628   15.0300   23.4086 O   0  0  0  0  0  0  0  0  0  0  0  0
    6.6328   13.8272   26.0459 H   0  0  0  0  0  0  0  0  0  0  0  0
    6.1301   11.7570   27.2916 H   0  0  0  0  0  0  0  0  0  0  0  0
    8.0818   13.7757   24.0380 H   0  0  0  0  0  0  0  0  0  0  0  0
   15.1696   15.5801   21.2081 H   0  0  0  0  0  0  0  0  0  0  0  0
    7.0714    9.5729   26.5540 H   0  0  0  0  0  0  0  0  0  0  0  0
   15.9365   16.8977   19.2934 H   0  0  0  0  0  0  0  0  0  0  0  0
   11.1765   15.4218   19.5739 H   0  0  0  0  0  0  0  0  0  0  0  0
   10.0152    9.1913   22.5459 H   0  0  0  0  0  0  0  0  0  0  0  0
   11.4504   16.0842   16.7074 H   0  0  0  0  0  0  0  0  0  0  0  0
   11.0332   17.5965   17.5790 H   0  0  0  0  0  0  0  0  0  0  0  0
   13.0082   17.2589   15.4370 H   0  0  0  0  0  0  0  0  0  0  0  0
   12.5953   18.7534   16.2985 H   0  0  0  0  0  0  0  0  0  0  0  0
   15.0269   19.9903   15.6035 H   0  0  0  0  0  0  0  0  0  0  0  0
   14.5251   18.4892   14.7942 H   0  0  0  0  0  0  0  0  0  0  0  0
   16.2467   18.8952   14.9159 H   0  0  0  0  0  0  0  0  0  0  0  0
    9.0492   12.8152   21.6626 H   0  0  0  0  0  0  0  0  0  0  0  0
   10.1305   11.5502   21.1352 H   0  0  0  0  0  0  0  0  0  0  0  0
   11.8544   12.2955   22.8586 H   0  0  0  0  0  0  0  0  0  0  0  0
    8.7153    8.4612   24.5517 H   0  0  0  0  0  0  0  0  0  0  0  0
   11.1366   13.7591   20.5740 H   0  0  0  0  0  0  0  0  0  0  0  0
   10.1371   15.2325   22.4497 H   0  0  0  0  0  0  0  0  0  0  0  0
  1  2  2  0  0  0  0
  1  3  1  0  0  0  0
  2  5  1  0  0  0  0
  3  9  2  0  0  0  0
  4  6  1  0  0  0  0
  4 10  2  0  0  0  0
  5 13  2  0  0  0  0
  6 14  2  0  0  0  0
  7 10  1  0  0  0  0
  7 11  2  0  0  0  0
  8 12  2  0  0  0  0
  8 23  1  0  0  0  0
  9 12  1  0  0  0  0
  9 13  1  0  0  0  0
 10 15  1  0  0  0  0
 11 14  1  0  0  0  0
 11 18  1  0  0  0  0
 12 21  1  0  0  0  0
 13 23  1  0  0  0  0
 14 24  1  0  0  0  0
 15 25  1  0  0  0  0
 15 26  2  0  0  0  0
 16 20  1  0  0  0  0
 16 24  1  0  0  0  0
 16 27  2  0  0  0  0
 17 22  1  0  0  0  0
 17 28  2  0  0  0  0
 17 29  1  0  0  0  0
 18 19  1  0  0  0  0
 19 24  1  0  0  0  0
 21 22  1  0  0  0  0
 22 25  1  0  0  0  0
  1 30  1  0  0  0  0
  2 31  1  0  0  0  0
  3 32  1  0  0  0  0
  4 33  1  0  0  0  0
  5 34  1  0  0  0  0
  6 35  1  0  0  0  0
  7 36  1  0  0  0  0
  8 37  1  0  0  0  0
 18 38  1  0  0  0  0
 18 39  1  0  0  0  0
 19 40  1  0  0  0  0
 19 41  1  0  0  0  0
 20 42  1  0  0  0  0
 20 43  1  0  0  0  0
 20 44  1  0  0  0  0
 21 45  1  0  0  0  0
 21 46  1  0  0  0  0
 22 47  1  0  0  0  0
 23 48  1  0  0  0  0
 25 49  1  0  0  0  0
 29 50  1  0  0  0  0
M  END
> <Catalog ID>
Z1444489827

> <PlateID>
1041831-R-09

> <Well>
F11

> <MW (desalted)>
391.420

> <ClogP>
1.591

> <HBD>
3

> <TPSA>
102.500

> <RotBonds>
5

> <ROCS_ShapeQuery>
A71EV2A-x0451_0A_A71EV2A-x0310_0A_A71EV2A-x0416_0A_peptide

> <ROCS_TanimotoCombo>
0.525 

> <ROCS_ShapeTanimoto>
0.341 

> <ROCS_ColorTanimoto>
0.185 

> <ROCS_RefTversky>
0.314 

> <ROCS_RefColorTversky>
0.217 

> <ROCS_RefTverskyCombo>
0.531 

> <ROCS_FitTversky>
1.338 

> <ROCS_FitColorTversky>
0.552 

> <ROCS_FitTverskyCombo>
1.890 

> <ROCS_ColorScore>
-6.669

> <ROCS_Overlap>
2183.933

> <ROCS_Rank>
265                 

$$$$
untitled-dbase-917_8753
  -OEChem-11132311063D

 52 55  0     1  0  0  0  0  0999 V2000
    6.4422   13.1176   25.6668 C   0  0  0  0  0  0  0  0  0  0  0  0
    5.7004   11.9648   25.4159 C   0  0  0  0  0  0  0  0  0  0  0  0
    9.1832   17.0289   23.0344 C   0  0  0  0  0  0  0  0  0  0  0  0
    7.7937   13.1661   25.3284 C   0  0  0  0  0  0  0  0  0  0  0  0
    6.3083   10.8557   24.8251 C   0  0  0  0  0  0  0  0  0  0  0  0
    9.8515   16.6639   21.8414 C   0  0  0  0  0  0  0  0  0  0  0  0
    9.6469   16.1755   24.0084 C   0  0  0  0  0  0  0  0  0  0  0  0
    8.3990   12.0524   24.7366 C   0  0  0  0  0  0  0  0  0  0  0  0
    7.6638   10.8876   24.4790 C   0  0  0  0  0  0  0  0  0  0  0  0
   10.6760   15.6136   22.1714 C   0  0  0  0  0  0  0  0  0  0  0  0
    9.4946    9.8169   23.5789 C   0  0  0  0  0  0  0  0  0  0  0  0
    9.8338   12.0855   24.3708 C   0  0  0  0  0  0  0  0  0  0  0  0
   12.0145   11.8741   22.3568 C   0  0  0  0  0  0  0  0  0  0  0  0
   14.2356   16.4132   18.3667 C   0  0  0  0  0  0  0  0  0  0  0  0
   13.2046   15.3576   17.9839 C   0  0  0  0  0  0  0  0  0  0  0  0
   13.6943   17.3095   19.4747 C   0  0  0  0  0  0  0  0  0  0  0  0
   12.7066   14.5952   19.2128 C   0  0  0  0  0  0  0  0  0  0  0  0
   13.1806   16.4854   20.6562 C   0  0  0  0  0  0  0  0  0  0  0  0
   11.7087   10.8117   23.3814 C   0  0  0  0  0  0  0  0  0  0  0  0
   12.8184   14.2293   22.2135 C   0  0  0  0  0  0  0  0  0  0  0  0
   11.6511   14.7674   21.3713 C   0  0  2  0  0  0  0  0  0  0  0  0
    8.2411    9.7522   23.8860 N   0  0  0  0  0  0  0  0  0  0  0  0
   10.3149   10.9109   23.7862 N   0  0  0  0  0  0  0  0  0  0  0  0
   12.1657   15.5144   20.2239 N   0  0  0  0  0  0  0  0  0  0  0  0
   12.4517   13.0459   22.9576 N   0  0  0  0  0  0  0  0  0  0  0  0
   10.4957   13.0953   24.5905 O   0  0  0  0  0  0  0  0  0  0  0  0
   11.8882   11.7027   21.1472 O   0  0  0  0  0  0  0  0  0  0  0  0
   10.5573   15.3098   23.4905 O   0  0  0  0  0  0  0  0  0  0  0  0
    5.9669   13.9792   26.1269 H   0  0  0  0  0  0  0  0  0  0  0  0
    4.6475   11.9286   25.6805 H   0  0  0  0  0  0  0  0  0  0  0  0
    8.4545   17.8153   23.1677 H   0  0  0  0  0  0  0  0  0  0  0  0
    8.3544   14.0740   25.5315 H   0  0  0  0  0  0  0  0  0  0  0  0
    5.7153    9.9639   24.6363 H   0  0  0  0  0  0  0  0  0  0  0  0
    9.7430   17.1124   20.8641 H   0  0  0  0  0  0  0  0  0  0  0  0
    9.4394   16.0610   25.0622 H   0  0  0  0  0  0  0  0  0  0  0  0
    9.9986    8.9562   23.1114 H   0  0  0  0  0  0  0  0  0  0  0  0
   15.1537   15.9207   18.7101 H   0  0  0  0  0  0  0  0  0  0  0  0
   14.5007   17.0156   17.4909 H   0  0  0  0  0  0  0  0  0  0  0  0
   12.3560   15.8397   17.4820 H   0  0  0  0  0  0  0  0  0  0  0  0
   13.6436   14.6558   17.2656 H   0  0  0  0  0  0  0  0  0  0  0  0
   14.4808   17.9931   19.8143 H   0  0  0  0  0  0  0  0  0  0  0  0
   12.8805   17.9303   19.0786 H   0  0  0  0  0  0  0  0  0  0  0  0
   11.9241   13.8978   18.8879 H   0  0  0  0  0  0  0  0  0  0  0  0
   13.5259   13.9930   19.6293 H   0  0  0  0  0  0  0  0  0  0  0  0
   14.0238   15.9789   21.1459 H   0  0  0  0  0  0  0  0  0  0  0  0
   12.7460   17.1754   21.3906 H   0  0  0  0  0  0  0  0  0  0  0  0
   11.8893    9.8222   22.9513 H   0  0  0  0  0  0  0  0  0  0  0  0
   12.3480   10.9475   24.2587 H   0  0  0  0  0  0  0  0  0  0  0  0
   13.6574   13.9419   21.5696 H   0  0  0  0  0  0  0  0  0  0  0  0
   13.1906   14.9660   22.9334 H   0  0  0  0  0  0  0  0  0  0  0  0
   11.1063   13.9042   20.9668 H   0  0  0  0  0  0  0  0  0  0  0  0
   12.5174   13.0733   23.9710 H   0  0  0  0  0  0  0  0  0  0  0  0
  1  2  2  0  0  0  0
  1  4  1  0  0  0  0
  2  5  1  0  0  0  0
  3  6  1  0  0  0  0
  3  7  2  0  0  0  0
  4  8  2  0  0  0  0
  5  9  2  0  0  0  0
  6 10  2  0  0  0  0
  7 28  1  0  0  0  0
  8  9  1  0  0  0  0
  8 12  1  0  0  0  0
  9 22  1  0  0  0  0
 10 21  1  0  0  0  0
 10 28  1  0  0  0  0
 11 22  2  0  0  0  0
 11 23  1  0  0  0  0
 12 23  1  0  0  0  0
 12 26  2  0  0  0  0
 13 19  1  0  0  0  0
 13 25  1  0  0  0  0
 13 27  2  0  0  0  0
 14 15  1  0  0  0  0
 14 16  1  0  0  0  0
 15 17  1  0  0  0  0
 16 18  1  0  0  0  0
 17 24  1  0  0  0  0
 18 24  1  0  0  0  0
 19 23  1  0  0  0  0
 20 21  1  0  0  0  0
 20 25  1  0  0  0  0
 21 24  1  0  0  0  0
  1 29  1  0  0  0  0
  2 30  1  0  0  0  0
  3 31  1  0  0  0  0
  4 32  1  0  0  0  0
  5 33  1  0  0  0  0
  6 34  1  0  0  0  0
  7 35  1  0  0  0  0
 11 36  1  0  0  0  0
 14 37  1  0  0  0  0
 14 38  1  0  0  0  0
 15 39  1  0  0  0  0
 15 40  1  0  0  0  0
 16 41  1  0  0  0  0
 16 42  1  0  0  0  0
 17 43  1  0  0  0  0
 17 44  1  0  0  0  0
 18 45  1  0  0  0  0
 18 46  1  0  0  0  0
 19 47  1  0  0  0  0
 19 48  1  0  0  0  0
 20 49  1  0  0  0  0
 20 50  1  0  0  0  0
 21 51  1  0  0  0  0
 25 52  1  0  0  0  0
M  END
> <Catalog ID>
Z26995007

> <PlateID>
1041831-R-12

> <Well>
D08

> <MW (desalted)>
380.440

> <ClogP>
2.488

> <HBD>
1

> <TPSA>
78.150

> <RotBonds>
6

> <ROCS_ShapeQuery>
A71EV2A-x0451_0A_A71EV2A-x0310_0A_A71EV2A-x0416_0A_peptide

> <ROCS_TanimotoCombo>
0.525 

> <ROCS_ShapeTanimoto>
0.350 

> <ROCS_ColorTanimoto>
0.175 

> <ROCS_RefTversky>
0.318 

> <ROCS_RefColorTversky>
0.203 

> <ROCS_RefTverskyCombo>
0.521 

> <ROCS_FitTversky>
1.401 

> <ROCS_FitColorTversky>
0.561 

> <ROCS_FitTverskyCombo>
1.962 

> <ROCS_ColorScore>
-6.223

> <ROCS_Overlap>
2214.801

> <ROCS_Rank>
266                 

$$$$
untitled-dbase-1166_1607
  -OEChem-11132311063D

 50 54  0     1  0  0  0  0  0999 V2000
   14.2285   16.8793   18.9892 C   0  0  0  0  0  0  0  0  0  0  0  0
   13.5569   15.7396   18.5364 C   0  0  0  0  0  0  0  0  0  0  0  0
   14.0644   17.3423   20.3013 C   0  0  0  0  0  0  0  0  0  0  0  0
   12.6977   15.0202   19.3745 C   0  0  0  0  0  0  0  0  0  0  0  0
   13.2059   16.6301   21.1515 C   0  0  0  0  0  0  0  0  0  0  0  0
   12.5529   15.5023   20.6736 C   0  0  0  0  0  0  0  0  0  0  0  0
    7.3044   10.8168   24.6855 C   0  0  0  0  0  0  0  0  0  0  0  0
    9.4736   10.8344   24.4547 C   0  0  0  0  0  0  0  0  0  0  0  0
   10.9121   13.4084   23.2481 C   0  0  0  0  0  0  0  0  0  0  0  0
    5.9338   11.2296   25.0779 C   0  0  0  0  0  0  0  0  0  0  0  0
    5.7775   11.3866   26.5896 C   0  0  0  0  0  0  0  0  0  0  0  0
    6.4055   12.6648   27.1521 C   0  0  0  0  0  0  0  0  0  0  0  0
    7.9344   12.7133   27.0972 C   0  0  0  0  0  0  0  0  0  0  0  0
   12.3036    9.9655   23.0545 C   0  0  0  0  0  0  0  0  0  0  0  0
   11.9036   10.0876   24.5211 C   0  0  0  0  0  0  0  0  0  0  0  0
    8.5004   12.7931   25.6819 C   0  0  0  0  0  0  0  0  0  0  0  0
   12.3193   11.4086   22.5742 C   0  0  0  0  0  0  0  0  0  0  0  0
   10.9269   11.2683   24.5434 C   0  0  1  0  0  0  0  0  0  0  0  0
   10.9399   13.9386   21.8369 C   0  0  0  0  0  0  0  0  0  0  0  0
   12.8547   16.8390   22.4591 N   0  0  0  0  0  0  0  0  0  0  0  0
    7.6531    9.7292   24.0263 N   0  0  0  0  0  0  0  0  0  0  0  0
    9.0248    9.7414   23.8810 N   0  0  0  0  0  0  0  0  0  0  0  0
   12.0053   15.8815   22.8153 N   0  0  0  0  0  0  0  0  0  0  0  0
   11.8249   15.0837   21.7497 N   0  0  0  0  0  0  0  0  0  0  0  0
    8.4304   11.5379   24.9706 N   0  0  0  0  0  0  0  0  0  0  0  0
   11.3292   12.0945   23.4015 N   0  0  0  0  0  0  0  0  0  0  0  0
   10.5279   14.1244   24.1744 O   0  0  0  0  0  0  0  0  0  0  0  0
   14.8891   17.4157   18.3128 H   0  0  0  0  0  0  0  0  0  0  0  0
   13.7047   15.4049   17.5125 H   0  0  0  0  0  0  0  0  0  0  0  0
   14.5896   18.2277   20.6440 H   0  0  0  0  0  0  0  0  0  0  0  0
   12.1764   14.1366   19.0250 H   0  0  0  0  0  0  0  0  0  0  0  0
    5.6587   12.1572   24.5625 H   0  0  0  0  0  0  0  0  0  0  0  0
    5.2314   10.4603   24.7335 H   0  0  0  0  0  0  0  0  0  0  0  0
    4.7043   11.4194   26.8156 H   0  0  0  0  0  0  0  0  0  0  0  0
    6.1814   10.5114   27.1136 H   0  0  0  0  0  0  0  0  0  0  0  0
    5.9887   13.5396   26.6380 H   0  0  0  0  0  0  0  0  0  0  0  0
    6.1040   12.7530   28.2036 H   0  0  0  0  0  0  0  0  0  0  0  0
    8.2568   13.6093   27.6423 H   0  0  0  0  0  0  0  0  0  0  0  0
    8.3534   11.8507   27.6299 H   0  0  0  0  0  0  0  0  0  0  0  0
   13.2718    9.4729   22.9281 H   0  0  0  0  0  0  0  0  0  0  0  0
   11.5495    9.3914   22.5037 H   0  0  0  0  0  0  0  0  0  0  0  0
   11.4790    9.1547   24.9068 H   0  0  0  0  0  0  0  0  0  0  0  0
   12.7929   10.3301   25.1167 H   0  0  0  0  0  0  0  0  0  0  0  0
    7.9707   13.5403   25.0798 H   0  0  0  0  0  0  0  0  0  0  0  0
    9.5486   13.1039   25.7348 H   0  0  0  0  0  0  0  0  0  0  0  0
   13.2922   11.8771   22.7588 H   0  0  0  0  0  0  0  0  0  0  0  0
   12.0750   11.5022   21.5125 H   0  0  0  0  0  0  0  0  0  0  0  0
   11.0497   11.8628   25.4855 H   0  0  0  0  0  0  0  0  0  0  0  0
    9.9327   14.2355   21.5544 H   0  0  0  0  0  0  0  0  0  0  0  0
   11.2961   13.1531   21.1743 H   0  0  0  0  0  0  0  0  0  0  0  0
  1  2  2  0  0  0  0
  1  3  1  0  0  0  0
  2  4  1  0  0  0  0
  3  5  2  0  0  0  0
  4  6  2  0  0  0  0
  5  6  1  0  0  0  0
  5 20  1  0  0  0  0
  6 24  1  0  0  0  0
  7 10  1  0  0  0  0
  7 21  2  0  0  0  0
  7 25  1  0  0  0  0
  8 18  1  0  0  0  0
  8 22  2  0  0  0  0
  8 25  1  0  0  0  0
  9 19  1  0  0  0  0
  9 26  1  0  0  0  0
  9 27  2  0  0  0  0
 10 11  1  0  0  0  0
 11 12  1  0  0  0  0
 12 13  1  0  0  0  0
 13 16  1  0  0  0  0
 14 15  1  0  0  0  0
 14 17  1  0  0  0  0
 15 18  1  0  0  0  0
 16 25  1  0  0  0  0
 17 26  1  0  0  0  0
 18 26  1  0  0  0  0
 19 24  1  0  0  0  0
 20 23  2  0  0  0  0
 21 22  1  0  0  0  0
 23 24  1  0  0  0  0
  1 28  1  0  0  0  0
  2 29  1  0  0  0  0
  3 30  1  0  0  0  0
  4 31  1  0  0  0  0
 10 32  1  0  0  0  0
 10 33  1  0  0  0  0
 11 34  1  0  0  0  0
 11 35  1  0  0  0  0
 12 36  1  0  0  0  0
 12 37  1  0  0  0  0
 13 38  1  0  0  0  0
 13 39  1  0  0  0  0
 14 40  1  0  0  0  0
 14 41  1  0  0  0  0
 15 42  1  0  0  0  0
 15 43  1  0  0  0  0
 16 44  1  0  0  0  0
 16 45  1  0  0  0  0
 17 46  1  0  0  0  0
 17 47  1  0  0  0  0
 18 48  1  0  0  0  0
 19 49  1  0  0  0  0
 19 50  1  0  0  0  0
M  END
> <Catalog ID>
Z365854960

> <PlateID>
1041831-R-15

> <Well>
E07

> <MW (desalted)>
365.432

> <ClogP>
0.831

> <HBD>
0

> <TPSA>
81.730

> <RotBonds>
3

> <ROCS_ShapeQuery>
A71EV2A-x0451_0A_A71EV2A-x0310_0A_A71EV2A-x0416_0A_peptide

> <ROCS_TanimotoCombo>
0.525 

> <ROCS_ShapeTanimoto>
0.345 

> <ROCS_ColorTanimoto>
0.180 

> <ROCS_RefTversky>
0.314 

> <ROCS_RefColorTversky>
0.211 

> <ROCS_RefTverskyCombo>
0.525 

> <ROCS_FitTversky>
1.399 

> <ROCS_FitColorTversky>
0.551 

> <ROCS_FitTverskyCombo>
1.950 

> <ROCS_ColorScore>
-6.464

> <ROCS_Overlap>
2188.372

> <ROCS_Rank>
267                 

$$$$
untitled-dbase-1801_2548
  -OEChem-11132311063D

 41 43  0     0  0  0  0  0  0999 V2000
   13.1261   16.7186   18.3008 C   0  0  0  0  0  0  0  0  0  0  0  0
   14.4131   16.4465   18.8022 C   0  0  0  0  0  0  0  0  0  0  0  0
   12.2774   16.0651   19.1605 C   0  0  0  0  0  0  0  0  0  0  0  0
    9.2707    9.7874   23.6070 C   0  0  0  0  0  0  0  0  0  0  0  0
    9.6055   11.0808   23.9736 C   0  0  0  0  0  0  0  0  0  0  0  0
    7.5963   10.5181   24.6448 C   0  0  0  0  0  0  0  0  0  0  0  0
    8.1189   12.6855   25.2759 C   0  0  0  0  0  0  0  0  0  0  0  0
    6.8774   12.5790   25.7862 C   0  0  0  0  0  0  0  0  0  0  0  0
   10.8240   14.2803   22.9519 C   0  0  0  0  0  0  0  0  0  0  0  0
   10.0872    8.8179   22.8576 C   0  0  0  0  0  0  0  0  0  0  0  0
    6.1419   13.6336   26.5339 C   0  0  0  0  0  0  0  0  0  0  0  0
   10.2541   12.3922   21.4095 C   0  0  0  0  0  0  0  0  0  0  0  0
   10.8409   11.9048   23.7523 C   0  0  0  0  0  0  0  0  0  0  0  0
   11.2858   15.1153   21.7656 C   0  0  0  0  0  0  0  0  0  0  0  0
   12.6338   14.6512   21.2153 C   0  0  0  0  0  0  0  0  0  0  0  0
   14.3890   15.6801   19.8958 N   0  0  0  0  0  0  0  0  0  0  0  0
    8.0023    9.4399   24.0337 N   0  0  0  0  0  0  0  0  0  0  0  0
   13.0765   15.4650   20.0887 N   0  0  0  0  0  0  0  0  0  0  0  0
    8.5075   11.5292   24.6419 N   0  0  0  0  0  0  0  0  0  0  0  0
   10.6465   12.9134   22.7131 N   0  0  0  0  0  0  0  0  0  0  0  0
   10.6268   14.8090   24.0491 O   0  0  0  0  0  0  0  0  0  0  0  0
    6.1448   10.9831   25.4762 S   0  0  0  0  0  0  0  0  0  0  0  0
   12.8525   17.3060   17.4370 H   0  0  0  0  0  0  0  0  0  0  0  0
   15.3667   16.7761   18.4151 H   0  0  0  0  0  0  0  0  0  0  0  0
   11.2000   15.9788   19.1879 H   0  0  0  0  0  0  0  0  0  0  0  0
    8.7731   13.5430   25.3265 H   0  0  0  0  0  0  0  0  0  0  0  0
   10.7020    8.2022   23.5364 H   0  0  0  0  0  0  0  0  0  0  0  0
    9.4687    8.1300   22.2537 H   0  0  0  0  0  0  0  0  0  0  0  0
   10.7722    9.3118   22.1451 H   0  0  0  0  0  0  0  0  0  0  0  0
    5.5643   14.2506   25.8425 H   0  0  0  0  0  0  0  0  0  0  0  0
    6.8449   14.2706   27.0752 H   0  0  0  0  0  0  0  0  0  0  0  0
    5.4610   13.1769   27.2556 H   0  0  0  0  0  0  0  0  0  0  0  0
   11.1536   12.1780   20.8138 H   0  0  0  0  0  0  0  0  0  0  0  0
    9.6745   11.4670   21.5440 H   0  0  0  0  0  0  0  0  0  0  0  0
    9.6375   13.1384   20.8869 H   0  0  0  0  0  0  0  0  0  0  0  0
   11.1306   12.4215   24.6738 H   0  0  0  0  0  0  0  0  0  0  0  0
   11.6852   11.2748   23.4535 H   0  0  0  0  0  0  0  0  0  0  0  0
   10.5287   15.0476   20.9757 H   0  0  0  0  0  0  0  0  0  0  0  0
   11.3646   16.1613   22.0847 H   0  0  0  0  0  0  0  0  0  0  0  0
   12.5839   13.6092   20.8762 H   0  0  0  0  0  0  0  0  0  0  0  0
   13.4125   14.6960   21.9867 H   0  0  0  0  0  0  0  0  0  0  0  0
  1  2  1  0  0  0  0
  1  3  2  0  0  0  0
  2 16  2  0  0  0  0
  3 18  1  0  0  0  0
  4  5  2  0  0  0  0
  4 10  1  0  0  0  0
  4 17  1  0  0  0  0
  5 13  1  0  0  0  0
  5 19  1  0  0  0  0
  6 17  2  0  0  0  0
  6 19  1  0  0  0  0
  6 22  1  0  0  0  0
  7  8  2  0  0  0  0
  7 19  1  0  0  0  0
  8 11  1  0  0  0  0
  8 22  1  0  0  0  0
  9 14  1  0  0  0  0
  9 20  1  0  0  0  0
  9 21  2  0  0  0  0
 12 20  1  0  0  0  0
 13 20  1  0  0  0  0
 14 15  1  0  0  0  0
 15 18  1  0  0  0  0
 16 18  1  0  0  0  0
  1 23  1  0  0  0  0
  2 24  1  0  0  0  0
  3 25  1  0  0  0  0
  7 26  1  0  0  0  0
 10 27  1  0  0  0  0
 10 28  1  0  0  0  0
 10 29  1  0  0  0  0
 11 30  1  0  0  0  0
 11 31  1  0  0  0  0
 11 32  1  0  0  0  0
 12 33  1  0  0  0  0
 12 34  1  0  0  0  0
 12 35  1  0  0  0  0
 13 36  1  0  0  0  0
 13 37  1  0  0  0  0
 14 38  1  0  0  0  0
 14 39  1  0  0  0  0
 15 40  1  0  0  0  0
 15 41  1  0  0  0  0
M  END
> <Catalog ID>
Z1551491888

> <PlateID>
1041831-R-23

> <Well>
E02

> <MW (desalted)>
317.409

> <ClogP>
1.578

> <HBD>
0

> <TPSA>
55.430

> <RotBonds>
5

> <ROCS_ShapeQuery>
A71EV2A-x0451_0A_A71EV2A-x0310_0A_A71EV2A-x0416_0A_peptide

> <ROCS_TanimotoCombo>
0.525 

> <ROCS_ShapeTanimoto>
0.363 

> <ROCS_ColorTanimoto>
0.162 

> <ROCS_RefTversky>
0.316 

> <ROCS_RefColorTversky>
0.177 

> <ROCS_RefTverskyCombo>
0.494 

> <ROCS_FitTversky>
1.683 

> <ROCS_FitColorTversky>
0.652 

> <ROCS_FitTverskyCombo>
2.335 

> <ROCS_ColorScore>
-5.404

> <ROCS_Overlap>
2198.101

> <ROCS_Rank>
268                 

$$$$
untitled-dbase-1721_1046
  -OEChem-11132311063D

 47 50  0     1  0  0  0  0  0999 V2000
    6.0898   11.9749   25.7614 C   0  0  0  0  0  0  0  0  0  0  0  0
    5.8187   10.6169   25.6068 C   0  0  0  0  0  0  0  0  0  0  0  0
    7.2940   12.5218   25.3034 C   0  0  0  0  0  0  0  0  0  0  0  0
    6.7391    9.7637   24.9913 C   0  0  0  0  0  0  0  0  0  0  0  0
   14.2600   17.2395   19.4951 C   0  0  0  0  0  0  0  0  0  0  0  0
    9.9755   10.6733   23.6441 C   0  0  0  0  0  0  0  0  0  0  0  0
   14.8615   16.7843   18.3412 C   0  0  0  0  0  0  0  0  0  0  0  0
    8.2373   11.6811   24.6798 C   0  0  0  0  0  0  0  0  0  0  0  0
   13.1329   16.4449   19.8669 C   0  0  0  0  0  0  0  0  0  0  0  0
    9.5253   11.8867   24.1109 C   0  0  0  0  0  0  0  0  0  0  0  0
    7.9387   10.3242   24.5385 C   0  0  0  0  0  0  0  0  0  0  0  0
   12.9286   15.4202   18.9643 C   0  0  0  0  0  0  0  0  0  0  0  0
   10.9304   15.0408   22.5004 C   0  0  0  0  0  0  0  0  0  0  0  0
   13.0425   13.0257   22.7836 C   0  0  0  0  0  0  0  0  0  0  0  0
   12.2529   16.6632   21.0580 C   0  0  0  0  0  0  0  0  0  0  0  0
   11.8371   14.4080   19.0765 C   0  0  0  0  0  0  0  0  0  0  0  0
   10.7556   14.9263   20.0322 C   0  0  0  0  0  0  0  0  0  0  0  0
   14.1594   12.2974   22.1124 C   0  0  0  0  0  0  0  0  0  0  0  0
   10.2736   13.1946   24.0298 C   0  0  0  0  0  0  0  0  0  0  0  0
   10.6230   13.5671   22.5952 C   0  0  2  0  0  0  0  0  0  0  0  0
    9.0115    9.7371   23.9063 N   0  0  0  0  0  0  0  0  0  0  0  0
   11.3429   15.5125   21.2514 N   0  0  0  0  0  0  0  0  0  0  0  0
   11.8248   12.9429   22.1228 N   0  0  0  0  0  0  0  0  0  0  0  0
   10.8041   15.7494   23.5022 O   0  0  0  0  0  0  0  0  0  0  0  0
   13.2553   13.6251   23.8310 O   0  0  0  0  0  0  0  0  0  0  0  0
   14.0709   15.4042   17.7056 S   0  0  0  0  0  0  0  0  0  0  0  0
    5.3582   12.6184   26.2427 H   0  0  0  0  0  0  0  0  0  0  0  0
    4.8771   10.2133   25.9700 H   0  0  0  0  0  0  0  0  0  0  0  0
    7.4900   13.5826   25.4307 H   0  0  0  0  0  0  0  0  0  0  0  0
    6.5277    8.7065   24.8724 H   0  0  0  0  0  0  0  0  0  0  0  0
   14.6125   18.1026   20.0453 H   0  0  0  0  0  0  0  0  0  0  0  0
   10.8939   10.3915   23.1477 H   0  0  0  0  0  0  0  0  0  0  0  0
   15.7263   17.1970   17.8410 H   0  0  0  0  0  0  0  0  0  0  0  0
   12.8625   16.7474   21.9648 H   0  0  0  0  0  0  0  0  0  0  0  0
   11.6912   17.5919   20.9336 H   0  0  0  0  0  0  0  0  0  0  0  0
   11.4007   14.2350   18.0852 H   0  0  0  0  0  0  0  0  0  0  0  0
   12.2221   13.4509   19.4460 H   0  0  0  0  0  0  0  0  0  0  0  0
   10.1190   15.6494   19.5123 H   0  0  0  0  0  0  0  0  0  0  0  0
   10.1086   14.1025   20.3602 H   0  0  0  0  0  0  0  0  0  0  0  0
   14.7038   12.9318   21.3947 H   0  0  0  0  0  0  0  0  0  0  0  0
   14.9213   11.9459   22.8265 H   0  0  0  0  0  0  0  0  0  0  0  0
   13.8629   11.4028   21.5416 H   0  0  0  0  0  0  0  0  0  0  0  0
    9.6551   13.9790   24.4866 H   0  0  0  0  0  0  0  0  0  0  0  0
   11.1780   13.1410   24.6512 H   0  0  0  0  0  0  0  0  0  0  0  0
    9.8204   13.3444   21.8919 H   0  0  0  0  0  0  0  0  0  0  0  0
    9.0773    8.7565   23.6704 H   0  0  0  0  0  0  0  0  0  0  0  0
   11.7823   12.4090   21.2539 H   0  0  0  0  0  0  0  0  0  0  0  0
  1  2  2  0  0  0  0
  1  3  1  0  0  0  0
  2  4  1  0  0  0  0
  3  8  2  0  0  0  0
  4 11  2  0  0  0  0
  5  7  2  0  0  0  0
  5  9  1  0  0  0  0
  6 10  2  0  0  0  0
  6 21  1  0  0  0  0
  7 26  1  0  0  0  0
  8 10  1  0  0  0  0
  8 11  1  0  0  0  0
  9 12  2  0  0  0  0
  9 15  1  0  0  0  0
 10 19  1  0  0  0  0
 11 21  1  0  0  0  0
 12 16  1  0  0  0  0
 12 26  1  0  0  0  0
 13 20  1  0  0  0  0
 13 22  1  0  0  0  0
 13 24  2  0  0  0  0
 14 18  1  0  0  0  0
 14 23  1  0  0  0  0
 14 25  2  0  0  0  0
 15 22  1  0  0  0  0
 16 17  1  0  0  0  0
 17 22  1  0  0  0  0
 19 20  1  0  0  0  0
 20 23  1  0  0  0  0
  1 27  1  0  0  0  0
  2 28  1  0  0  0  0
  3 29  1  0  0  0  0
  4 30  1  0  0  0  0
  5 31  1  0  0  0  0
  6 32  1  0  0  0  0
  7 33  1  0  0  0  0
 15 34  1  0  0  0  0
 15 35  1  0  0  0  0
 16 36  1  0  0  0  0
 16 37  1  0  0  0  0
 17 38  1  0  0  0  0
 17 39  1  0  0  0  0
 18 40  1  0  0  0  0
 18 41  1  0  0  0  0
 18 42  1  0  0  0  0
 19 43  1  0  0  0  0
 19 44  1  0  0  0  0
 20 45  1  0  0  0  0
 21 46  1  0  0  0  0
 23 47  1  0  0  0  0
M  END
> <Catalog ID>
Z227062252

> <PlateID>
1041831-R-22

> <Well>
E02

> <MW (desalted)>
367.465

> <ClogP>
1.722

> <HBD>
2

> <TPSA>
65.200

> <RotBonds>
4

> <ROCS_ShapeQuery>
A71EV2A-x0451_0A_A71EV2A-x0310_0A_A71EV2A-x0416_0A_peptide

> <ROCS_TanimotoCombo>
0.525 

> <ROCS_ShapeTanimoto>
0.361 

> <ROCS_ColorTanimoto>
0.164 

> <ROCS_RefTversky>
0.322 

> <ROCS_RefColorTversky>
0.183 

> <ROCS_RefTverskyCombo>
0.505 

> <ROCS_FitTversky>
1.514 

> <ROCS_FitColorTversky>
0.606 

> <ROCS_FitTverskyCombo>
2.120 

> <ROCS_ColorScore>
-5.584

> <ROCS_Overlap>
2238.773

> <ROCS_Rank>
269                 

$$$$
untitled-dbase-2615_512
  -OEChem-11132311063D

 45 48  0     1  0  0  0  0  0999 V2000
    6.3532   11.2181   25.7885 C   0  0  0  0  0  0  0  0  0  0  0  0
    6.8473   12.5239   25.8586 C   0  0  0  0  0  0  0  0  0  0  0  0
    6.9935   10.2617   24.9990 C   0  0  0  0  0  0  0  0  0  0  0  0
    7.9880   12.8898   25.1415 C   0  0  0  0  0  0  0  0  0  0  0  0
    8.1299   10.6224   24.2827 C   0  0  0  0  0  0  0  0  0  0  0  0
    8.6200   11.9316   24.3579 C   0  0  0  0  0  0  0  0  0  0  0  0
   10.5155   13.2366   23.3979 C   0  0  0  0  0  0  0  0  0  0  0  0
    8.5585    7.4158   23.8670 C   0  0  0  0  0  0  0  0  0  0  0  0
    7.6853    7.8183   22.6807 C   0  0  0  0  0  0  0  0  0  0  0  0
    9.5842    8.5322   24.0498 C   0  0  0  0  0  0  0  0  0  0  0  0
    8.2172    9.1617   22.1869 C   0  0  0  0  0  0  0  0  0  0  0  0
   13.7224   15.7607   20.8895 C   0  0  0  0  0  0  0  0  0  0  0  0
   10.0606   10.7766   22.9191 C   0  0  0  0  0  0  0  0  0  0  0  0
   13.8585   16.2086   19.4517 C   0  0  0  0  0  0  0  0  0  0  0  0
   11.6909   15.4186   19.7679 C   0  0  0  0  0  0  0  0  0  0  0  0
   12.5916   14.7662   20.7953 C   0  0  2  0  0  0  0  0  0  0  0  0
    8.9801    9.7672   23.3712 C   0  0  0  0  0  0  0  0  0  0  0  0
   11.2029   13.3721   22.0593 C   0  0  0  0  0  0  0  0  0  0  0  0
    9.7719   12.0739   23.5591 N   0  0  0  0  0  0  0  0  0  0  0  0
   10.6502   14.1307   24.2336 O   0  0  0  0  0  0  0  0  0  0  0  0
   12.5452   16.1470   18.8751 O   0  0  0  0  0  0  0  0  0  0  0  0
   11.9260   14.5842   22.0261 O   0  0  0  0  0  0  0  0  0  0  0  0
    5.4666   10.9458   26.3541 H   0  0  0  0  0  0  0  0  0  0  0  0
    6.3353   13.2611   26.4706 H   0  0  0  0  0  0  0  0  0  0  0  0
    6.5966    9.2528   24.9624 H   0  0  0  0  0  0  0  0  0  0  0  0
    8.3356   13.9140   25.2072 H   0  0  0  0  0  0  0  0  0  0  0  0
    7.9434    7.3093   24.7699 H   0  0  0  0  0  0  0  0  0  0  0  0
    9.0470    6.4477   23.7023 H   0  0  0  0  0  0  0  0  0  0  0  0
    7.7329    7.0698   21.8836 H   0  0  0  0  0  0  0  0  0  0  0  0
    6.6375    7.8960   22.9868 H   0  0  0  0  0  0  0  0  0  0  0  0
    9.8266    8.6857   25.1102 H   0  0  0  0  0  0  0  0  0  0  0  0
   10.5141    8.2318   23.5440 H   0  0  0  0  0  0  0  0  0  0  0  0
    8.9024    8.9761   21.3515 H   0  0  0  0  0  0  0  0  0  0  0  0
    7.4131    9.8036   21.8160 H   0  0  0  0  0  0  0  0  0  0  0  0
   14.6394   15.2514   21.2042 H   0  0  0  0  0  0  0  0  0  0  0  0
   13.5300   16.5996   21.5620 H   0  0  0  0  0  0  0  0  0  0  0  0
   11.0784   10.4554   23.1731 H   0  0  0  0  0  0  0  0  0  0  0  0
   10.0278   10.9462   21.8334 H   0  0  0  0  0  0  0  0  0  0  0  0
   14.2030   17.2456   19.3858 H   0  0  0  0  0  0  0  0  0  0  0  0
   14.5419   15.5776   18.8776 H   0  0  0  0  0  0  0  0  0  0  0  0
   11.1643   14.6666   19.1705 H   0  0  0  0  0  0  0  0  0  0  0  0
   10.9623   16.1099   20.2015 H   0  0  0  0  0  0  0  0  0  0  0  0
   12.9442   13.7607   20.4493 H   0  0  0  0  0  0  0  0  0  0  0  0
   10.4606   13.3656   21.2676 H   0  0  0  0  0  0  0  0  0  0  0  0
   11.8881   12.5405   21.9303 H   0  0  0  0  0  0  0  0  0  0  0  0
  1  2  2  0  0  0  0
  1  3  1  0  0  0  0
  2  4  1  0  0  0  0
  3  5  2  0  0  0  0
  4  6  2  0  0  0  0
  5  6  1  0  0  0  0
  5 17  1  0  0  0  0
  6 19  1  0  0  0  0
  7 18  1  0  0  0  0
  7 19  1  0  0  0  0
  7 20  2  0  0  0  0
  8  9  1  0  0  0  0
  8 10  1  0  0  0  0
  9 11  1  0  0  0  0
 10 17  1  0  0  0  0
 11 17  1  0  0  0  0
 12 14  1  0  0  0  0
 12 16  1  0  0  0  0
 13 17  1  0  0  0  0
 13 19  1  0  0  0  0
 14 21  1  0  0  0  0
 15 16  1  0  0  0  0
 15 21  1  0  0  0  0
 16 22  1  0  0  0  0
 18 22  1  0  0  0  0
  1 23  1  0  0  0  0
  2 24  1  0  0  0  0
  3 25  1  0  0  0  0
  4 26  1  0  0  0  0
  8 27  1  0  0  0  0
  8 28  1  0  0  0  0
  9 29  1  0  0  0  0
  9 30  1  0  0  0  0
 10 31  1  0  0  0  0
 10 32  1  0  0  0  0
 11 33  1  0  0  0  0
 11 34  1  0  0  0  0
 12 35  1  0  0  0  0
 12 36  1  0  0  0  0
 13 37  1  0  0  0  0
 13 38  1  0  0  0  0
 14 39  1  0  0  0  0
 14 40  1  0  0  0  0
 15 41  1  0  0  0  0
 15 42  1  0  0  0  0
 16 43  1  0  0  0  0
 18 44  1  0  0  0  0
 18 45  1  0  0  0  0
M  END
> <Catalog ID>
Z1360022970

> <PlateID>
1041831-R-33

> <Well>
F06

> <MW (desalted)>
301.380

> <ClogP>
2.732

> <HBD>
0

> <TPSA>
38.770

> <RotBonds>
3

> <ROCS_ShapeQuery>
A71EV2A-x0451_0A_A71EV2A-x0310_0A_A71EV2A-x0416_0A_peptide

> <ROCS_TanimotoCombo>
0.525 

> <ROCS_ShapeTanimoto>
0.375 

> <ROCS_ColorTanimoto>
0.149 

> <ROCS_RefTversky>
0.325 

> <ROCS_RefColorTversky>
0.165 

> <ROCS_RefTverskyCombo>
0.490 

> <ROCS_FitTversky>
1.714 

> <ROCS_FitColorTversky>
0.609 

> <ROCS_FitTverskyCombo>
2.323 

> <ROCS_ColorScore>
-5.029

> <ROCS_Overlap>
2254.651

> <ROCS_Rank>
270                 

$$$$
untitled-dbase-2384_2284
  -OEChem-11132311063D

 40 42  0     1  0  0  0  0  0999 V2000
   13.2896   15.4635   18.5619 C   0  0  0  0  0  0  0  0  0  0  0  0
   12.2115   14.8235   19.2185 C   0  0  0  0  0  0  0  0  0  0  0  0
   13.8073   16.3626   19.4650 C   0  0  0  0  0  0  0  0  0  0  0  0
   12.1473   15.3770   20.4761 C   0  0  0  0  0  0  0  0  0  0  0  0
   11.0597   13.4153   23.4374 C   0  0  0  0  0  0  0  0  0  0  0  0
    8.4213   11.7636   25.5000 C   0  0  0  0  0  0  0  0  0  0  0  0
   10.2919    9.7812   22.8991 C   0  0  0  0  0  0  0  0  0  0  0  0
    8.8492   11.7073   22.9334 C   0  0  0  0  0  0  0  0  0  0  0  0
    7.1810   11.4419   26.3122 C   0  0  0  0  0  0  0  0  0  0  0  0
    9.5889    9.2661   24.1499 C   0  0  0  0  0  0  0  0  0  0  0  0
    6.6031   11.4427   24.0578 C   0  0  0  0  0  0  0  0  0  0  0  0
    8.0999   11.1400   24.1498 C   0  0  2  0  0  0  0  0  0  0  0  0
   11.2454   15.1473   21.6542 C   0  0  0  0  0  0  0  0  0  0  0  0
   11.1883   11.9255   23.6271 C   0  0  0  0  0  0  0  0  0  0  0  0
   10.2294   11.2395   22.7720 N   0  0  1  0  0  0  0  0  0  0  0  0
   11.3029   13.7808   22.1211 N   0  0  0  0  0  0  0  0  0  0  0  0
   10.7724   14.1900   24.3461 O   0  0  0  0  0  0  0  0  0  0  0  0
   13.1167   16.3160   20.6344 O   0  0  0  0  0  0  0  0  0  0  0  0
    6.0823   11.3967   25.3960 O   0  0  0  0  0  0  0  0  0  0  0  0
    8.2336    9.7111   24.1919 O   0  0  0  0  0  0  0  0  0  0  0  0
   13.6447   15.2914   17.5562 H   0  0  0  0  0  0  0  0  0  0  0  0
   11.5635   14.0551   18.8215 H   0  0  0  0  0  0  0  0  0  0  0  0
   14.6220   17.0709   19.4310 H   0  0  0  0  0  0  0  0  0  0  0  0
    8.5174   12.8536   25.4028 H   0  0  0  0  0  0  0  0  0  0  0  0
    9.3236   11.3904   25.9929 H   0  0  0  0  0  0  0  0  0  0  0  0
   11.3483    9.4447   22.9256 H   0  0  0  0  0  0  0  0  0  0  0  0
    9.8389    9.3014   22.0052 H   0  0  0  0  0  0  0  0  0  0  0  0
    8.2656   11.4720   22.0061 H   0  0  0  0  0  0  0  0  0  0  0  0
    8.8403   12.8247   22.9911 H   0  0  0  0  0  0  0  0  0  0  0  0
    7.2616   10.4591   26.7905 H   0  0  0  0  0  0  0  0  0  0  0  0
    6.9849   12.1891   27.0875 H   0  0  0  0  0  0  0  0  0  0  0  0
    9.5732    8.1729   24.1366 H   0  0  0  0  0  0  0  0  0  0  0  0
   10.1132    9.5683   25.0602 H   0  0  0  0  0  0  0  0  0  0  0  0
    6.4107   12.4505   23.6706 H   0  0  0  0  0  0  0  0  0  0  0  0
    6.0547   10.7170   23.4472 H   0  0  0  0  0  0  0  0  0  0  0  0
   11.5252   15.8006   22.4878 H   0  0  0  0  0  0  0  0  0  0  0  0
   10.2037   15.3710   21.4011 H   0  0  0  0  0  0  0  0  0  0  0  0
   12.2004   11.6062   23.3616 H   0  0  0  0  0  0  0  0  0  0  0  0
   10.9887   11.6659   24.6709 H   0  0  0  0  0  0  0  0  0  0  0  0
   11.5329   13.0515   21.4523 H   0  0  0  0  0  0  0  0  0  0  0  0
  1  2  1  0  0  0  0
  1  3  2  0  0  0  0
  2  4  2  0  0  0  0
  3 18  1  0  0  0  0
  4 13  1  0  0  0  0
  4 18  1  0  0  0  0
  5 14  1  0  0  0  0
  5 16  1  0  0  0  0
  5 17  2  0  0  0  0
  6  9  1  0  0  0  0
  6 12  1  0  0  0  0
  7 10  1  0  0  0  0
  7 15  1  0  0  0  0
  8 12  1  0  0  0  0
  8 15  1  0  0  0  0
  9 19  1  0  0  0  0
 10 20  1  0  0  0  0
 11 12  1  0  0  0  0
 11 19  1  0  0  0  0
 12 20  1  0  0  0  0
 13 16  1  0  0  0  0
 14 15  1  0  0  0  0
  1 21  1  0  0  0  0
  2 22  1  0  0  0  0
  3 23  1  0  0  0  0
  6 24  1  0  0  0  0
  6 25  1  0  0  0  0
  7 26  1  0  0  0  0
  7 27  1  0  0  0  0
  8 28  1  0  0  0  0
  8 29  1  0  0  0  0
  9 30  1  0  0  0  0
  9 31  1  0  0  0  0
 10 32  1  0  0  0  0
 10 33  1  0  0  0  0
 11 34  1  0  0  0  0
 11 35  1  0  0  0  0
 13 36  1  0  0  0  0
 13 37  1  0  0  0  0
 14 38  1  0  0  0  0
 14 39  1  0  0  0  0
 16 40  1  0  0  0  0
M  END
> <Catalog ID>
Z1708828063

> <PlateID>
1041831-R-30

> <Well>
G05

> <MW (desalted)>
280.320

> <ClogP>
0.182

> <HBD>
1

> <TPSA>
63.940

> <RotBonds>
4

> <ROCS_ShapeQuery>
A71EV2A-x0451_0A_A71EV2A-x0310_0A_A71EV2A-x0416_0A_peptide

> <ROCS_TanimotoCombo>
0.525 

> <ROCS_ShapeTanimoto>
0.335 

> <ROCS_ColorTanimoto>
0.190 

> <ROCS_RefTversky>
0.295 

> <ROCS_RefColorTversky>
0.212 

> <ROCS_RefTverskyCombo>
0.507 

> <ROCS_FitTversky>
1.680 

> <ROCS_FitColorTversky>
0.641 

> <ROCS_FitTverskyCombo>
2.321 

> <ROCS_ColorScore>
-6.494

> <ROCS_Overlap>
2046.526

> <ROCS_Rank>
271                 

$$$$
untitled-dbase-953_1070
  -OEChem-11132311063D

 43 46  0     1  0  0  0  0  0999 V2000
   13.8116   15.8754   20.7067 C   0  0  0  0  0  0  0  0  0  0  0  0
   11.7698   14.9111   19.8788 C   0  0  0  0  0  0  0  0  0  0  0  0
   14.0115   16.4041   19.4417 C   0  0  0  0  0  0  0  0  0  0  0  0
   12.0610   15.4831   18.6509 C   0  0  0  0  0  0  0  0  0  0  0  0
   12.6669   15.1159   20.9212 C   0  0  0  0  0  0  0  0  0  0  0  0
   11.0823   10.2011   22.6886 C   0  0  0  0  0  0  0  0  0  0  0  0
   10.5275   13.2334   23.2832 C   0  0  0  0  0  0  0  0  0  0  0  0
   10.2030    7.9339   21.8699 C   0  0  0  0  0  0  0  0  0  0  0  0
   11.6891    7.9254   21.6732 C   0  0  0  0  0  0  0  0  0  0  0  0
    7.2767   11.1633   23.4506 C   0  0  0  0  0  0  0  0  0  0  0  0
    7.9545    9.8347   23.8530 C   0  0  0  0  0  0  0  0  0  0  0  0
    8.8065   11.5736   25.2150 C   0  0  0  0  0  0  0  0  0  0  0  0
   11.0851    8.7112   22.7885 C   0  0  0  0  0  0  0  0  0  0  0  0
    9.5348   12.1451   23.0089 C   0  0  2  0  0  0  0  0  0  0  0  0
    8.2937   12.2261   23.9212 C   0  0  1  0  0  0  0  0  0  0  0  0
    9.2711   10.3101   24.4956 C   0  0  2  0  0  0  0  0  0  0  0  0
   12.4009   14.5185   22.2727 C   0  0  0  0  0  0  0  0  0  0  0  0
   13.1627   16.2269   18.4045 N   0  0  0  0  0  0  0  0  0  0  0  0
   10.1049   10.8619   23.4126 N   0  0  0  0  0  0  0  0  0  0  0  0
   11.3712   13.5056   22.2232 N   0  0  0  0  0  0  0  0  0  0  0  0
   11.9320   10.7512   21.9943 O   0  0  0  0  0  0  0  0  0  0  0  0
   10.5289   13.7885   24.3756 O   0  0  0  0  0  0  0  0  0  0  0  0
   14.5313   16.0529   21.4987 H   0  0  0  0  0  0  0  0  0  0  0  0
   10.8682   14.3237   20.0151 H   0  0  0  0  0  0  0  0  0  0  0  0
   14.8896   17.0029   19.2225 H   0  0  0  0  0  0  0  0  0  0  0  0
   11.3931   15.3531   17.8057 H   0  0  0  0  0  0  0  0  0  0  0  0
    9.6010    8.4583   21.1377 H   0  0  0  0  0  0  0  0  0  0  0  0
    9.7418    7.0396   22.2708 H   0  0  0  0  0  0  0  0  0  0  0  0
   12.2283    7.0250   21.9413 H   0  0  0  0  0  0  0  0  0  0  0  0
   12.0844    8.4425   20.8073 H   0  0  0  0  0  0  0  0  0  0  0  0
    7.0822   11.2158   22.3749 H   0  0  0  0  0  0  0  0  0  0  0  0
    6.3230   11.2737   23.9788 H   0  0  0  0  0  0  0  0  0  0  0  0
    7.3341    9.3000   24.5812 H   0  0  0  0  0  0  0  0  0  0  0  0
    8.1157    9.1768   22.9928 H   0  0  0  0  0  0  0  0  0  0  0  0
    9.6229   12.1223   25.6943 H   0  0  0  0  0  0  0  0  0  0  0  0
    8.0145   11.3917   25.9497 H   0  0  0  0  0  0  0  0  0  0  0  0
   11.2169    8.3533   23.7928 H   0  0  0  0  0  0  0  0  0  0  0  0
    9.2973   12.1392   21.9381 H   0  0  0  0  0  0  0  0  0  0  0  0
    7.8768   13.2279   24.0442 H   0  0  0  0  0  0  0  0  0  0  0  0
    9.7787    9.5610   25.1044 H   0  0  0  0  0  0  0  0  0  0  0  0
   13.3088   14.0571   22.6763 H   0  0  0  0  0  0  0  0  0  0  0  0
   12.0816   15.2860   22.9856 H   0  0  0  0  0  0  0  0  0  0  0  0
   11.2625   12.9680   21.3684 H   0  0  0  0  0  0  0  0  0  0  0  0
  1  3  1  0  0  0  0
  1  5  2  0  0  0  0
  2  4  2  0  0  0  0
  2  5  1  0  0  0  0
  3 18  2  0  0  0  0
  4 18  1  0  0  0  0
  5 17  1  0  0  0  0
  6 13  1  0  0  0  0
  6 19  1  0  0  0  0
  6 21  2  0  0  0  0
  7 14  1  0  0  0  0
  7 20  1  0  0  0  0
  7 22  2  0  0  0  0
  8  9  1  0  0  0  0
  8 13  1  0  0  0  0
  9 13  1  0  0  0  0
 10 11  1  0  0  0  0
 10 15  1  0  0  0  0
 11 16  1  0  0  0  0
 12 15  1  0  0  0  0
 12 16  1  0  0  0  0
 14 15  1  0  0  0  0
 14 19  1  0  0  0  0
 16 19  1  0  0  0  0
 17 20  1  0  0  0  0
  1 23  1  0  0  0  0
  2 24  1  0  0  0  0
  3 25  1  0  0  0  0
  4 26  1  0  0  0  0
  8 27  1  0  0  0  0
  8 28  1  0  0  0  0
  9 29  1  0  0  0  0
  9 30  1  0  0  0  0
 10 31  1  0  0  0  0
 10 32  1  0  0  0  0
 11 33  1  0  0  0  0
 11 34  1  0  0  0  0
 12 35  1  0  0  0  0
 12 36  1  0  0  0  0
 13 37  1  0  0  0  0
 14 38  1  0  0  0  0
 15 39  1  0  0  0  0
 16 40  1  0  0  0  0
 17 41  1  0  0  0  0
 17 42  1  0  0  0  0
 20 43  1  0  0  0  0
M  END
> <Catalog ID>
Z107726352

> <PlateID>
1041831-R-12

> <Well>
H04

> <MW (desalted)>
299.368

> <ClogP>
0.322

> <HBD>
1

> <TPSA>
62.300

> <RotBonds>
4

> <ROCS_ShapeQuery>
A71EV2A-x0451_0A_A71EV2A-x0310_0A_A71EV2A-x0416_0A_peptide

> <ROCS_TanimotoCombo>
0.525 

> <ROCS_ShapeTanimoto>
0.301 

> <ROCS_ColorTanimoto>
0.224 

> <ROCS_RefTversky>
0.275 

> <ROCS_RefColorTversky>
0.256 

> <ROCS_RefTverskyCombo>
0.532 

> <ROCS_FitTversky>
1.449 

> <ROCS_FitColorTversky>
0.635 

> <ROCS_FitTverskyCombo>
2.084 

> <ROCS_ColorScore>
-7.870

> <ROCS_Overlap>
1912.717

> <ROCS_Rank>
272                 

$$$$
untitled-dbase-2191_698
  -OEChem-11132311063D

 50 52  0     1  0  0  0  0  0999 V2000
   10.5663   13.2982   23.3623 C   0  0  0  0  0  0  0  0  0  0  0  0
   13.2366   16.1724   18.5256 C   0  0  0  0  0  0  0  0  0  0  0  0
   14.4011   15.9167   19.4841 C   0  0  0  0  0  0  0  0  0  0  0  0
   11.9668   15.8377   19.3022 C   0  0  0  0  0  0  0  0  0  0  0  0
   13.7746   15.4585   20.7970 C   0  0  0  0  0  0  0  0  0  0  0  0
    8.5344   11.1327   25.9663 C   0  0  0  0  0  0  0  0  0  0  0  0
   10.1160   10.9683   22.6628 C   0  0  0  0  0  0  0  0  0  0  0  0
    8.2768   12.2371   23.6841 C   0  0  0  0  0  0  0  0  0  0  0  0
    7.5166   11.9894   26.6894 C   0  0  0  0  0  0  0  0  0  0  0  0
   12.4354   14.8614   20.3767 C   0  0  0  0  0  0  0  0  0  0  0  0
    9.7563    9.7891   23.5651 C   0  0  2  0  0  0  0  0  0  0  0  0
    6.4478   10.9644   24.8767 C   0  0  1  0  0  0  0  0  0  0  0  0
    7.9529   11.0108   24.5626 C   0  0  2  0  0  0  0  0  0  0  0  0
   10.0345    8.4651   22.8655 C   0  0  0  0  0  0  0  0  0  0  0  0
    5.8994    9.5761   25.2005 C   0  0  0  0  0  0  0  0  0  0  0  0
   11.6044   13.4074   22.2744 C   0  0  0  0  0  0  0  0  0  0  0  0
   11.4545   14.7217   21.5276 C   0  0  0  0  0  0  0  0  0  0  0  0
    9.6854   12.2226   23.2761 N   0  0  0  0  0  0  0  0  0  0  0  0
   10.5375   14.1461   24.2577 O   0  0  0  0  0  0  0  0  0  0  0  0
    6.2546   11.7952   26.0370 O   0  0  0  0  0  0  0  0  0  0  0  0
    8.3622    9.8192   23.8907 O   0  0  0  0  0  0  0  0  0  0  0  0
   13.2232   17.2073   18.1685 H   0  0  0  0  0  0  0  0  0  0  0  0
   13.3300   15.5234   17.6471 H   0  0  0  0  0  0  0  0  0  0  0  0
   15.0498   15.1327   19.0768 H   0  0  0  0  0  0  0  0  0  0  0  0
   15.0166   16.8106   19.6260 H   0  0  0  0  0  0  0  0  0  0  0  0
   11.5593   16.7503   19.7544 H   0  0  0  0  0  0  0  0  0  0  0  0
   11.1932   15.4086   18.6578 H   0  0  0  0  0  0  0  0  0  0  0  0
   14.4070   14.7366   21.3228 H   0  0  0  0  0  0  0  0  0  0  0  0
   13.6278   16.3215   21.4581 H   0  0  0  0  0  0  0  0  0  0  0  0
    9.4991   11.6635   25.9351 H   0  0  0  0  0  0  0  0  0  0  0  0
    8.7019   10.1854   26.4936 H   0  0  0  0  0  0  0  0  0  0  0  0
   11.1912   10.9799   22.4522 H   0  0  0  0  0  0  0  0  0  0  0  0
    9.5895   10.8971   21.7019 H   0  0  0  0  0  0  0  0  0  0  0  0
    7.6951   12.1998   22.7556 H   0  0  0  0  0  0  0  0  0  0  0  0
    8.0048   13.1609   24.1981 H   0  0  0  0  0  0  0  0  0  0  0  0
    7.4029   11.6791   27.7354 H   0  0  0  0  0  0  0  0  0  0  0  0
    7.7780   13.0534   26.6728 H   0  0  0  0  0  0  0  0  0  0  0  0
   12.6036   13.8754   19.9231 H   0  0  0  0  0  0  0  0  0  0  0  0
   10.3477    9.8202   24.4841 H   0  0  0  0  0  0  0  0  0  0  0  0
    5.8664   11.4011   24.0696 H   0  0  0  0  0  0  0  0  0  0  0  0
    9.4580    8.4027   21.9425 H   0  0  0  0  0  0  0  0  0  0  0  0
    9.7548    7.6348   23.5140 H   0  0  0  0  0  0  0  0  0  0  0  0
   11.0951    8.3855   22.6263 H   0  0  0  0  0  0  0  0  0  0  0  0
    6.4742    9.1240   26.0105 H   0  0  0  0  0  0  0  0  0  0  0  0
    5.9642    8.9318   24.3222 H   0  0  0  0  0  0  0  0  0  0  0  0
    4.8548    9.6466   25.5081 H   0  0  0  0  0  0  0  0  0  0  0  0
   11.4386   12.5688   21.5974 H   0  0  0  0  0  0  0  0  0  0  0  0
   12.5883   13.3091   22.7324 H   0  0  0  0  0  0  0  0  0  0  0  0
   11.5788   15.5703   22.2109 H   0  0  0  0  0  0  0  0  0  0  0  0
   10.4359   14.7757   21.1261 H   0  0  0  0  0  0  0  0  0  0  0  0
  1 16  1  0  0  0  0
  1 18  1  0  0  0  0
  1 19  2  0  0  0  0
  2  3  1  0  0  0  0
  2  4  1  0  0  0  0
  3  5  1  0  0  0  0
  4 10  1  0  0  0  0
  5 10  1  0  0  0  0
  6  9  1  0  0  0  0
  6 13  1  0  0  0  0
  7 11  1  0  0  0  0
  7 18  1  0  0  0  0
  8 13  1  0  0  0  0
  8 18  1  0  0  0  0
  9 20  1  0  0  0  0
 10 17  1  0  0  0  0
 11 14  1  0  0  0  0
 11 21  1  0  0  0  0
 12 13  1  0  0  0  0
 12 15  1  0  0  0  0
 12 20  1  0  0  0  0
 13 21  1  0  0  0  0
 16 17  1  0  0  0  0
  2 22  1  0  0  0  0
  2 23  1  0  0  0  0
  3 24  1  0  0  0  0
  3 25  1  0  0  0  0
  4 26  1  0  0  0  0
  4 27  1  0  0  0  0
  5 28  1  0  0  0  0
  5 29  1  0  0  0  0
  6 30  1  0  0  0  0
  6 31  1  0  0  0  0
  7 32  1  0  0  0  0
  7 33  1  0  0  0  0
  8 34  1  0  0  0  0
  8 35  1  0  0  0  0
  9 36  1  0  0  0  0
  9 37  1  0  0  0  0
 10 38  1  0  0  0  0
 11 39  1  0  0  0  0
 12 40  1  0  0  0  0
 14 41  1  0  0  0  0
 14 42  1  0  0  0  0
 14 43  1  0  0  0  0
 15 44  1  0  0  0  0
 15 45  1  0  0  0  0
 15 46  1  0  0  0  0
 16 47  1  0  0  0  0
 16 48  1  0  0  0  0
 17 49  1  0  0  0  0
 17 50  1  0  0  0  0
M  END
> <Catalog ID>
Z1934728107

> <PlateID>
1041831-R-28

> <Well>
D02

> <MW (desalted)>
295.417

> <ClogP>
2.533

> <HBD>
0

> <TPSA>
38.770

> <RotBonds>
3

> <ROCS_ShapeQuery>
A71EV2A-x0451_0A_A71EV2A-x0310_0A_A71EV2A-x0416_0A_peptide

> <ROCS_TanimotoCombo>
0.525 

> <ROCS_ShapeTanimoto>
0.344 

> <ROCS_ColorTanimoto>
0.181 

> <ROCS_RefTversky>
0.301 

> <ROCS_RefColorTversky>
0.190 

> <ROCS_RefTverskyCombo>
0.491 

> <ROCS_FitTversky>
1.695 

> <ROCS_FitColorTversky>
0.792 

> <ROCS_FitTverskyCombo>
2.486 

> <ROCS_ColorScore>
-5.768

> <ROCS_Overlap>
2092.633

> <ROCS_Rank>
273                 

$$$$
untitled-dbase-621_10
  -OEChem-11132311063D

 43 46  0     1  0  0  0  0  0999 V2000
    6.1832   10.9854   25.8367 C   0  0  0  0  0  0  0  0  0  0  0  0
    6.7603   12.2237   26.1378 C   0  0  0  0  0  0  0  0  0  0  0  0
    6.7894   10.1270   24.9181 C   0  0  0  0  0  0  0  0  0  0  0  0
    7.9459   12.6246   25.5185 C   0  0  0  0  0  0  0  0  0  0  0  0
    7.9738   10.5202   24.3057 C   0  0  0  0  0  0  0  0  0  0  0  0
    8.5387   11.7679   24.5997 C   0  0  0  0  0  0  0  0  0  0  0  0
   10.5430   13.0750   23.8985 C   0  0  0  0  0  0  0  0  0  0  0  0
    8.5469    7.3931   23.8257 C   0  0  0  0  0  0  0  0  0  0  0  0
    7.7073    7.7088   22.5900 C   0  0  0  0  0  0  0  0  0  0  0  0
    9.5350    8.5455   23.9672 C   0  0  0  0  0  0  0  0  0  0  0  0
    8.0833    9.1247   22.1492 C   0  0  0  0  0  0  0  0  0  0  0  0
   12.8699   13.8760   23.4105 C   0  0  0  0  0  0  0  0  0  0  0  0
   12.3131   14.4820   21.1626 C   0  0  0  0  0  0  0  0  0  0  0  0
    9.8336   10.8423   22.8890 C   0  0  0  0  0  0  0  0  0  0  0  0
   11.6700   13.0683   22.9200 C   0  0  2  0  0  0  0  0  0  0  0  0
   13.0148   15.0063   22.4014 C   0  0  1  0  0  0  0  0  0  0  0  0
    8.8332    9.7513   23.3280 C   0  0  0  0  0  0  0  0  0  0  0  0
   11.1821   13.7383   21.7163 N   0  0  0  0  0  0  0  0  0  0  0  0
    9.7037   11.9709   23.8317 N   0  0  0  0  0  0  0  0  0  0  0  0
   10.4359   14.0169   24.6842 O   0  0  0  0  0  0  0  0  0  0  0  0
   12.3530   16.1672   22.8915 O   0  0  0  0  0  0  0  0  0  0  0  0
    5.2580   10.6896   26.3235 H   0  0  0  0  0  0  0  0  0  0  0  0
    6.2772   12.8818   26.8550 H   0  0  0  0  0  0  0  0  0  0  0  0
    6.3295    9.1695   24.7035 H   0  0  0  0  0  0  0  0  0  0  0  0
    8.3565   13.5963   25.7635 H   0  0  0  0  0  0  0  0  0  0  0  0
    7.9049    7.3267   24.7112 H   0  0  0  0  0  0  0  0  0  0  0  0
    9.0627    6.4321   23.7316 H   0  0  0  0  0  0  0  0  0  0  0  0
    7.9039    6.9924   21.7848 H   0  0  0  0  0  0  0  0  0  0  0  0
    6.6396    7.6397   22.8252 H   0  0  0  0  0  0  0  0  0  0  0  0
    9.8216    8.7060   25.0121 H   0  0  0  0  0  0  0  0  0  0  0  0
   10.4450    8.2914   23.4086 H   0  0  0  0  0  0  0  0  0  0  0  0
    8.7444    9.0487   21.2762 H   0  0  0  0  0  0  0  0  0  0  0  0
    7.2020    9.6975   21.8408 H   0  0  0  0  0  0  0  0  0  0  0  0
   12.7628   14.2466   24.4358 H   0  0  0  0  0  0  0  0  0  0  0  0
   13.7578   13.2334   23.3650 H   0  0  0  0  0  0  0  0  0  0  0  0
   11.9674   15.2762   20.4944 H   0  0  0  0  0  0  0  0  0  0  0  0
   12.9605   13.7988   20.6014 H   0  0  0  0  0  0  0  0  0  0  0  0
   10.8705   10.4911   22.8713 H   0  0  0  0  0  0  0  0  0  0  0  0
    9.5948   11.2354   21.8926 H   0  0  0  0  0  0  0  0  0  0  0  0
   11.9341   12.0379   22.7117 H   0  0  0  0  0  0  0  0  0  0  0  0
   14.0632   15.2612   22.2192 H   0  0  0  0  0  0  0  0  0  0  0  0
   10.4588   14.4166   21.9663 H   0  0  0  0  0  0  0  0  0  0  0  0
   11.4204   15.9268   23.0095 H   0  0  0  0  0  0  0  0  0  0  0  0
  1  2  2  0  0  0  0
  1  3  1  0  0  0  0
  2  4  1  0  0  0  0
  3  5  2  0  0  0  0
  4  6  2  0  0  0  0
  5  6  1  0  0  0  0
  5 17  1  0  0  0  0
  6 19  1  0  0  0  0
  7 15  1  0  0  0  0
  7 19  1  0  0  0  0
  7 20  2  0  0  0  0
  8  9  1  0  0  0  0
  8 10  1  0  0  0  0
  9 11  1  0  0  0  0
 10 17  1  0  0  0  0
 11 17  1  0  0  0  0
 12 15  1  0  0  0  0
 12 16  1  0  0  0  0
 13 16  1  0  0  0  0
 13 18  1  0  0  0  0
 14 17  1  0  0  0  0
 14 19  1  0  0  0  0
 15 18  1  0  0  0  0
 16 21  1  0  0  0  0
  1 22  1  0  0  0  0
  2 23  1  0  0  0  0
  3 24  1  0  0  0  0
  4 25  1  0  0  0  0
  8 26  1  0  0  0  0
  8 27  1  0  0  0  0
  9 28  1  0  0  0  0
  9 29  1  0  0  0  0
 10 30  1  0  0  0  0
 10 31  1  0  0  0  0
 11 32  1  0  0  0  0
 11 33  1  0  0  0  0
 12 34  1  0  0  0  0
 12 35  1  0  0  0  0
 13 36  1  0  0  0  0
 13 37  1  0  0  0  0
 14 38  1  0  0  0  0
 14 39  1  0  0  0  0
 15 40  1  0  0  0  0
 16 41  1  0  0  0  0
 18 42  1  0  0  0  0
 21 43  1  0  0  0  0
M  END
> <Catalog ID>
Z1459129132

> <PlateID>
1041831-R-08

> <Well>
G02

> <MW (desalted)>
286.369

> <ClogP>
1.853

> <HBD>
2

> <TPSA>
52.570

> <RotBonds>
1

> <ROCS_ShapeQuery>
A71EV2A-x0451_0A_A71EV2A-x0310_0A_A71EV2A-x0416_0A_peptide

> <ROCS_TanimotoCombo>
0.525 

> <ROCS_ShapeTanimoto>
0.359 

> <ROCS_ColorTanimoto>
0.166 

> <ROCS_RefTversky>
0.313 

> <ROCS_RefColorTversky>
0.189 

> <ROCS_RefTverskyCombo>
0.502 

> <ROCS_FitTversky>
1.699 

> <ROCS_FitColorTversky>
0.570 

> <ROCS_FitTverskyCombo>
2.269 

> <ROCS_ColorScore>
-5.789

> <ROCS_Overlap>
2171.125

> <ROCS_Rank>
274                 

$$$$
untitled-dbase-3239_7954
  -OEChem-11132311063D

 53 56  0     1  0  0  0  0  0999 V2000
    7.1501   12.8226   25.8580 C   0  0  0  0  0  0  0  0  0  0  0  0
    8.1118   12.9592   24.8529 C   0  0  0  0  0  0  0  0  0  0  0  0
    6.6408   11.5611   26.1922 C   0  0  0  0  0  0  0  0  0  0  0  0
    8.0374   10.5667   24.5262 C   0  0  0  0  0  0  0  0  0  0  0  0
    8.5522   11.8258   24.1839 C   0  0  0  0  0  0  0  0  0  0  0  0
    7.0867   10.4200   25.5262 C   0  0  0  0  0  0  0  0  0  0  0  0
    8.7243    7.3551   22.6290 C   0  0  0  0  0  0  0  0  0  0  0  0
    9.9002    7.4047   23.6053 C   0  0  0  0  0  0  0  0  0  0  0  0
    7.7715    8.4590   23.0729 C   0  0  0  0  0  0  0  0  0  0  0  0
    9.6999    8.6558   24.4623 C   0  0  0  0  0  0  0  0  0  0  0  0
   13.9981   13.0059   25.9761 C   0  0  0  0  0  0  0  0  0  0  0  0
   15.7297   13.7125   24.3090 C   0  0  0  0  0  0  0  0  0  0  0  0
    9.3937   10.3950   22.6010 C   0  0  0  0  0  0  0  0  0  0  0  0
   15.1383   12.4843   26.8390 C   0  0  0  0  0  0  0  0  0  0  0  0
   16.7774   13.1533   25.2612 C   0  0  0  0  0  0  0  0  0  0  0  0
   14.3925   13.0018   24.5022 C   0  0  0  0  0  0  0  0  0  0  0  0
    8.6960    9.5135   23.6820 C   0  0  0  0  0  0  0  0  0  0  0  0
    9.9718   12.8648   22.4084 C   0  0  0  0  0  0  0  0  0  0  0  0
   12.2746   12.7884   23.5031 C   0  0  0  0  0  0  0  0  0  0  0  0
   11.0494   13.6350   23.1718 C   0  0  2  0  0  0  0  0  0  0  0  0
    9.4952   11.7380   23.1700 N   0  0  1  0  0  0  0  0  0  0  0  0
   16.3288   13.2404   26.6142 O   0  0  0  0  0  0  0  0  0  0  0  0
   10.5047   14.1421   24.3906 O   0  0  0  0  0  0  0  0  0  0  0  0
   13.3793   13.6537   23.7474 O   0  0  0  0  0  0  0  0  0  0  0  0
    6.5847    9.2288   25.8627 F   0  0  0  0  0  0  0  0  0  0  0  0
    6.7919   13.7036   26.3842 H   0  0  0  0  0  0  0  0  0  0  0  0
    8.4927   13.9456   24.6086 H   0  0  0  0  0  0  0  0  0  0  0  0
    5.8945   11.4730   26.9762 H   0  0  0  0  0  0  0  0  0  0  0  0
    9.0642    7.5372   21.6074 H   0  0  0  0  0  0  0  0  0  0  0  0
    8.2478    6.3745   22.6400 H   0  0  0  0  0  0  0  0  0  0  0  0
    9.9074    6.5073   24.2372 H   0  0  0  0  0  0  0  0  0  0  0  0
   10.8634    7.4282   23.0810 H   0  0  0  0  0  0  0  0  0  0  0  0
    7.2683    8.8606   22.1937 H   0  0  0  0  0  0  0  0  0  0  0  0
    7.0179    8.0911   23.7632 H   0  0  0  0  0  0  0  0  0  0  0  0
    9.3700    8.3979   25.4759 H   0  0  0  0  0  0  0  0  0  0  0  0
   10.6637    9.1758   24.5509 H   0  0  0  0  0  0  0  0  0  0  0  0
   13.0904   12.4114   26.1298 H   0  0  0  0  0  0  0  0  0  0  0  0
   13.7495   14.0321   26.2763 H   0  0  0  0  0  0  0  0  0  0  0  0
   15.5941   14.7853   24.4985 H   0  0  0  0  0  0  0  0  0  0  0  0
   16.0635   13.6223   23.2692 H   0  0  0  0  0  0  0  0  0  0  0  0
   10.3782   10.0089   22.3207 H   0  0  0  0  0  0  0  0  0  0  0  0
    8.7791   10.4398   21.6931 H   0  0  0  0  0  0  0  0  0  0  0  0
   14.8782   12.5798   27.8979 H   0  0  0  0  0  0  0  0  0  0  0  0
   15.3369   11.4245   26.6408 H   0  0  0  0  0  0  0  0  0  0  0  0
   17.0164   12.1102   25.0234 H   0  0  0  0  0  0  0  0  0  0  0  0
   17.7029   13.7318   25.1788 H   0  0  0  0  0  0  0  0  0  0  0  0
   14.4647   11.9674   24.1460 H   0  0  0  0  0  0  0  0  0  0  0  0
    9.1203   13.5211   22.1993 H   0  0  0  0  0  0  0  0  0  0  0  0
   10.3658   12.5104   21.4502 H   0  0  0  0  0  0  0  0  0  0  0  0
   12.5365   12.1317   22.6679 H   0  0  0  0  0  0  0  0  0  0  0  0
   12.1174   12.1905   24.4065 H   0  0  0  0  0  0  0  0  0  0  0  0
   11.3592   14.5055   22.5815 H   0  0  0  0  0  0  0  0  0  0  0  0
   11.2228   14.6186   24.8335 H   0  0  0  0  0  0  0  0  0  0  0  0
  1  2  2  0  0  0  0
  1  3  1  0  0  0  0
  2  5  1  0  0  0  0
  3  6  2  0  0  0  0
  4  5  2  0  0  0  0
  4  6  1  0  0  0  0
  4 17  1  0  0  0  0
  5 21  1  0  0  0  0
  6 25  1  0  0  0  0
  7  8  1  0  0  0  0
  7  9  1  0  0  0  0
  8 10  1  0  0  0  0
  9 17  1  0  0  0  0
 10 17  1  0  0  0  0
 11 14  1  0  0  0  0
 11 16  1  0  0  0  0
 12 15  1  0  0  0  0
 12 16  1  0  0  0  0
 13 17  1  0  0  0  0
 13 21  1  0  0  0  0
 14 22  1  0  0  0  0
 15 22  1  0  0  0  0
 16 24  1  0  0  0  0
 18 20  1  0  0  0  0
 18 21  1  0  0  0  0
 19 20  1  0  0  0  0
 19 24  1  0  0  0  0
 20 23  1  0  0  0  0
  1 26  1  0  0  0  0
  2 27  1  0  0  0  0
  3 28  1  0  0  0  0
  7 29  1  0  0  0  0
  7 30  1  0  0  0  0
  8 31  1  0  0  0  0
  8 32  1  0  0  0  0
  9 33  1  0  0  0  0
  9 34  1  0  0  0  0
 10 35  1  0  0  0  0
 10 36  1  0  0  0  0
 11 37  1  0  0  0  0
 11 38  1  0  0  0  0
 12 39  1  0  0  0  0
 12 40  1  0  0  0  0
 13 41  1  0  0  0  0
 13 42  1  0  0  0  0
 14 43  1  0  0  0  0
 14 44  1  0  0  0  0
 15 45  1  0  0  0  0
 15 46  1  0  0  0  0
 16 47  1  0  0  0  0
 18 48  1  0  0  0  0
 18 49  1  0  0  0  0
 19 50  1  0  0  0  0
 19 51  1  0  0  0  0
 20 52  1  0  0  0  0
 23 53  1  0  0  0  0
M  END
> <Catalog ID>
Z1395173774

> <PlateID>
1041831-R-41

> <Well>
D10

> <MW (desalted)>
349.440

> <ClogP>
2.914

> <HBD>
1

> <TPSA>
41.930

> <RotBonds>
5

> <ROCS_ShapeQuery>
A71EV2A-x0451_0A_A71EV2A-x0310_0A_A71EV2A-x0416_0A_peptide

> <ROCS_TanimotoCombo>
0.524 

> <ROCS_ShapeTanimoto>
0.352 

> <ROCS_ColorTanimoto>
0.172 

> <ROCS_RefTversky>
0.314 

> <ROCS_RefColorTversky>
0.191 

> <ROCS_RefTverskyCombo>
0.505 

> <ROCS_FitTversky>
1.528 

> <ROCS_FitColorTversky>
0.635 

> <ROCS_FitTverskyCombo>
2.163 

> <ROCS_ColorScore>
-5.841

> <ROCS_Overlap>
2182.175

> <ROCS_Rank>
275                 

$$$$
untitled-dbase-516_1907
  -OEChem-11132311063D

 44 46  0     0  0  0  0  0  0999 V2000
    3.1805   11.3092   29.1483 C   0  0  0  0  0  0  0  0  0  0  0  0
    2.7783   10.1228   28.5295 C   0  0  0  0  0  0  0  0  0  0  0  0
    4.3246   11.9962   28.7198 C   0  0  0  0  0  0  0  0  0  0  0  0
    3.5011    9.5798   27.4631 C   0  0  0  0  0  0  0  0  0  0  0  0
    6.2394   11.8445   26.9422 C   0  0  0  0  0  0  0  0  0  0  0  0
    8.1983   12.0063   24.4969 C   0  0  0  0  0  0  0  0  0  0  0  0
    5.0667   11.4683   27.6488 C   0  0  0  0  0  0  0  0  0  0  0  0
    4.6334   10.2850   27.0594 C   0  0  0  0  0  0  0  0  0  0  0  0
    7.5524   10.8675   25.0142 C   0  0  0  0  0  0  0  0  0  0  0  0
    6.4402   10.8795   25.9825 C   0  0  0  0  0  0  0  0  0  0  0  0
    9.1529   11.5034   23.6471 C   0  0  0  0  0  0  0  0  0  0  0  0
   10.7340   13.3896   23.0787 C   0  0  0  0  0  0  0  0  0  0  0  0
   11.4837   16.1063   22.0350 C   0  0  0  0  0  0  0  0  0  0  0  0
   13.2791   14.8870   20.7561 C   0  0  0  0  0  0  0  0  0  0  0  0
    9.8078    9.1674   22.9854 C   0  0  0  0  0  0  0  0  0  0  0  0
    8.9472    8.2483   22.1289 C   0  0  0  0  0  0  0  0  0  0  0  0
   12.4120   14.9008   22.0065 C   0  0  0  0  0  0  0  0  0  0  0  0
    8.0542    9.7270   24.5331 N   0  0  0  0  0  0  0  0  0  0  0  0
    9.0256   10.1467   23.7045 N   0  0  0  0  0  0  0  0  0  0  0  0
   10.0794   12.1404   22.8665 N   0  0  0  0  0  0  0  0  0  0  0  0
   11.6199   13.6929   22.0398 N   0  0  0  0  0  0  0  0  0  0  0  0
   10.5576   14.1251   24.0469 O   0  0  0  0  0  0  0  0  0  0  0  0
    5.4715    9.9290   26.0454 O   0  0  0  0  0  0  0  0  0  0  0  0
    8.0001    7.5768   22.9494 O   0  0  0  0  0  0  0  0  0  0  0  0
    2.5972   11.7074   29.9746 H   0  0  0  0  0  0  0  0  0  0  0  0
    1.8857    9.6120   28.8827 H   0  0  0  0  0  0  0  0  0  0  0  0
    4.6247   12.9173   29.2101 H   0  0  0  0  0  0  0  0  0  0  0  0
    3.1942    8.6606   26.9783 H   0  0  0  0  0  0  0  0  0  0  0  0
    6.8562   12.7152   27.1195 H   0  0  0  0  0  0  0  0  0  0  0  0
    8.0015   13.0480   24.7089 H   0  0  0  0  0  0  0  0  0  0  0  0
   10.8326   16.1180   21.1549 H   0  0  0  0  0  0  0  0  0  0  0  0
   10.8496   16.1019   22.9287 H   0  0  0  0  0  0  0  0  0  0  0  0
   12.0583   17.0390   22.0441 H   0  0  0  0  0  0  0  0  0  0  0  0
   12.6586   14.8778   19.8534 H   0  0  0  0  0  0  0  0  0  0  0  0
   13.9200   13.9995   20.7359 H   0  0  0  0  0  0  0  0  0  0  0  0
   13.9217   15.7731   20.7046 H   0  0  0  0  0  0  0  0  0  0  0  0
   10.5362    9.7114   22.3730 H   0  0  0  0  0  0  0  0  0  0  0  0
   10.3626    8.5876   23.7320 H   0  0  0  0  0  0  0  0  0  0  0  0
    8.3935    8.8393   21.3926 H   0  0  0  0  0  0  0  0  0  0  0  0
    9.5489    7.5006   21.6020 H   0  0  0  0  0  0  0  0  0  0  0  0
   13.0529   14.9097   22.8948 H   0  0  0  0  0  0  0  0  0  0  0  0
   10.3739   11.6789   21.9851 H   0  0  0  0  0  0  0  0  0  0  0  0
   11.7108   13.0335   21.2734 H   0  0  0  0  0  0  0  0  0  0  0  0
    7.4569    8.2634   23.3689 H   0  0  0  0  0  0  0  0  0  0  0  0
  1  2  2  0  0  0  0
  1  3  1  0  0  0  0
  2  4  1  0  0  0  0
  3  7  2  0  0  0  0
  4  8  2  0  0  0  0
  5  7  1  0  0  0  0
  5 10  2  0  0  0  0
  6  9  1  0  0  0  0
  6 11  2  0  0  0  0
  7  8  1  0  0  0  0
  8 23  1  0  0  0  0
  9 10  1  0  0  0  0
  9 18  2  0  0  0  0
 10 23  1  0  0  0  0
 11 19  1  0  0  0  0
 11 20  1  0  0  0  0
 12 20  1  0  0  0  0
 12 21  1  0  0  0  0
 12 22  2  0  0  0  0
 13 17  1  0  0  0  0
 14 17  1  0  0  0  0
 15 16  1  0  0  0  0
 15 19  1  0  0  0  0
 16 24  1  0  0  0  0
 17 21  1  0  0  0  0
 18 19  1  0  0  0  0
  1 25  1  0  0  0  0
  2 26  1  0  0  0  0
  3 27  1  0  0  0  0
  4 28  1  0  0  0  0
  5 29  1  0  0  0  0
  6 30  1  0  0  0  0
 13 31  1  0  0  0  0
 13 32  1  0  0  0  0
 13 33  1  0  0  0  0
 14 34  1  0  0  0  0
 14 35  1  0  0  0  0
 14 36  1  0  0  0  0
 15 37  1  0  0  0  0
 15 38  1  0  0  0  0
 16 39  1  0  0  0  0
 16 40  1  0  0  0  0
 17 41  1  0  0  0  0
 20 42  1  0  0  0  0
 21 43  1  0  0  0  0
 24 44  1  0  0  0  0
M  END
> <Catalog ID>
Z1088501896

> <PlateID>
1041831-R-07

> <Well>
D07

> <MW (desalted)>
328.366

> <ClogP>
2.707

> <HBD>
3

> <TPSA>
92.320

> <RotBonds>
5

> <ROCS_ShapeQuery>
A71EV2A-x0451_0A_A71EV2A-x0310_0A_A71EV2A-x0416_0A_peptide

> <ROCS_TanimotoCombo>
0.524 

> <ROCS_ShapeTanimoto>
0.335 

> <ROCS_ColorTanimoto>
0.189 

> <ROCS_RefTversky>
0.302 

> <ROCS_RefColorTversky>
0.222 

> <ROCS_RefTverskyCombo>
0.523 

> <ROCS_FitTversky>
1.494 

> <ROCS_FitColorTversky>
0.563 

> <ROCS_FitTverskyCombo>
2.057 

> <ROCS_ColorScore>
-6.797

> <ROCS_Overlap>
2098.186

> <ROCS_Rank>
276                 

$$$$
untitled-dbase-1783_282
  -OEChem-11132311063D

 47 49  0     0  0  0  0  0  0999 V2000
    6.2083   10.9564   25.6951 C   0  0  0  0  0  0  0  0  0  0  0  0
    6.8420   12.1187   26.1428 C   0  0  0  0  0  0  0  0  0  0  0  0
    6.7785   10.1935   24.6780 C   0  0  0  0  0  0  0  0  0  0  0  0
    8.0515   12.5367   25.5783 C   0  0  0  0  0  0  0  0  0  0  0  0
    7.9852   10.6048   24.1214 C   0  0  0  0  0  0  0  0  0  0  0  0
    8.6218   11.7757   24.5673 C   0  0  0  0  0  0  0  0  0  0  0  0
   10.8014   12.9397   23.9201 C   0  0  0  0  0  0  0  0  0  0  0  0
    8.4897    7.5336   23.3404 C   0  0  0  0  0  0  0  0  0  0  0  0
    7.6491    7.9589   22.1391 C   0  0  0  0  0  0  0  0  0  0  0  0
    9.5025    8.6520   23.5553 C   0  0  0  0  0  0  0  0  0  0  0  0
    8.0113    9.4149   21.8363 C   0  0  0  0  0  0  0  0  0  0  0  0
    9.7953   11.0359   22.6940 C   0  0  0  0  0  0  0  0  0  0  0  0
    8.7995    9.9182   23.0481 C   0  0  0  0  0  0  0  0  0  0  0  0
   11.7392   16.3986   19.7771 C   0  0  0  0  0  0  0  0  0  0  0  0
    9.3518   16.1658   20.3392 C   0  0  0  0  0  0  0  0  0  0  0  0
   11.8784   12.9882   22.8726 C   0  0  0  0  0  0  0  0  0  0  0  0
   11.4751   13.9211   21.7544 C   0  0  0  0  0  0  0  0  0  0  0  0
    9.7941   11.9965   23.8115 N   0  0  0  0  0  0  0  0  0  0  0  0
   10.7270   16.3615   20.8621 N   0  0  0  0  0  0  0  0  0  0  0  0
   10.8404   13.7648   24.8408 O   0  0  0  0  0  0  0  0  0  0  0  0
   12.3963   16.1165   22.8283 O   0  0  0  0  0  0  0  0  0  0  0  0
    9.9823   15.5099   23.1931 O   0  0  0  0  0  0  0  0  0  0  0  0
   11.1493   15.5603   22.3254 S   0  0  0  0  0  0  0  0  0  0  0  0
    5.2696   10.6465   26.1438 H   0  0  0  0  0  0  0  0  0  0  0  0
    6.3866   12.7092   26.9346 H   0  0  0  0  0  0  0  0  0  0  0  0
    6.2768    9.2934   24.3429 H   0  0  0  0  0  0  0  0  0  0  0  0
    8.4992   13.4567   25.9421 H   0  0  0  0  0  0  0  0  0  0  0  0
    7.8531    7.4166   24.2239 H   0  0  0  0  0  0  0  0  0  0  0  0
    8.9837    6.5723   23.1708 H   0  0  0  0  0  0  0  0  0  0  0  0
    7.8535    7.3253   21.2689 H   0  0  0  0  0  0  0  0  0  0  0  0
    6.5815    7.8573   22.3637 H   0  0  0  0  0  0  0  0  0  0  0  0
    9.8209    8.7139   24.6004 H   0  0  0  0  0  0  0  0  0  0  0  0
   10.3897    8.4369   22.9476 H   0  0  0  0  0  0  0  0  0  0  0  0
    8.6430    9.4318   20.9386 H   0  0  0  0  0  0  0  0  0  0  0  0
    7.1203   10.0137   21.6178 H   0  0  0  0  0  0  0  0  0  0  0  0
   10.8124   10.6682   22.5219 H   0  0  0  0  0  0  0  0  0  0  0  0
    9.4839   11.5921   21.8004 H   0  0  0  0  0  0  0  0  0  0  0  0
   12.7388   16.5449   20.2123 H   0  0  0  0  0  0  0  0  0  0  0  0
   11.7165   15.4492   19.2220 H   0  0  0  0  0  0  0  0  0  0  0  0
   11.5124   17.2292   19.0925 H   0  0  0  0  0  0  0  0  0  0  0  0
    8.6397   16.1451   21.1773 H   0  0  0  0  0  0  0  0  0  0  0  0
    9.0962   16.9935   19.6613 H   0  0  0  0  0  0  0  0  0  0  0  0
    9.3003   15.2136   19.7909 H   0  0  0  0  0  0  0  0  0  0  0  0
   12.0458   11.9711   22.5222 H   0  0  0  0  0  0  0  0  0  0  0  0
   12.7761   13.3556   23.3687 H   0  0  0  0  0  0  0  0  0  0  0  0
   10.5470   13.5682   21.2946 H   0  0  0  0  0  0  0  0  0  0  0  0
   12.2442   14.0013   20.9803 H   0  0  0  0  0  0  0  0  0  0  0  0
  1  2  2  0  0  0  0
  1  3  1  0  0  0  0
  2  4  1  0  0  0  0
  3  5  2  0  0  0  0
  4  6  2  0  0  0  0
  5  6  1  0  0  0  0
  5 13  1  0  0  0  0
  6 18  1  0  0  0  0
  7 16  1  0  0  0  0
  7 18  1  0  0  0  0
  7 20  2  0  0  0  0
  8  9  1  0  0  0  0
  8 10  1  0  0  0  0
  9 11  1  0  0  0  0
 10 13  1  0  0  0  0
 11 13  1  0  0  0  0
 12 13  1  0  0  0  0
 12 18  1  0  0  0  0
 14 19  1  0  0  0  0
 15 19  1  0  0  0  0
 16 17  1  0  0  0  0
 17 23  1  0  0  0  0
 19 23  1  0  0  0  0
 21 23  2  0  0  0  0
 22 23  2  0  0  0  0
  1 24  1  0  0  0  0
  2 25  1  0  0  0  0
  3 26  1  0  0  0  0
  4 27  1  0  0  0  0
  8 28  1  0  0  0  0
  8 29  1  0  0  0  0
  9 30  1  0  0  0  0
  9 31  1  0  0  0  0
 10 32  1  0  0  0  0
 10 33  1  0  0  0  0
 11 34  1  0  0  0  0
 11 35  1  0  0  0  0
 12 36  1  0  0  0  0
 12 37  1  0  0  0  0
 14 38  1  0  0  0  0
 14 39  1  0  0  0  0
 14 40  1  0  0  0  0
 15 41  1  0  0  0  0
 15 42  1  0  0  0  0
 15 43  1  0  0  0  0
 16 44  1  0  0  0  0
 16 45  1  0  0  0  0
 17 46  1  0  0  0  0
 17 47  1  0  0  0  0
M  END
> <Catalog ID>
Z1558568082

> <PlateID>
1041831-R-23

> <Well>
C04

> <MW (desalted)>
336.449

> <ClogP>
2.871

> <HBD>
0

> <TPSA>
57.690

> <RotBonds>
3

> <ROCS_ShapeQuery>
A71EV2A-x0451_0A_A71EV2A-x0310_0A_A71EV2A-x0416_0A_peptide

> <ROCS_TanimotoCombo>
0.524 

> <ROCS_ShapeTanimoto>
0.355 

> <ROCS_ColorTanimoto>
0.170 

> <ROCS_RefTversky>
0.311 

> <ROCS_RefColorTversky>
0.180 

> <ROCS_RefTverskyCombo>
0.491 

> <ROCS_FitTversky>
1.641 

> <ROCS_FitColorTversky>
0.750 

> <ROCS_FitTverskyCombo>
2.390 

> <ROCS_ColorScore>
-5.477

> <ROCS_Overlap>
2163.300

> <ROCS_Rank>
277                 

$$$$
untitled-dbase-491_4178
  -OEChem-11132311063D

 46 48  0     0  0  0  0  0  0999 V2000
    8.2592    9.7455   24.2651 C   0  0  0  0  0  0  0  0  0  0  0  0
    9.2475   10.1627   23.3535 C   0  0  0  0  0  0  0  0  0  0  0  0
    9.2058   11.5345   23.4059 C   0  0  0  0  0  0  0  0  0  0  0  0
   12.7404   15.6162   21.9851 C   0  0  0  0  0  0  0  0  0  0  0  0
   10.3072   13.7864   23.1597 C   0  0  0  0  0  0  0  0  0  0  0  0
   14.1088   15.5916   21.3323 C   0  0  0  0  0  0  0  0  0  0  0  0
   14.0594   16.0666   19.8841 C   0  0  0  0  0  0  0  0  0  0  0  0
   13.7046   14.9615   18.8922 C   0  0  0  0  0  0  0  0  0  0  0  0
   12.3078   14.3714   19.0746 C   0  0  0  0  0  0  0  0  0  0  0  0
    5.8564   12.7427   26.4178 C   0  0  0  0  0  0  0  0  0  0  0  0
    5.8209   14.2031   26.0801 C   0  0  0  0  0  0  0  0  0  0  0  0
   12.0973   13.7328   20.4433 C   0  0  0  0  0  0  0  0  0  0  0  0
    6.3311   13.2111   25.0654 C   0  0  0  0  0  0  0  0  0  0  0  0
   10.1240    9.3114   22.5310 C   0  0  0  0  0  0  0  0  0  0  0  0
   10.4337   14.7406   21.9879 C   0  0  0  0  0  0  0  0  0  0  0  0
    7.8087   13.1642   24.7160 C   0  0  0  0  0  0  0  0  0  0  0  0
    7.6354   10.7695   24.8537 N   0  0  0  0  0  0  0  0  0  0  0  0
    8.2333   11.8437   24.3107 N   0  0  0  0  0  0  0  0  0  0  0  0
   11.7989   14.7234   21.4791 N   0  0  0  0  0  0  0  0  0  0  0  0
    9.9602   12.5131   22.7158 N   0  0  0  0  0  0  0  0  0  0  0  0
   12.5205   16.4092   22.9041 O   0  0  0  0  0  0  0  0  0  0  0  0
   10.5061   14.1420   24.3170 O   0  0  0  0  0  0  0  0  0  0  0  0
    7.9649    8.7390   24.5268 H   0  0  0  0  0  0  0  0  0  0  0  0
   14.7452   16.2800   21.9029 H   0  0  0  0  0  0  0  0  0  0  0  0
   14.5622   14.6003   21.4315 H   0  0  0  0  0  0  0  0  0  0  0  0
   13.3556   16.9009   19.7756 H   0  0  0  0  0  0  0  0  0  0  0  0
   15.0506   16.4510   19.6133 H   0  0  0  0  0  0  0  0  0  0  0  0
   13.7785   15.3681   17.8761 H   0  0  0  0  0  0  0  0  0  0  0  0
   14.4505   14.1594   18.9579 H   0  0  0  0  0  0  0  0  0  0  0  0
   11.5429   15.1344   18.8857 H   0  0  0  0  0  0  0  0  0  0  0  0
   12.1674   13.5990   18.3081 H   0  0  0  0  0  0  0  0  0  0  0  0
    6.5927   12.4114   27.1396 H   0  0  0  0  0  0  0  0  0  0  0  0
    4.9130   12.2125   26.4645 H   0  0  0  0  0  0  0  0  0  0  0  0
    4.8542   14.6561   25.8977 H   0  0  0  0  0  0  0  0  0  0  0  0
    6.5344   14.8519   26.5728 H   0  0  0  0  0  0  0  0  0  0  0  0
   11.2576   13.0298   20.3890 H   0  0  0  0  0  0  0  0  0  0  0  0
   12.9760   13.1537   20.7471 H   0  0  0  0  0  0  0  0  0  0  0  0
    5.7021   12.9973   24.2100 H   0  0  0  0  0  0  0  0  0  0  0  0
    9.6632    9.0886   21.5534 H   0  0  0  0  0  0  0  0  0  0  0  0
   11.1027    9.7852   22.3369 H   0  0  0  0  0  0  0  0  0  0  0  0
   10.3474    8.3468   23.0209 H   0  0  0  0  0  0  0  0  0  0  0  0
   10.1753   15.7551   22.3076 H   0  0  0  0  0  0  0  0  0  0  0  0
    9.7397   14.4310   21.2003 H   0  0  0  0  0  0  0  0  0  0  0  0
    8.4186   13.4660   25.5751 H   0  0  0  0  0  0  0  0  0  0  0  0
    8.0343   13.8572   23.8976 H   0  0  0  0  0  0  0  0  0  0  0  0
   10.2798   12.2409   21.7886 H   0  0  0  0  0  0  0  0  0  0  0  0
  1  2  1  0  0  0  0
  1 17  2  0  0  0  0
  2  3  2  0  0  0  0
  2 14  1  0  0  0  0
  3 18  1  0  0  0  0
  3 20  1  0  0  0  0
  4  6  1  0  0  0  0
  4 19  1  0  0  0  0
  4 21  2  0  0  0  0
  5 15  1  0  0  0  0
  5 20  1  0  0  0  0
  5 22  2  0  0  0  0
  6  7  1  0  0  0  0
  7  8  1  0  0  0  0
  8  9  1  0  0  0  0
  9 12  1  0  0  0  0
 10 11  1  0  0  0  0
 10 13  1  0  0  0  0
 11 13  1  0  0  0  0
 12 19  1  0  0  0  0
 13 16  1  0  0  0  0
 15 19  1  0  0  0  0
 16 18  1  0  0  0  0
 17 18  1  0  0  0  0
  1 23  1  0  0  0  0
  6 24  1  0  0  0  0
  6 25  1  0  0  0  0
  7 26  1  0  0  0  0
  7 27  1  0  0  0  0
  8 28  1  0  0  0  0
  8 29  1  0  0  0  0
  9 30  1  0  0  0  0
  9 31  1  0  0  0  0
 10 32  1  0  0  0  0
 10 33  1  0  0  0  0
 11 34  1  0  0  0  0
 11 35  1  0  0  0  0
 12 36  1  0  0  0  0
 12 37  1  0  0  0  0
 13 38  1  0  0  0  0
 14 39  1  0  0  0  0
 14 40  1  0  0  0  0
 14 41  1  0  0  0  0
 15 42  1  0  0  0  0
 15 43  1  0  0  0  0
 16 44  1  0  0  0  0
 16 45  1  0  0  0  0
 20 46  1  0  0  0  0
M  END
> <Catalog ID>
Z1116469201

> <PlateID>
1041831-R-07

> <Well>
B02

> <MW (desalted)>
304.387

> <ClogP>
1.171

> <HBD>
1

> <TPSA>
67.230

> <RotBonds>
5

> <ROCS_ShapeQuery>
A71EV2A-x0451_0A_A71EV2A-x0310_0A_A71EV2A-x0416_0A_peptide

> <ROCS_TanimotoCombo>
0.524 

> <ROCS_ShapeTanimoto>
0.336 

> <ROCS_ColorTanimoto>
0.188 

> <ROCS_RefTversky>
0.298 

> <ROCS_RefColorTversky>
0.196 

> <ROCS_RefTverskyCombo>
0.494 

> <ROCS_FitTversky>
1.612 

> <ROCS_FitColorTversky>
0.819 

> <ROCS_FitTverskyCombo>
2.430 

> <ROCS_ColorScore>
-5.964

> <ROCS_Overlap>
2072.062

> <ROCS_Rank>
278                 

$$$$
untitled-dbase-718_1288
  -OEChem-11132311063D

 47 50  0     0  0  0  0  0  0999 V2000
   13.5592   15.8910   15.6368 C   0  0  0  0  0  0  0  0  0  0  0  0
   12.6702   14.8954   16.0311 C   0  0  0  0  0  0  0  0  0  0  0  0
   14.1757   17.1822   20.2871 C   0  0  0  0  0  0  0  0  0  0  0  0
   14.1584   16.7112   16.5932 C   0  0  0  0  0  0  0  0  0  0  0  0
   12.3771   14.7162   17.3832 C   0  0  0  0  0  0  0  0  0  0  0  0
   14.4689   17.3613   18.9349 C   0  0  0  0  0  0  0  0  0  0  0  0
   13.2867   16.1866   20.6813 C   0  0  0  0  0  0  0  0  0  0  0  0
   13.8749   16.5450   17.9586 C   0  0  0  0  0  0  0  0  0  0  0  0
   12.9709   15.5326   18.3596 C   0  0  0  0  0  0  0  0  0  0  0  0
   12.6874   15.3664   19.7250 C   0  0  0  0  0  0  0  0  0  0  0  0
    8.3926   11.9154   24.6187 C   0  0  0  0  0  0  0  0  0  0  0  0
    9.4693   11.9079   23.7641 C   0  0  0  0  0  0  0  0  0  0  0  0
    8.6865    9.9196   23.7141 C   0  0  0  0  0  0  0  0  0  0  0  0
    7.7376   12.8589   25.4547 C   0  0  0  0  0  0  0  0  0  0  0  0
    6.6647   12.4682   26.1712 C   0  0  0  0  0  0  0  0  0  0  0  0
    6.1622   11.1027   26.1083 C   0  0  0  0  0  0  0  0  0  0  0  0
    6.7832   10.2116   25.3172 C   0  0  0  0  0  0  0  0  0  0  0  0
   10.3588   13.0545   23.4459 C   0  0  0  0  0  0  0  0  0  0  0  0
    7.4081    8.2479   21.8907 C   0  0  0  0  0  0  0  0  0  0  0  0
   11.7412   14.3155   20.2174 C   0  0  0  0  0  0  0  0  0  0  0  0
   11.8244   14.0837   21.7288 C   0  0  0  0  0  0  0  0  0  0  0  0
    9.6449   10.6650   23.2067 N   0  0  0  0  0  0  0  0  0  0  0  0
    7.8899   10.6236   24.5811 N   0  0  0  0  0  0  0  0  0  0  0  0
   10.9236   13.0556   22.1764 N   0  0  0  0  0  0  0  0  0  0  0  0
   10.5633   13.9110   24.3022 O   0  0  0  0  0  0  0  0  0  0  0  0
    9.7845    7.7259   22.8677 O   0  0  0  0  0  0  0  0  0  0  0  0
    7.7756    7.5646   24.3791 O   0  0  0  0  0  0  0  0  0  0  0  0
    8.4903    8.2282   23.3000 S   0  0  0  0  0  0  0  0  0  0  0  0
   13.7869   16.0300   14.5840 H   0  0  0  0  0  0  0  0  0  0  0  0
   12.2042   14.2573   15.2858 H   0  0  0  0  0  0  0  0  0  0  0  0
   14.6418   17.8205   21.0321 H   0  0  0  0  0  0  0  0  0  0  0  0
   14.8502   17.4829   16.2622 H   0  0  0  0  0  0  0  0  0  0  0  0
   11.6776   13.9278   17.6513 H   0  0  0  0  0  0  0  0  0  0  0  0
   15.1667   18.1459   18.6497 H   0  0  0  0  0  0  0  0  0  0  0  0
   13.0664   16.0569   21.7378 H   0  0  0  0  0  0  0  0  0  0  0  0
    8.1015   13.8789   25.5113 H   0  0  0  0  0  0  0  0  0  0  0  0
    6.1451   13.1667   26.8181 H   0  0  0  0  0  0  0  0  0  0  0  0
    5.2970   10.8350   26.7026 H   0  0  0  0  0  0  0  0  0  0  0  0
    6.4564    9.1828   25.2294 H   0  0  0  0  0  0  0  0  0  0  0  0
    7.2381    7.2180   21.5727 H   0  0  0  0  0  0  0  0  0  0  0  0
    6.4682    8.7173   22.1849 H   0  0  0  0  0  0  0  0  0  0  0  0
    7.8888    8.8194   21.0954 H   0  0  0  0  0  0  0  0  0  0  0  0
   11.9567   13.3672   19.7012 H   0  0  0  0  0  0  0  0  0  0  0  0
   10.7065   14.5718   19.9397 H   0  0  0  0  0  0  0  0  0  0  0  0
   12.8329   13.7637   22.0092 H   0  0  0  0  0  0  0  0  0  0  0  0
   11.5881   14.9958   22.2867 H   0  0  0  0  0  0  0  0  0  0  0  0
   10.7534   12.2749   21.5458 H   0  0  0  0  0  0  0  0  0  0  0  0
  1  2  2  0  0  0  0
  1  4  1  0  0  0  0
  2  5  1  0  0  0  0
  3  6  2  0  0  0  0
  3  7  1  0  0  0  0
  4  8  2  0  0  0  0
  5  9  2  0  0  0  0
  6  8  1  0  0  0  0
  7 10  2  0  0  0  0
  8  9  1  0  0  0  0
  9 10  1  0  0  0  0
 10 20  1  0  0  0  0
 11 12  2  0  0  0  0
 11 14  1  0  0  0  0
 11 23  1  0  0  0  0
 12 18  1  0  0  0  0
 12 22  1  0  0  0  0
 13 22  2  0  0  0  0
 13 23  1  0  0  0  0
 13 28  1  0  0  0  0
 14 15  2  0  0  0  0
 15 16  1  0  0  0  0
 16 17  2  0  0  0  0
 17 23  1  0  0  0  0
 18 24  1  0  0  0  0
 18 25  2  0  0  0  0
 19 28  1  0  0  0  0
 20 21  1  0  0  0  0
 21 24  1  0  0  0  0
 26 28  2  0  0  0  0
 27 28  2  0  0  0  0
  1 29  1  0  0  0  0
  2 30  1  0  0  0  0
  3 31  1  0  0  0  0
  4 32  1  0  0  0  0
  5 33  1  0  0  0  0
  6 34  1  0  0  0  0
  7 35  1  0  0  0  0
 14 36  1  0  0  0  0
 15 37  1  0  0  0  0
 16 38  1  0  0  0  0
 17 39  1  0  0  0  0
 19 40  1  0  0  0  0
 19 41  1  0  0  0  0
 19 42  1  0  0  0  0
 20 43  1  0  0  0  0
 20 44  1  0  0  0  0
 21 45  1  0  0  0  0
 21 46  1  0  0  0  0
 24 47  1  0  0  0  0
M  END
> <Catalog ID>
Z827474248

> <PlateID>
1041831-R-09

> <Well>
H09

> <MW (desalted)>
393.459

> <ClogP>
3.815

> <HBD>
1

> <TPSA>
80.540

> <RotBonds>
5

> <ROCS_ShapeQuery>
A71EV2A-x0451_0A_A71EV2A-x0310_0A_A71EV2A-x0416_0A_peptide

> <ROCS_TanimotoCombo>
0.524 

> <ROCS_ShapeTanimoto>
0.359 

> <ROCS_ColorTanimoto>
0.166 

> <ROCS_RefTversky>
0.324 

> <ROCS_RefColorTversky>
0.194 

> <ROCS_RefTverskyCombo>
0.517 

> <ROCS_FitTversky>
1.430 

> <ROCS_FitColorTversky>
0.534 

> <ROCS_FitTverskyCombo>
1.964 

> <ROCS_ColorScore>
-5.933

> <ROCS_Overlap>
2252.329

> <ROCS_Rank>
279                 

$$$$
untitled-dbase-305_164
  -OEChem-11132311063D

 41 43  0     1  0  0  0  0  0999 V2000
   13.9591   16.4256   18.4362 C   0  0  0  0  0  0  0  0  0  0  0  0
   14.5310   15.7158   19.4831 C   0  0  0  0  0  0  0  0  0  0  0  0
   12.5776   16.5700   18.3801 C   0  0  0  0  0  0  0  0  0  0  0  0
   13.7214   15.1445   20.4702 C   0  0  0  0  0  0  0  0  0  0  0  0
   11.7584   16.0092   19.3755 C   0  0  0  0  0  0  0  0  0  0  0  0
   12.3178   15.2626   20.4414 C   0  0  0  0  0  0  0  0  0  0  0  0
    9.3731   11.4356   23.5555 C   0  0  0  0  0  0  0  0  0  0  0  0
    8.2726   11.8904   24.3063 C   0  0  0  0  0  0  0  0  0  0  0  0
    9.2213   10.0711   23.5156 C   0  0  0  0  0  0  0  0  0  0  0  0
   10.9480   13.3954   23.4030 C   0  0  0  0  0  0  0  0  0  0  0  0
   10.2642   16.1854   19.2528 C   0  0  0  0  0  0  0  0  0  0  0  0
    9.5724   15.9649   20.5905 C   0  0  0  0  0  0  0  0  0  0  0  0
   10.0550   14.6616   21.2093 C   0  0  0  0  0  0  0  0  0  0  0  0
    7.9333   13.2796   24.6635 C   0  0  0  0  0  0  0  0  0  0  0  0
   10.0230    9.0023   22.8949 C   0  0  0  0  0  0  0  0  0  0  0  0
   12.0549   13.8574   22.4751 C   0  0  0  0  0  0  0  0  0  0  0  0
    7.4800   10.8956   24.7139 N   0  0  0  0  0  0  0  0  0  0  0  0
    8.0831    9.8021   24.2173 N   0  0  0  0  0  0  0  0  0  0  0  0
   11.5012   14.6964   21.4220 N   0  0  3  0  0  0  0  0  0  0  0  0
   10.4166   12.1860   22.9630 N   0  0  0  0  0  0  0  0  0  0  0  0
   10.6173   14.0358   24.3959 O   0  0  0  0  0  0  0  0  0  0  0  0
   14.5862   16.8662   17.6672 H   0  0  0  0  0  0  0  0  0  0  0  0
   15.6099   15.6010   19.5361 H   0  0  0  0  0  0  0  0  0  0  0  0
   12.1359   17.1258   17.5567 H   0  0  0  0  0  0  0  0  0  0  0  0
   14.2227   14.5959   21.2639 H   0  0  0  0  0  0  0  0  0  0  0  0
   10.0279   17.1934   18.8918 H   0  0  0  0  0  0  0  0  0  0  0  0
    9.8891   15.4665   18.5142 H   0  0  0  0  0  0  0  0  0  0  0  0
    9.7820   16.7998   21.2718 H   0  0  0  0  0  0  0  0  0  0  0  0
    8.4866   15.9351   20.4456 H   0  0  0  0  0  0  0  0  0  0  0  0
    9.5330   14.5134   22.1619 H   0  0  0  0  0  0  0  0  0  0  0  0
    9.8001   13.8114   20.5645 H   0  0  0  0  0  0  0  0  0  0  0  0
    7.2887   13.7429   23.8975 H   0  0  0  0  0  0  0  0  0  0  0  0
    7.4017   13.3428   25.6292 H   0  0  0  0  0  0  0  0  0  0  0  0
    8.8318   13.9127   24.7705 H   0  0  0  0  0  0  0  0  0  0  0  0
   10.7932    8.6253   23.5892 H   0  0  0  0  0  0  0  0  0  0  0  0
    9.4029    8.1418   22.5868 H   0  0  0  0  0  0  0  0  0  0  0  0
   10.5387    9.3460   21.9805 H   0  0  0  0  0  0  0  0  0  0  0  0
   12.5497   12.9891   22.0287 H   0  0  0  0  0  0  0  0  0  0  0  0
   12.7908   14.4245   23.0536 H   0  0  0  0  0  0  0  0  0  0  0  0
    7.6602    8.8998   24.3968 H   0  0  0  0  0  0  0  0  0  0  0  0
   10.8158   11.7828   22.1180 H   0  0  0  0  0  0  0  0  0  0  0  0
  1  2  2  0  0  0  0
  1  3  1  0  0  0  0
  2  4  1  0  0  0  0
  3  5  2  0  0  0  0
  4  6  2  0  0  0  0
  5  6  1  0  0  0  0
  5 11  1  0  0  0  0
  6 19  1  0  0  0  0
  7  8  1  0  0  0  0
  7  9  2  0  0  0  0
  7 20  1  0  0  0  0
  8 14  1  0  0  0  0
  8 17  2  0  0  0  0
  9 15  1  0  0  0  0
  9 18  1  0  0  0  0
 10 16  1  0  0  0  0
 10 20  1  0  0  0  0
 10 21  2  0  0  0  0
 11 12  1  0  0  0  0
 12 13  1  0  0  0  0
 13 19  1  0  0  0  0
 16 19  1  0  0  0  0
 17 18  1  0  0  0  0
  1 22  1  0  0  0  0
  2 23  1  0  0  0  0
  3 24  1  0  0  0  0
  4 25  1  0  0  0  0
 11 26  1  0  0  0  0
 11 27  1  0  0  0  0
 12 28  1  0  0  0  0
 12 29  1  0  0  0  0
 13 30  1  0  0  0  0
 13 31  1  0  0  0  0
 14 32  1  0  0  0  0
 14 33  1  0  0  0  0
 14 34  1  0  0  0  0
 15 35  1  0  0  0  0
 15 36  1  0  0  0  0
 15 37  1  0  0  0  0
 16 38  1  0  0  0  0
 16 39  1  0  0  0  0
 18 40  1  0  0  0  0
 20 41  1  0  0  0  0
M  END
> <Catalog ID>
Z46159109

> <PlateID>
1041831-R-04

> <Well>
G06

> <MW (desalted)>
284.356

> <ClogP>
1.870

> <HBD>
2

> <TPSA>
61.020

> <RotBonds>
3

> <ROCS_ShapeQuery>
A71EV2A-x0451_0A_A71EV2A-x0310_0A_A71EV2A-x0416_0A_peptide

> <ROCS_TanimotoCombo>
0.524 

> <ROCS_ShapeTanimoto>
0.328 

> <ROCS_ColorTanimoto>
0.197 

> <ROCS_RefTversky>
0.292 

> <ROCS_RefColorTversky>
0.209 

> <ROCS_RefTverskyCombo>
0.501 

> <ROCS_FitTversky>
1.596 

> <ROCS_FitColorTversky>
0.772 

> <ROCS_FitTverskyCombo>
2.367 

> <ROCS_ColorScore>
-6.360

> <ROCS_Overlap>
2026.811

> <ROCS_Rank>
280                 

$$$$
untitled-dbase-2239_366
  -OEChem-11132311063D

 50 53  0     1  0  0  0  0  0999 V2000
    6.5451   13.2240   24.9149 C   0  0  0  0  0  0  0  0  0  0  0  0
    5.7128   12.1153   25.0360 C   0  0  0  0  0  0  0  0  0  0  0  0
    7.8769   13.0587   24.5308 C   0  0  0  0  0  0  0  0  0  0  0  0
    6.2152   10.8402   24.7867 C   0  0  0  0  0  0  0  0  0  0  0  0
   12.8230   14.9803   18.9746 C   0  0  0  0  0  0  0  0  0  0  0  0
   13.5865   16.9628   19.1066 C   0  0  0  0  0  0  0  0  0  0  0  0
    8.3926   11.7822   24.2534 C   0  0  0  0  0  0  0  0  0  0  0  0
    7.5530   10.6711   24.4152 C   0  0  0  0  0  0  0  0  0  0  0  0
   12.8962   15.2571   20.3194 C   0  0  0  0  0  0  0  0  0  0  0  0
   10.7282   13.8275   23.1848 C   0  0  0  0  0  0  0  0  0  0  0  0
   10.9613    7.3110   24.1959 C   0  0  0  0  0  0  0  0  0  0  0  0
   11.1854    8.1605   25.4464 C   0  0  0  0  0  0  0  0  0  0  0  0
    9.6038    7.7311   23.6405 C   0  0  0  0  0  0  0  0  0  0  0  0
    9.9268    9.0054   25.6062 C   0  0  0  0  0  0  0  0  0  0  0  0
   10.0739   10.1932   23.3093 C   0  0  0  0  0  0  0  0  0  0  0  0
    9.8326   11.6066   23.8398 C   0  0  1  0  0  0  0  0  0  0  0  0
    9.3642    9.1480   24.1842 C   0  0  0  0  0  0  0  0  0  0  0  0
   13.6528   17.2936   21.5847 C   0  0  0  0  0  0  0  0  0  0  0  0
   12.5468   14.4334   21.5317 C   0  0  0  0  0  0  0  0  0  0  0  0
   11.0927   14.6369   21.9530 C   0  0  0  0  0  0  0  0  0  0  0  0
   13.2544   16.0460   18.2250 N   0  0  0  0  0  0  0  0  0  0  0  0
   13.3875   16.5304   20.3883 N   0  0  0  0  0  0  0  0  0  0  0  0
   10.2499   12.5705   22.8465 N   0  0  0  0  0  0  0  0  0  0  0  0
   10.8484   14.2526   24.3307 O   0  0  0  0  0  0  0  0  0  0  0  0
    7.9508    9.3755   24.2116 O   0  0  0  0  0  0  0  0  0  0  0  0
    6.1592   14.2183   25.1196 H   0  0  0  0  0  0  0  0  0  0  0  0
    4.6758   12.2430   25.3325 H   0  0  0  0  0  0  0  0  0  0  0  0
    8.5081   13.9401   24.4489 H   0  0  0  0  0  0  0  0  0  0  0  0
    5.5616    9.9782   24.8948 H   0  0  0  0  0  0  0  0  0  0  0  0
   12.4819   14.0686   18.5056 H   0  0  0  0  0  0  0  0  0  0  0  0
   13.9727   17.9470   18.8788 H   0  0  0  0  0  0  0  0  0  0  0  0
   11.7557    7.4569   23.4573 H   0  0  0  0  0  0  0  0  0  0  0  0
   10.9549    6.2486   24.4650 H   0  0  0  0  0  0  0  0  0  0  0  0
   11.3245    7.5096   26.3163 H   0  0  0  0  0  0  0  0  0  0  0  0
   12.0776    8.7868   25.3578 H   0  0  0  0  0  0  0  0  0  0  0  0
    9.6462    7.7357   22.5417 H   0  0  0  0  0  0  0  0  0  0  0  0
    8.8220    7.0236   23.9471 H   0  0  0  0  0  0  0  0  0  0  0  0
    9.2311    8.5258   26.3048 H   0  0  0  0  0  0  0  0  0  0  0  0
   10.1951    9.9891   26.0155 H   0  0  0  0  0  0  0  0  0  0  0  0
    9.6761   10.1121   22.2863 H   0  0  0  0  0  0  0  0  0  0  0  0
   11.1516    9.9898   23.2536 H   0  0  0  0  0  0  0  0  0  0  0  0
   10.4644   11.7789   24.7206 H   0  0  0  0  0  0  0  0  0  0  0  0
   12.7451   17.8467   21.8402 H   0  0  0  0  0  0  0  0  0  0  0  0
   13.9277   16.6143   22.3965 H   0  0  0  0  0  0  0  0  0  0  0  0
   14.4816   17.9821   21.3978 H   0  0  0  0  0  0  0  0  0  0  0  0
   12.7365   13.3730   21.3207 H   0  0  0  0  0  0  0  0  0  0  0  0
   13.2217   14.6932   22.3577 H   0  0  0  0  0  0  0  0  0  0  0  0
   10.4171   14.3441   21.1396 H   0  0  0  0  0  0  0  0  0  0  0  0
   10.9053   15.6957   22.1717 H   0  0  0  0  0  0  0  0  0  0  0  0
   10.1508   12.3191   21.8675 H   0  0  0  0  0  0  0  0  0  0  0  0
  1  2  2  0  0  0  0
  1  3  1  0  0  0  0
  2  4  1  0  0  0  0
  3  7  2  0  0  0  0
  4  8  2  0  0  0  0
  5  9  2  0  0  0  0
  5 21  1  0  0  0  0
  6 21  2  0  0  0  0
  6 22  1  0  0  0  0
  7  8  1  0  0  0  0
  7 16  1  0  0  0  0
  8 25  1  0  0  0  0
  9 19  1  0  0  0  0
  9 22  1  0  0  0  0
 10 20  1  0  0  0  0
 10 23  1  0  0  0  0
 10 24  2  0  0  0  0
 11 12  1  0  0  0  0
 11 13  1  0  0  0  0
 12 14  1  0  0  0  0
 13 17  1  0  0  0  0
 14 17  1  0  0  0  0
 15 16  1  0  0  0  0
 15 17  1  0  0  0  0
 16 23  1  0  0  0  0
 17 25  1  0  0  0  0
 18 22  1  0  0  0  0
 19 20  1  0  0  0  0
  1 26  1  0  0  0  0
  2 27  1  0  0  0  0
  3 28  1  0  0  0  0
  4 29  1  0  0  0  0
  5 30  1  0  0  0  0
  6 31  1  0  0  0  0
 11 32  1  0  0  0  0
 11 33  1  0  0  0  0
 12 34  1  0  0  0  0
 12 35  1  0  0  0  0
 13 36  1  0  0  0  0
 13 37  1  0  0  0  0
 14 38  1  0  0  0  0
 14 39  1  0  0  0  0
 15 40  1  0  0  0  0
 15 41  1  0  0  0  0
 16 42  1  0  0  0  0
 18 43  1  0  0  0  0
 18 44  1  0  0  0  0
 18 45  1  0  0  0  0
 19 46  1  0  0  0  0
 19 47  1  0  0  0  0
 20 48  1  0  0  0  0
 20 49  1  0  0  0  0
 23 50  1  0  0  0  0
M  END
> <Catalog ID>
Z1952498765

> <PlateID>
1041831-R-28

> <Well>
H10

> <MW (desalted)>
339.431

> <ClogP>
1.958

> <HBD>
1

> <TPSA>
56.150

> <RotBonds>
4

> <ROCS_ShapeQuery>
A71EV2A-x0451_0A_A71EV2A-x0310_0A_A71EV2A-x0416_0A_peptide

> <ROCS_TanimotoCombo>
0.524 

> <ROCS_ShapeTanimoto>
0.350 

> <ROCS_ColorTanimoto>
0.174 

> <ROCS_RefTversky>
0.313 

> <ROCS_RefColorTversky>
0.198 

> <ROCS_RefTverskyCombo>
0.511 

> <ROCS_FitTversky>
1.506 

> <ROCS_FitColorTversky>
0.596 

> <ROCS_FitTverskyCombo>
2.102 

> <ROCS_ColorScore>
-6.046

> <ROCS_Overlap>
2174.957

> <ROCS_Rank>
281                 

$$$$
untitled-dbase-793_10044
  -OEChem-11132311063D

 49 51  0     1  0  0  0  0  0999 V2000
    7.8732   12.5497   24.4106 C   0  0  0  0  0  0  0  0  0  0  0  0
    6.8408   12.6469   25.3506 C   0  0  0  0  0  0  0  0  0  0  0  0
    6.8658   10.2432   25.7058 C   0  0  0  0  0  0  0  0  0  0  0  0
    9.5218    9.4569   23.3725 C   0  0  0  0  0  0  0  0  0  0  0  0
    8.4127   11.2830   24.1108 C   0  0  0  0  0  0  0  0  0  0  0  0
    9.4365   10.8233   23.2359 C   0  0  0  0  0  0  0  0  0  0  0  0
    7.8976   10.1613   24.7640 C   0  0  0  0  0  0  0  0  0  0  0  0
    6.3464   11.5101   25.9871 C   0  0  0  0  0  0  0  0  0  0  0  0
   15.3612   12.3147   26.0795 C   0  0  0  0  0  0  0  0  0  0  0  0
   12.2941   12.1545   23.6964 C   0  0  0  0  0  0  0  0  0  0  0  0
   11.3124   15.1342   22.4406 C   0  0  0  0  0  0  0  0  0  0  0  0
   12.9215   14.2037   26.5553 C   0  0  0  0  0  0  0  0  0  0  0  0
   13.6118   13.2635   27.5443 C   0  0  0  0  0  0  0  0  0  0  0  0
   11.8613   13.4688   25.7446 C   0  0  0  0  0  0  0  0  0  0  0  0
   13.0800   11.3292   25.9718 C   0  0  0  0  0  0  0  0  0  0  0  0
   14.1150   11.9812   26.8850 C   0  0  1  0  0  0  0  0  0  0  0  0
   11.9431   16.0408   21.4363 C   0  0  0  0  0  0  0  0  0  0  0  0
   10.2822   11.6722   22.3187 C   0  0  0  0  0  0  0  0  0  0  0  0
   11.0522   12.7448   23.0775 C   0  0  2  0  0  0  0  0  0  0  0  0
    8.5895    9.0668   24.2962 N   0  0  0  0  0  0  0  0  0  0  0  0
   12.4361   12.3011   25.0765 N   0  0  0  0  0  0  0  0  0  0  0  0
   11.5608   13.7849   22.2308 N   0  0  0  0  0  0  0  0  0  0  0  0
   16.1321   13.2302   26.3262 O   0  0  0  0  0  0  0  0  0  0  0  0
   13.1110   11.5779   22.9736 O   0  0  0  0  0  0  0  0  0  0  0  0
   10.6446   15.6117   23.3503 O   0  0  0  0  0  0  0  0  0  0  0  0
   15.5038   11.4558   25.0407 O   0  0  0  0  0  0  0  0  0  0  0  0
    5.3572   11.6323   26.8831 F   0  0  0  0  0  0  0  0  0  0  0  0
    8.2472   13.4453   23.9226 H   0  0  0  0  0  0  0  0  0  0  0  0
    6.4214   13.6213   25.5863 H   0  0  0  0  0  0  0  0  0  0  0  0
    6.4803    9.3591   26.2020 H   0  0  0  0  0  0  0  0  0  0  0  0
   10.1611    8.7262   22.8968 H   0  0  0  0  0  0  0  0  0  0  0  0
   12.4595   15.0337   27.1018 H   0  0  0  0  0  0  0  0  0  0  0  0
   13.6636   14.6444   25.8785 H   0  0  0  0  0  0  0  0  0  0  0  0
   14.4331   13.7964   28.0386 H   0  0  0  0  0  0  0  0  0  0  0  0
   12.8916   12.9956   28.3282 H   0  0  0  0  0  0  0  0  0  0  0  0
   11.0558   13.1110   26.3969 H   0  0  0  0  0  0  0  0  0  0  0  0
   11.4128   14.1535   25.0180 H   0  0  0  0  0  0  0  0  0  0  0  0
   13.5380   10.5104   25.4128 H   0  0  0  0  0  0  0  0  0  0  0  0
   12.2774   10.8914   26.5780 H   0  0  0  0  0  0  0  0  0  0  0  0
   14.4305   11.2816   27.6469 H   0  0  0  0  0  0  0  0  0  0  0  0
   11.2865   16.2330   20.5725 H   0  0  0  0  0  0  0  0  0  0  0  0
   12.1740   17.0343   21.8532 H   0  0  0  0  0  0  0  0  0  0  0  0
   12.8908   15.6802   21.0054 H   0  0  0  0  0  0  0  0  0  0  0  0
   10.9774   11.0155   21.7784 H   0  0  0  0  0  0  0  0  0  0  0  0
    9.6472   12.1218   21.5430 H   0  0  0  0  0  0  0  0  0  0  0  0
   10.4652   13.2051   23.8727 H   0  0  0  0  0  0  0  0  0  0  0  0
    8.4319    8.1135   24.5924 H   0  0  0  0  0  0  0  0  0  0  0  0
   12.1362   13.5185   21.4311 H   0  0  0  0  0  0  0  0  0  0  0  0
   16.3022   11.6558   24.5069 H   0  0  0  0  0  0  0  0  0  0  0  0
  1  2  1  0  0  0  0
  1  5  2  0  0  0  0
  2  8  2  0  0  0  0
  3  7  2  0  0  0  0
  3  8  1  0  0  0  0
  4  6  2  0  0  0  0
  4 20  1  0  0  0  0
  5  6  1  0  0  0  0
  5  7  1  0  0  0  0
  6 18  1  0  0  0  0
  7 20  1  0  0  0  0
  8 27  1  0  0  0  0
  9 16  1  0  0  0  0
  9 23  2  0  0  0  0
  9 26  1  0  0  0  0
 10 19  1  0  0  0  0
 10 21  1  0  0  0  0
 10 24  2  0  0  0  0
 11 17  1  0  0  0  0
 11 22  1  0  0  0  0
 11 25  2  0  0  0  0
 12 13  1  0  0  0  0
 12 14  1  0  0  0  0
 13 16  1  0  0  0  0
 14 21  1  0  0  0  0
 15 16  1  0  0  0  0
 15 21  1  0  0  0  0
 18 19  1  0  0  0  0
 19 22  1  0  0  0  0
  1 28  1  0  0  0  0
  2 29  1  0  0  0  0
  3 30  1  0  0  0  0
  4 31  1  0  0  0  0
 12 32  1  0  0  0  0
 12 33  1  0  0  0  0
 13 34  1  0  0  0  0
 13 35  1  0  0  0  0
 14 36  1  0  0  0  0
 14 37  1  0  0  0  0
 15 38  1  0  0  0  0
 15 39  1  0  0  0  0
 16 40  1  0  0  0  0
 17 41  1  0  0  0  0
 17 42  1  0  0  0  0
 17 43  1  0  0  0  0
 18 44  1  0  0  0  0
 18 45  1  0  0  0  0
 19 46  1  0  0  0  0
 20 47  1  0  0  0  0
 22 48  1  0  0  0  0
 26 49  1  0  0  0  0
M  END
> <Catalog ID>
Z1443622037

> <PlateID>
1041831-R-10

> <Well>
H04

> <MW (desalted)>
375.394

> <ClogP>
1.284

> <HBD>
3

> <TPSA>
102.500

> <RotBonds>
5

> <ROCS_ShapeQuery>
A71EV2A-x0451_0A_A71EV2A-x0310_0A_A71EV2A-x0416_0A_peptide

> <ROCS_TanimotoCombo>
0.524 

> <ROCS_ShapeTanimoto>
0.374 

> <ROCS_ColorTanimoto>
0.150 

> <ROCS_RefTversky>
0.332 

> <ROCS_RefColorTversky>
0.177 

> <ROCS_RefTverskyCombo>
0.509 

> <ROCS_FitTversky>
1.519 

> <ROCS_FitColorTversky>
0.489 

> <ROCS_FitTverskyCombo>
2.008 

> <ROCS_ColorScore>
-5.434

> <ROCS_Overlap>
2307.810

> <ROCS_Rank>
282                 

$$$$
untitled-dbase-1941_1088
  -OEChem-11132311063D

 44 46  0     0  0  0  0  0  0999 V2000
   13.4712   16.4770   18.0767 C   0  0  0  0  0  0  0  0  0  0  0  0
   12.6866   15.4649   18.6794 C   0  0  0  0  0  0  0  0  0  0  0  0
    9.2462    9.7625   23.6252 C   0  0  0  0  0  0  0  0  0  0  0  0
    9.5891   11.0570   23.9805 C   0  0  0  0  0  0  0  0  0  0  0  0
   14.2675   16.9883   19.0749 C   0  0  0  0  0  0  0  0  0  0  0  0
   13.0596   15.4297   20.0029 C   0  0  0  0  0  0  0  0  0  0  0  0
    7.5812   10.5085   24.6671 C   0  0  0  0  0  0  0  0  0  0  0  0
    8.1174   12.6779   25.2794 C   0  0  0  0  0  0  0  0  0  0  0  0
    6.8782   12.5810   25.7975 C   0  0  0  0  0  0  0  0  0  0  0  0
   10.8171   14.2410   22.9311 C   0  0  0  0  0  0  0  0  0  0  0  0
   10.0540    8.7838   22.8783 C   0  0  0  0  0  0  0  0  0  0  0  0
   15.2886   18.0449   19.1052 C   0  0  0  0  0  0  0  0  0  0  0  0
    6.1518   13.6444   26.5416 C   0  0  0  0  0  0  0  0  0  0  0  0
   10.2287   12.3430   21.4028 C   0  0  0  0  0  0  0  0  0  0  0  0
   10.8270   11.8736   23.7463 C   0  0  0  0  0  0  0  0  0  0  0  0
   12.6186   14.5929   21.1761 C   0  0  0  0  0  0  0  0  0  0  0  0
   11.2747   15.0656   21.7350 C   0  0  0  0  0  0  0  0  0  0  0  0
    7.9787    9.4240   24.0616 N   0  0  0  0  0  0  0  0  0  0  0  0
    8.4969   11.5153   24.6517 N   0  0  0  0  0  0  0  0  0  0  0  0
   10.6318   12.8731   22.7033 N   0  0  0  0  0  0  0  0  0  0  0  0
   10.6284   14.7783   24.0257 O   0  0  0  0  0  0  0  0  0  0  0  0
   14.0229   16.3552   20.2521 O   0  0  0  0  0  0  0  0  0  0  0  0
    6.1365   10.9863   25.5032 S   0  0  0  0  0  0  0  0  0  0  0  0
   13.4562   16.7927   17.0433 H   0  0  0  0  0  0  0  0  0  0  0  0
   11.9429   14.8405   18.2051 H   0  0  0  0  0  0  0  0  0  0  0  0
    8.7757   13.5328   25.3201 H   0  0  0  0  0  0  0  0  0  0  0  0
   10.6697    8.1701   23.5582 H   0  0  0  0  0  0  0  0  0  0  0  0
    9.4290    8.0944   22.2830 H   0  0  0  0  0  0  0  0  0  0  0  0
   10.7372    9.2693   22.1584 H   0  0  0  0  0  0  0  0  0  0  0  0
   14.8440   19.0294   19.3363 H   0  0  0  0  0  0  0  0  0  0  0  0
   16.0715   17.8510   19.8616 H   0  0  0  0  0  0  0  0  0  0  0  0
   15.8216   18.1418   18.1411 H   0  0  0  0  0  0  0  0  0  0  0  0
    5.5732   14.2590   25.8490 H   0  0  0  0  0  0  0  0  0  0  0  0
    6.8609   14.2820   27.0743 H   0  0  0  0  0  0  0  0  0  0  0  0
    5.4730   13.1962   27.2704 H   0  0  0  0  0  0  0  0  0  0  0  0
   11.1239   12.1202   20.8037 H   0  0  0  0  0  0  0  0  0  0  0  0
    9.6457   11.4215   21.5474 H   0  0  0  0  0  0  0  0  0  0  0  0
    9.6127   13.0882   20.8782 H   0  0  0  0  0  0  0  0  0  0  0  0
   11.1243   12.3956   24.6623 H   0  0  0  0  0  0  0  0  0  0  0  0
   11.6667   11.2374   23.4473 H   0  0  0  0  0  0  0  0  0  0  0  0
   12.5547   13.5401   20.8712 H   0  0  0  0  0  0  0  0  0  0  0  0
   13.3885   14.6263   21.9579 H   0  0  0  0  0  0  0  0  0  0  0  0
   10.5098   14.9947   20.9525 H   0  0  0  0  0  0  0  0  0  0  0  0
   11.3592   16.1130   22.0484 H   0  0  0  0  0  0  0  0  0  0  0  0
  1  2  1  0  0  0  0
  1  5  2  0  0  0  0
  2  6  2  0  0  0  0
  3  4  2  0  0  0  0
  3 11  1  0  0  0  0
  3 18  1  0  0  0  0
  4 15  1  0  0  0  0
  4 19  1  0  0  0  0
  5 12  1  0  0  0  0
  5 22  1  0  0  0  0
  6 16  1  0  0  0  0
  6 22  1  0  0  0  0
  7 18  2  0  0  0  0
  7 19  1  0  0  0  0
  7 23  1  0  0  0  0
  8  9  2  0  0  0  0
  8 19  1  0  0  0  0
  9 13  1  0  0  0  0
  9 23  1  0  0  0  0
 10 17  1  0  0  0  0
 10 20  1  0  0  0  0
 10 21  2  0  0  0  0
 14 20  1  0  0  0  0
 15 20  1  0  0  0  0
 16 17  1  0  0  0  0
  1 24  1  0  0  0  0
  2 25  1  0  0  0  0
  8 26  1  0  0  0  0
 11 27  1  0  0  0  0
 11 28  1  0  0  0  0
 11 29  1  0  0  0  0
 12 30  1  0  0  0  0
 12 31  1  0  0  0  0
 12 32  1  0  0  0  0
 13 33  1  0  0  0  0
 13 34  1  0  0  0  0
 13 35  1  0  0  0  0
 14 36  1  0  0  0  0
 14 37  1  0  0  0  0
 14 38  1  0  0  0  0
 15 39  1  0  0  0  0
 15 40  1  0  0  0  0
 16 41  1  0  0  0  0
 16 42  1  0  0  0  0
 17 43  1  0  0  0  0
 17 44  1  0  0  0  0
M  END
> <Catalog ID>
Z1533306940

> <PlateID>
1041831-R-25

> <Well>
C02

> <MW (desalted)>
331.433

> <ClogP>
2.711

> <HBD>
0

> <TPSA>
50.750

> <RotBonds>
5

> <ROCS_ShapeQuery>
A71EV2A-x0451_0A_A71EV2A-x0310_0A_A71EV2A-x0416_0A_peptide

> <ROCS_TanimotoCombo>
0.524 

> <ROCS_ShapeTanimoto>
0.364 

> <ROCS_ColorTanimoto>
0.160 

> <ROCS_RefTversky>
0.318 

> <ROCS_RefColorTversky>
0.175 

> <ROCS_RefTverskyCombo>
0.493 

> <ROCS_FitTversky>
1.653 

> <ROCS_FitColorTversky>
0.644 

> <ROCS_FitTverskyCombo>
2.297 

> <ROCS_ColorScore>
-5.337

> <ROCS_Overlap>
2211.565

> <ROCS_Rank>
283                 

$$$$
untitled-dbase-614_721
  -OEChem-11132311063D

 39 41  0     0  0  0  0  0  0999 V2000
    7.3135   11.6944   25.0753 C   0  0  0  0  0  0  0  0  0  0  0  0
    8.2997   12.3372   24.3354 C   0  0  0  0  0  0  0  0  0  0  0  0
    7.2453   10.3124   25.0024 C   0  0  0  0  0  0  0  0  0  0  0  0
    9.1752   11.5890   23.5562 C   0  0  0  0  0  0  0  0  0  0  0  0
    9.0237   10.2117   23.5515 C   0  0  0  0  0  0  0  0  0  0  0  0
   12.6018   16.2634   18.7643 C   0  0  0  0  0  0  0  0  0  0  0  0
   12.8923   15.4341   20.7658 C   0  0  0  0  0  0  0  0  0  0  0  0
   11.8232   16.7524   17.6786 C   0  0  0  0  0  0  0  0  0  0  0  0
   10.4808   16.7902   17.7926 C   0  0  0  0  0  0  0  0  0  0  0  0
    9.8052   16.3416   19.0023 C   0  0  0  0  0  0  0  0  0  0  0  0
   10.5395   15.8794   20.0282 C   0  0  0  0  0  0  0  0  0  0  0  0
   10.8416   13.4289   23.0893 C   0  0  0  0  0  0  0  0  0  0  0  0
    8.6671    7.6483   21.7563 C   0  0  0  0  0  0  0  0  0  0  0  0
   12.6087   14.9030   22.1128 C   0  0  0  0  0  0  0  0  0  0  0  0
    9.6517    8.0308   22.8407 C   0  0  0  0  0  0  0  0  0  0  0  0
    8.0779    9.5518   24.2569 N   0  0  0  0  0  0  0  0  0  0  0  0
   13.8950   16.1071   18.9518 N   0  0  0  0  0  0  0  0  0  0  0  0
   14.0771   15.5832   20.2164 N   0  0  0  0  0  0  0  0  0  0  0  0
   11.9219   15.8461   19.8980 N   0  0  0  0  0  0  0  0  0  0  0  0
   10.1827   12.2310   22.7991 N   0  0  0  0  0  0  0  0  0  0  0  0
   11.7718   13.7227   22.0887 N   0  0  0  0  0  0  0  0  0  0  0  0
   10.6586   14.1467   24.0696 O   0  0  0  0  0  0  0  0  0  0  0  0
    9.8660    9.4362   22.7971 O   0  0  0  0  0  0  0  0  0  0  0  0
    6.6202   12.2572   25.6896 H   0  0  0  0  0  0  0  0  0  0  0  0
    8.3767   13.4205   24.3732 H   0  0  0  0  0  0  0  0  0  0  0  0
    6.4940    9.7634   25.5606 H   0  0  0  0  0  0  0  0  0  0  0  0
   12.3172   17.0895   16.7744 H   0  0  0  0  0  0  0  0  0  0  0  0
    9.8652   17.1597   16.9796 H   0  0  0  0  0  0  0  0  0  0  0  0
    8.7240   16.3890   19.0475 H   0  0  0  0  0  0  0  0  0  0  0  0
   10.0982   15.5306   20.9535 H   0  0  0  0  0  0  0  0  0  0  0  0
    7.7080    8.1523   21.9046 H   0  0  0  0  0  0  0  0  0  0  0  0
    9.0576    7.9150   20.7688 H   0  0  0  0  0  0  0  0  0  0  0  0
    8.5003    6.5660   21.7509 H   0  0  0  0  0  0  0  0  0  0  0  0
   13.5338   14.6258   22.6496 H   0  0  0  0  0  0  0  0  0  0  0  0
   12.0949   15.6409   22.7544 H   0  0  0  0  0  0  0  0  0  0  0  0
   10.6087    7.5235   22.6865 H   0  0  0  0  0  0  0  0  0  0  0  0
    9.2596    7.7645   23.8268 H   0  0  0  0  0  0  0  0  0  0  0  0
   10.4580   11.7598   21.9410 H   0  0  0  0  0  0  0  0  0  0  0  0
   11.8645   13.0795   21.3103 H   0  0  0  0  0  0  0  0  0  0  0  0
  1  2  1  0  0  0  0
  1  3  2  0  0  0  0
  2  4  2  0  0  0  0
  3 16  1  0  0  0  0
  4  5  1  0  0  0  0
  4 20  1  0  0  0  0
  5 16  2  0  0  0  0
  5 23  1  0  0  0  0
  6  8  1  0  0  0  0
  6 17  2  0  0  0  0
  6 19  1  0  0  0  0
  7 14  1  0  0  0  0
  7 18  2  0  0  0  0
  7 19  1  0  0  0  0
  8  9  2  0  0  0  0
  9 10  1  0  0  0  0
 10 11  2  0  0  0  0
 11 19  1  0  0  0  0
 12 20  1  0  0  0  0
 12 21  1  0  0  0  0
 12 22  2  0  0  0  0
 13 15  1  0  0  0  0
 14 21  1  0  0  0  0
 15 23  1  0  0  0  0
 17 18  1  0  0  0  0
  1 24  1  0  0  0  0
  2 25  1  0  0  0  0
  3 26  1  0  0  0  0
  8 27  1  0  0  0  0
  9 28  1  0  0  0  0
 10 29  1  0  0  0  0
 11 30  1  0  0  0  0
 13 31  1  0  0  0  0
 13 32  1  0  0  0  0
 13 33  1  0  0  0  0
 14 34  1  0  0  0  0
 14 35  1  0  0  0  0
 15 36  1  0  0  0  0
 15 37  1  0  0  0  0
 20 38  1  0  0  0  0
 21 39  1  0  0  0  0
M  END
> <Catalog ID>
Z434669294

> <PlateID>
1041831-R-08

> <Well>
F05

> <MW (desalted)>
312.327

> <ClogP>
1.890

> <HBD>
2

> <TPSA>
93.440

> <RotBonds>
5

> <ROCS_ShapeQuery>
A71EV2A-x0451_0A_A71EV2A-x0310_0A_A71EV2A-x0416_0A_peptide

> <ROCS_TanimotoCombo>
0.524 

> <ROCS_ShapeTanimoto>
0.333 

> <ROCS_ColorTanimoto>
0.190 

> <ROCS_RefTversky>
0.299 

> <ROCS_RefColorTversky>
0.220 

> <ROCS_RefTverskyCombo>
0.519 

> <ROCS_FitTversky>
1.517 

> <ROCS_FitColorTversky>
0.590 

> <ROCS_FitTverskyCombo>
2.106 

> <ROCS_ColorScore>
-6.727

> <ROCS_Overlap>
2080.113

> <ROCS_Rank>
284                 

$$$$
untitled-dbase-2828_4222
  -OEChem-11132311063D

 57 61  0     1  0  0  0  0  0999 V2000
    4.3553   12.2892   29.3030 C   0  0  0  0  0  0  0  0  0  0  0  0
    3.5418   12.4765   28.1856 C   0  0  0  0  0  0  0  0  0  0  0  0
    5.7384   12.1911   29.1503 C   0  0  0  0  0  0  0  0  0  0  0  0
    4.1113   12.5656   26.9154 C   0  0  0  0  0  0  0  0  0  0  0  0
    6.3078   12.2803   27.8801 C   0  0  0  0  0  0  0  0  0  0  0  0
    5.4943   12.4675   26.7626 C   0  0  0  0  0  0  0  0  0  0  0  0
   12.1687   16.0867   21.9423 C   0  0  0  0  0  0  0  0  0  0  0  0
   11.5816   14.1666   22.8060 C   0  0  0  0  0  0  0  0  0  0  0  0
   12.7409   16.9234   20.9439 C   0  0  0  0  0  0  0  0  0  0  0  0
   13.2634   16.3650   19.8340 C   0  0  0  0  0  0  0  0  0  0  0  0
   13.2571   14.9230   19.6304 C   0  0  0  0  0  0  0  0  0  0  0  0
   12.7171   14.1319   20.5727 C   0  0  0  0  0  0  0  0  0  0  0  0
    9.5649    7.8758   23.3560 C   0  0  0  0  0  0  0  0  0  0  0  0
   10.8689    8.6496   23.5020 C   0  0  0  0  0  0  0  0  0  0  0  0
    8.2784    8.6304   23.6985 C   0  0  0  0  0  0  0  0  0  0  0  0
   10.9960    9.8983   22.6343 C   0  0  0  0  0  0  0  0  0  0  0  0
    7.0836   10.3657   25.0925 C   0  0  0  0  0  0  0  0  0  0  0  0
    8.1453   12.1797   24.1397 C   0  0  0  0  0  0  0  0  0  0  0  0
    8.4491    9.8228   24.6439 C   0  0  2  0  0  0  0  0  0  0  0  0
    9.1951   11.0595   24.0714 C   0  0  1  0  0  0  0  0  0  0  0  0
    9.8223   10.8927   22.6742 C   0  0  1  0  0  0  0  0  0  0  0  0
    6.1079   12.5631   25.3957 C   0  0  0  0  0  0  0  0  0  0  0  0
   11.3811   12.6892   22.9834 C   0  0  0  0  0  0  0  0  0  0  0  0
   11.5954   16.3254   23.1026 N   0  0  0  0  0  0  0  0  0  0  0  0
   11.2250   15.1116   23.6471 N   0  0  0  0  0  0  0  0  0  0  0  0
   12.1818   14.7200   21.7115 N   0  0  0  0  0  0  0  0  0  0  0  0
    7.3378   11.7907   25.2954 N   0  0  1  0  0  0  0  0  0  0  0  0
   10.2975   12.1856   22.1601 N   0  0  0  0  0  0  0  0  0  0  0  0
    3.9118   12.2211   30.2921 H   0  0  0  0  0  0  0  0  0  0  0  0
    2.4650   12.5539   28.3044 H   0  0  0  0  0  0  0  0  0  0  0  0
    6.3721   12.0464   30.0202 H   0  0  0  0  0  0  0  0  0  0  0  0
    3.4696   12.7113   26.0504 H   0  0  0  0  0  0  0  0  0  0  0  0
    7.3863   12.2026   27.7707 H   0  0  0  0  0  0  0  0  0  0  0  0
   12.7493   17.9981   21.0862 H   0  0  0  0  0  0  0  0  0  0  0  0
   13.7043   16.9813   19.0580 H   0  0  0  0  0  0  0  0  0  0  0  0
   13.6901   14.5195   18.7233 H   0  0  0  0  0  0  0  0  0  0  0  0
   12.6821   13.0535   20.4819 H   0  0  0  0  0  0  0  0  0  0  0  0
    9.4926    7.5518   22.2985 H   0  0  0  0  0  0  0  0  0  0  0  0
    9.6195    6.9321   23.9359 H   0  0  0  0  0  0  0  0  0  0  0  0
   10.9632    8.9554   24.5540 H   0  0  0  0  0  0  0  0  0  0  0  0
   11.7187    7.9792   23.3083 H   0  0  0  0  0  0  0  0  0  0  0  0
    7.7545    8.9345   22.7746 H   0  0  0  0  0  0  0  0  0  0  0  0
    7.5993    7.9087   24.1882 H   0  0  0  0  0  0  0  0  0  0  0  0
   11.9486   10.4190   22.8655 H   0  0  0  0  0  0  0  0  0  0  0  0
   11.1247    9.5331   21.5942 H   0  0  0  0  0  0  0  0  0  0  0  0
    6.3233   10.2001   24.3168 H   0  0  0  0  0  0  0  0  0  0  0  0
    6.7462    9.8798   26.0148 H   0  0  0  0  0  0  0  0  0  0  0  0
    8.6085   13.1592   24.2924 H   0  0  0  0  0  0  0  0  0  0  0  0
    7.5463   12.2088   23.2209 H   0  0  0  0  0  0  0  0  0  0  0  0
    8.9952    9.4903   25.5220 H   0  0  0  0  0  0  0  0  0  0  0  0
    9.9882   11.2960   24.7763 H   0  0  0  0  0  0  0  0  0  0  0  0
    9.0350   10.5447   21.9607 H   0  0  0  0  0  0  0  0  0  0  0  0
    5.4135   12.1921   24.6340 H   0  0  0  0  0  0  0  0  0  0  0  0
    6.3435   13.6022   25.1425 H   0  0  0  0  0  0  0  0  0  0  0  0
   12.2910   12.1412   22.7156 H   0  0  0  0  0  0  0  0  0  0  0  0
   11.1501   12.4464   24.0259 H   0  0  0  0  0  0  0  0  0  0  0  0
   10.6203   12.0520   21.2075 H   0  0  0  0  0  0  0  0  0  0  0  0
  1  2  2  0  0  0  0
  1  3  1  0  0  0  0
  2  4  1  0  0  0  0
  3  5  2  0  0  0  0
  4  6  2  0  0  0  0
  5  6  1  0  0  0  0
  6 22  1  0  0  0  0
  7  9  1  0  0  0  0
  7 24  2  0  0  0  0
  7 26  1  0  0  0  0
  8 23  1  0  0  0  0
  8 25  2  0  0  0  0
  8 26  1  0  0  0  0
  9 10  2  0  0  0  0
 10 11  1  0  0  0  0
 11 12  2  0  0  0  0
 12 26  1  0  0  0  0
 13 14  1  0  0  0  0
 13 15  1  0  0  0  0
 14 16  1  0  0  0  0
 15 19  1  0  0  0  0
 16 21  1  0  0  0  0
 17 19  1  0  0  0  0
 17 27  1  0  0  0  0
 18 20  1  0  0  0  0
 18 27  1  0  0  0  0
 19 20  1  0  0  0  0
 20 21  1  0  0  0  0
 21 28  1  0  0  0  0
 22 27  1  0  0  0  0
 23 28  1  0  0  0  0
 24 25  1  0  0  0  0
  1 29  1  0  0  0  0
  2 30  1  0  0  0  0
  3 31  1  0  0  0  0
  4 32  1  0  0  0  0
  5 33  1  0  0  0  0
  9 34  1  0  0  0  0
 10 35  1  0  0  0  0
 11 36  1  0  0  0  0
 12 37  1  0  0  0  0
 13 38  1  0  0  0  0
 13 39  1  0  0  0  0
 14 40  1  0  0  0  0
 14 41  1  0  0  0  0
 15 42  1  0  0  0  0
 15 43  1  0  0  0  0
 16 44  1  0  0  0  0
 16 45  1  0  0  0  0
 17 46  1  0  0  0  0
 17 47  1  0  0  0  0
 18 48  1  0  0  0  0
 18 49  1  0  0  0  0
 19 50  1  0  0  0  0
 20 51  1  0  0  0  0
 21 52  1  0  0  0  0
 22 53  1  0  0  0  0
 22 54  1  0  0  0  0
 23 55  1  0  0  0  0
 23 56  1  0  0  0  0
 28 57  1  0  0  0  0
M  END
> <Catalog ID>
Z1908353431

> <PlateID>
1041831-R-36

> <Well>
C09

> <MW (desalted)>
375.510

> <ClogP>
3.507

> <HBD>
1

> <TPSA>
45.460

> <RotBonds>
5

> <ROCS_ShapeQuery>
A71EV2A-x0451_0A_A71EV2A-x0310_0A_A71EV2A-x0416_0A_peptide

> <ROCS_TanimotoCombo>
0.524 

> <ROCS_ShapeTanimoto>
0.387 

> <ROCS_ColorTanimoto>
0.137 

> <ROCS_RefTversky>
0.342 

> <ROCS_RefColorTversky>
0.165 

> <ROCS_RefTverskyCombo>
0.507 

> <ROCS_FitTversky>
1.512 

> <ROCS_FitColorTversky>
0.444 

> <ROCS_FitTverskyCombo>
1.956 

> <ROCS_ColorScore>
-5.055

> <ROCS_Overlap>
2381.761

> <ROCS_Rank>
285                 

$$$$
untitled-dbase-1532_838
  -OEChem-11132311063D

 43 45  0     1  0  0  0  0  0999 V2000
    6.9415   12.7606   25.5500 C   0  0  0  0  0  0  0  0  0  0  0  0
    6.7313   11.5604   26.2261 C   0  0  0  0  0  0  0  0  0  0  0  0
   16.0292   12.7712   21.8661 C   0  0  0  0  0  0  0  0  0  0  0  0
    7.8029   12.8210   24.4485 C   0  0  0  0  0  0  0  0  0  0  0  0
   16.1507   12.4603   23.2204 C   0  0  0  0  0  0  0  0  0  0  0  0
    7.3729   10.3852   25.8248 C   0  0  0  0  0  0  0  0  0  0  0  0
   15.0038   13.6117   21.4328 C   0  0  0  0  0  0  0  0  0  0  0  0
   14.2213   13.8301   23.7081 C   0  0  0  0  0  0  0  0  0  0  0  0
    9.6808   10.0097   23.0591 C   0  0  0  0  0  0  0  0  0  0  0  0
    8.4610   11.6490   24.0256 C   0  0  0  0  0  0  0  0  0  0  0  0
   15.2468   12.9897   24.1414 C   0  0  0  0  0  0  0  0  0  0  0  0
    9.3774   11.3493   22.9790 C   0  0  0  0  0  0  0  0  0  0  0  0
    8.2313   10.4606   24.7221 C   0  0  0  0  0  0  0  0  0  0  0  0
   14.0998   14.1411   22.3537 C   0  0  0  0  0  0  0  0  0  0  0  0
   10.5415   14.0374   23.7081 C   0  0  0  0  0  0  0  0  0  0  0  0
   15.3774   12.6567   25.5893 C   0  0  0  0  0  0  0  0  0  0  0  0
    9.9144   12.2972   21.9817 C   0  0  0  0  0  0  0  0  0  0  0  0
   11.0334   13.2178   22.5242 C   0  0  1  0  0  0  0  0  0  0  0  0
    8.9846    9.4822   24.1133 N   0  0  0  0  0  0  0  0  0  0  0  0
   11.5480   14.0713   21.4828 N   0  0  0  0  0  0  0  0  0  0  0  0
   10.6416   13.6579   24.8703 O   0  0  0  0  0  0  0  0  0  0  0  0
   12.3987   16.0366   22.9225 O   0  0  0  0  0  0  0  0  0  0  0  0
   13.2467   15.8137   20.5655 O   0  0  0  0  0  0  0  0  0  0  0  0
    9.9866   15.2296   23.3833 O   0  0  0  0  0  0  0  0  0  0  0  0
   12.7997   15.2050   21.8037 S   0  0  0  0  0  0  0  0  0  0  0  0
    6.4308   13.6611   25.8805 H   0  0  0  0  0  0  0  0  0  0  0  0
    6.0580   11.5363   27.0791 H   0  0  0  0  0  0  0  0  0  0  0  0
   16.7335   12.3596   21.1490 H   0  0  0  0  0  0  0  0  0  0  0  0
    7.9555   13.7641   23.9315 H   0  0  0  0  0  0  0  0  0  0  0  0
   16.9535   11.8054   23.5490 H   0  0  0  0  0  0  0  0  0  0  0  0
    7.2096    9.4516   26.3523 H   0  0  0  0  0  0  0  0  0  0  0  0
   14.9183   13.8467   20.3752 H   0  0  0  0  0  0  0  0  0  0  0  0
   13.5175   14.2424   24.4271 H   0  0  0  0  0  0  0  0  0  0  0  0
   10.3280    9.3837   22.4604 H   0  0  0  0  0  0  0  0  0  0  0  0
   16.0232   13.3868   26.0923 H   0  0  0  0  0  0  0  0  0  0  0  0
   14.3994   12.6556   26.0877 H   0  0  0  0  0  0  0  0  0  0  0  0
   15.8070   11.6563   25.7308 H   0  0  0  0  0  0  0  0  0  0  0  0
    9.0923   12.9265   21.5847 H   0  0  0  0  0  0  0  0  0  0  0  0
   10.2969   11.7660   21.0851 H   0  0  0  0  0  0  0  0  0  0  0  0
   11.8847   12.6250   22.8785 H   0  0  0  0  0  0  0  0  0  0  0  0
    9.0183    8.5147   24.4035 H   0  0  0  0  0  0  0  0  0  0  0  0
   11.4605   13.7363   20.5020 H   0  0  0  0  0  0  0  0  0  0  0  0
    9.9616   15.4243   22.4228 H   0  0  0  0  0  0  0  0  0  0  0  0
  1  2  2  0  0  0  0
  1  4  1  0  0  0  0
  2  6  1  0  0  0  0
  3  5  1  0  0  0  0
  3  7  2  0  0  0  0
  4 10  2  0  0  0  0
  5 11  2  0  0  0  0
  6 13  2  0  0  0  0
  7 14  1  0  0  0  0
  8 11  1  0  0  0  0
  8 14  2  0  0  0  0
  9 12  2  0  0  0  0
  9 19  1  0  0  0  0
 10 12  1  0  0  0  0
 10 13  1  0  0  0  0
 11 16  1  0  0  0  0
 12 17  1  0  0  0  0
 13 19  1  0  0  0  0
 14 25  1  0  0  0  0
 15 18  1  0  0  0  0
 15 21  2  0  0  0  0
 15 24  1  0  0  0  0
 17 18  1  0  0  0  0
 18 20  1  0  0  0  0
 20 25  1  0  0  0  0
 22 25  2  0  0  0  0
 23 25  2  0  0  0  0
  1 26  1  0  0  0  0
  2 27  1  0  0  0  0
  3 28  1  0  0  0  0
  4 29  1  0  0  0  0
  5 30  1  0  0  0  0
  6 31  1  0  0  0  0
  7 32  1  0  0  0  0
  8 33  1  0  0  0  0
  9 34  1  0  0  0  0
 16 35  1  0  0  0  0
 16 36  1  0  0  0  0
 16 37  1  0  0  0  0
 17 38  1  0  0  0  0
 17 39  1  0  0  0  0
 18 40  1  0  0  0  0
 19 41  1  0  0  0  0
 20 42  1  0  0  0  0
 24 43  1  0  0  0  0
M  END
> <Catalog ID>
Z45637004

> <PlateID>
1041831-R-20

> <Well>
B03

> <MW (desalted)>
358.412

> <ClogP>
2.904

> <HBD>
3

> <TPSA>
99.260

> <RotBonds>
5

> <ROCS_ShapeQuery>
A71EV2A-x0451_0A_A71EV2A-x0310_0A_A71EV2A-x0416_0A_peptide

> <ROCS_TanimotoCombo>
0.524 

> <ROCS_ShapeTanimoto>
0.336 

> <ROCS_ColorTanimoto>
0.188 

> <ROCS_RefTversky>
0.303 

> <ROCS_RefColorTversky>
0.216 

> <ROCS_RefTverskyCombo>
0.518 

> <ROCS_FitTversky>
1.482 

> <ROCS_FitColorTversky>
0.594 

> <ROCS_FitTverskyCombo>
2.077 

> <ROCS_ColorScore>
-6.607

> <ROCS_Overlap>
2103.648

> <ROCS_Rank>
286                 

$$$$
untitled-dbase-1378_5011
  -OEChem-11132311063D

 49 51  0     0  0  0  0  0  0999 V2000
    9.4097   17.3226   21.6304 C   0  0  0  0  0  0  0  0  0  0  0  0
    9.6368   17.8159   20.3456 C   0  0  0  0  0  0  0  0  0  0  0  0
   10.1417   16.2312   22.0980 C   0  0  0  0  0  0  0  0  0  0  0  0
   10.5959   17.2177   19.5283 C   0  0  0  0  0  0  0  0  0  0  0  0
   11.1009   15.6330   21.2807 C   0  0  0  0  0  0  0  0  0  0  0  0
   11.3280   16.1263   19.9959 C   0  0  0  0  0  0  0  0  0  0  0  0
    8.5231   11.9312   24.4852 C   0  0  0  0  0  0  0  0  0  0  0  0
    9.6043   12.0352   23.6428 C   0  0  0  0  0  0  0  0  0  0  0  0
    8.9054   10.0265   23.4298 C   0  0  0  0  0  0  0  0  0  0  0  0
    7.8242   12.7784   25.3865 C   0  0  0  0  0  0  0  0  0  0  0  0
    6.7643   12.2888   26.0600 C   0  0  0  0  0  0  0  0  0  0  0  0
    6.3195   10.9130   25.8858 C   0  0  0  0  0  0  0  0  0  0  0  0
    6.9819   10.1131   25.0331 C   0  0  0  0  0  0  0  0  0  0  0  0
   10.4168   13.1953   23.4316 C   0  0  0  0  0  0  0  0  0  0  0  0
   13.7827   17.2648   19.8829 C   0  0  0  0  0  0  0  0  0  0  0  0
   14.6414   15.5912   18.3882 C   0  0  0  0  0  0  0  0  0  0  0  0
    7.7088    8.4523   21.4692 C   0  0  0  0  0  0  0  0  0  0  0  0
   11.8775   14.4603   21.8056 C   0  0  0  0  0  0  0  0  0  0  0  0
   12.3491   15.5019   19.1024 C   0  0  0  0  0  0  0  0  0  0  0  0
    9.8350   10.8483   22.9914 N   0  0  0  0  0  0  0  0  0  0  0  0
    8.0749   10.6268   24.3418 N   0  0  0  0  0  0  0  0  0  0  0  0
   11.0151   13.3577   22.1652 N   0  0  0  0  0  0  0  0  0  0  0  0
   13.6933   15.8532   19.4812 N   0  0  0  0  0  0  0  0  0  0  0  0
   10.6106   14.0330   24.3463 O   0  0  0  0  0  0  0  0  0  0  0  0
   10.0990    7.9532   22.4245 O   0  0  0  0  0  0  0  0  0  0  0  0
    8.0894    7.5911   23.8997 O   0  0  0  0  0  0  0  0  0  0  0  0
    8.7824    8.3663   22.8827 S   0  0  0  0  0  0  0  0  0  0  0  0
    8.6623   17.7881   22.2660 H   0  0  0  0  0  0  0  0  0  0  0  0
    9.0662   18.6655   19.9820 H   0  0  0  0  0  0  0  0  0  0  0  0
    9.9561   15.8534   23.1000 H   0  0  0  0  0  0  0  0  0  0  0  0
   10.7659   17.6096   18.5289 H   0  0  0  0  0  0  0  0  0  0  0  0
    8.1450   13.8048   25.5261 H   0  0  0  0  0  0  0  0  0  0  0  0
    6.2121   12.9122   26.7548 H   0  0  0  0  0  0  0  0  0  0  0  0
    5.4627   10.5640   26.4491 H   0  0  0  0  0  0  0  0  0  0  0  0
    6.6988    9.0819   24.8619 H   0  0  0  0  0  0  0  0  0  0  0  0
   13.0731   17.4595   20.7006 H   0  0  0  0  0  0  0  0  0  0  0  0
   14.8050   17.4846   20.2246 H   0  0  0  0  0  0  0  0  0  0  0  0
   13.5373   17.9066   19.0239 H   0  0  0  0  0  0  0  0  0  0  0  0
   14.5735   14.5350   18.0885 H   0  0  0  0  0  0  0  0  0  0  0  0
   14.3962   16.2325   17.5287 H   0  0  0  0  0  0  0  0  0  0  0  0
   15.6638   15.8105   18.7294 H   0  0  0  0  0  0  0  0  0  0  0  0
    7.5838    7.4446   21.0699 H   0  0  0  0  0  0  0  0  0  0  0  0
    6.7484    8.8582   21.7905 H   0  0  0  0  0  0  0  0  0  0  0  0
    8.1702    9.1039   20.7256 H   0  0  0  0  0  0  0  0  0  0  0  0
   12.5890   14.1008   21.0541 H   0  0  0  0  0  0  0  0  0  0  0  0
   12.4550   14.7372   22.6939 H   0  0  0  0  0  0  0  0  0  0  0  0
   12.2741   14.4064   19.1238 H   0  0  0  0  0  0  0  0  0  0  0  0
   12.2102   15.8107   18.0580 H   0  0  0  0  0  0  0  0  0  0  0  0
   10.8864   12.6275   21.4724 H   0  0  0  0  0  0  0  0  0  0  0  0
  1  2  2  0  0  0  0
  1  3  1  0  0  0  0
  2  4  1  0  0  0  0
  3  5  2  0  0  0  0
  4  6  2  0  0  0  0
  5  6  1  0  0  0  0
  5 18  1  0  0  0  0
  6 19  1  0  0  0  0
  7  8  2  0  0  0  0
  7 10  1  0  0  0  0
  7 21  1  0  0  0  0
  8 14  1  0  0  0  0
  8 20  1  0  0  0  0
  9 20  2  0  0  0  0
  9 21  1  0  0  0  0
  9 27  1  0  0  0  0
 10 11  2  0  0  0  0
 11 12  1  0  0  0  0
 12 13  2  0  0  0  0
 13 21  1  0  0  0  0
 14 22  1  0  0  0  0
 14 24  2  0  0  0  0
 15 23  1  0  0  0  0
 16 23  1  0  0  0  0
 17 27  1  0  0  0  0
 18 22  1  0  0  0  0
 19 23  1  0  0  0  0
 25 27  2  0  0  0  0
 26 27  2  0  0  0  0
  1 28  1  0  0  0  0
  2 29  1  0  0  0  0
  3 30  1  0  0  0  0
  4 31  1  0  0  0  0
 10 32  1  0  0  0  0
 11 33  1  0  0  0  0
 12 34  1  0  0  0  0
 13 35  1  0  0  0  0
 15 36  1  0  0  0  0
 15 37  1  0  0  0  0
 15 38  1  0  0  0  0
 16 39  1  0  0  0  0
 16 40  1  0  0  0  0
 16 41  1  0  0  0  0
 17 42  1  0  0  0  0
 17 43  1  0  0  0  0
 17 44  1  0  0  0  0
 18 45  1  0  0  0  0
 18 46  1  0  0  0  0
 19 47  1  0  0  0  0
 19 48  1  0  0  0  0
 22 49  1  0  0  0  0
M  END
> <Catalog ID>
Z827409688

> <PlateID>
1041831-R-18

> <Well>
B09

> <MW (desalted)>
386.468

> <ClogP>
2.296

> <HBD>
1

> <TPSA>
83.780

> <RotBonds>
6

> <ROCS_ShapeQuery>
A71EV2A-x0451_0A_A71EV2A-x0310_0A_A71EV2A-x0416_0A_peptide

> <ROCS_TanimotoCombo>
0.524 

> <ROCS_ShapeTanimoto>
0.374 

> <ROCS_ColorTanimoto>
0.150 

> <ROCS_RefTversky>
0.331 

> <ROCS_RefColorTversky>
0.177 

> <ROCS_RefTverskyCombo>
0.509 

> <ROCS_FitTversky>
1.528 

> <ROCS_FitColorTversky>
0.489 

> <ROCS_FitTverskyCombo>
2.017 

> <ROCS_ColorScore>
-5.435

> <ROCS_Overlap>
2303.580

> <ROCS_Rank>
287                 

$$$$
untitled-dbase-1652_71
  -OEChem-11132311063D

 48 52  0     1  0  0  0  0  0999 V2000
    9.6144    6.5625   21.3373 C   0  0  0  0  0  0  0  0  0  0  0  0
    9.1003    6.6589   22.6304 C   0  0  0  0  0  0  0  0  0  0  0  0
    9.9966    7.7152   20.6510 C   0  0  0  0  0  0  0  0  0  0  0  0
    8.9682    7.9080   23.2371 C   0  0  0  0  0  0  0  0  0  0  0  0
    9.8645    8.9642   21.2577 C   0  0  0  0  0  0  0  0  0  0  0  0
    8.5320   11.9728   24.3945 C   0  0  0  0  0  0  0  0  0  0  0  0
    9.3504    9.0606   22.5508 C   0  0  0  0  0  0  0  0  0  0  0  0
    8.2998   10.6710   24.0721 C   0  0  0  0  0  0  0  0  0  0  0  0
    9.6281   12.3434   23.6219 C   0  0  0  0  0  0  0  0  0  0  0  0
   11.9742   14.8940   22.1657 C   0  0  0  0  0  0  0  0  0  0  0  0
    7.5712   12.4647   25.3927 C   0  0  0  0  0  0  0  0  0  0  0  0
    7.1739   10.0366   24.7663 C   0  0  0  0  0  0  0  0  0  0  0  0
    6.8803   11.1285   25.8573 C   0  0  0  0  0  0  0  0  0  0  0  0
   13.7607   15.7325   18.3254 C   0  0  0  0  0  0  0  0  0  0  0  0
   14.6217   15.8776   19.5825 C   0  0  0  0  0  0  0  0  0  0  0  0
   11.9108   14.6885   19.6791 C   0  0  0  0  0  0  0  0  0  0  0  0
   12.8011   14.7875   20.9216 C   0  0  1  0  0  0  0  0  0  0  0  0
   12.3482   15.9167   18.8799 C   0  0  1  0  0  0  0  0  0  0  0  0
   13.5664   16.0899   20.6666 C   0  0  2  0  0  0  0  0  0  0  0  0
   10.3215   13.6740   23.5667 C   0  0  0  0  0  0  0  0  0  0  0  0
   10.0615   11.3259   22.8545 N   0  0  0  0  0  0  0  0  0  0  0  0
    9.2185   10.3057   23.1565 N   0  0  0  0  0  0  0  0  0  0  0  0
   11.1934   13.7824   22.4191 N   0  0  0  0  0  0  0  0  0  0  0  0
   12.0388   15.9091   22.8491 O   0  0  0  0  0  0  0  0  0  0  0  0
   12.5845   16.8704   19.9393 O   0  0  0  0  0  0  0  0  0  0  0  0
    9.7191    5.5902   20.8652 H   0  0  0  0  0  0  0  0  0  0  0  0
    8.8039    5.7615   23.1654 H   0  0  0  0  0  0  0  0  0  0  0  0
   10.3982    7.6392   19.6447 H   0  0  0  0  0  0  0  0  0  0  0  0
    8.5668    7.9690   24.2458 H   0  0  0  0  0  0  0  0  0  0  0  0
   10.1670    9.8546   20.7117 H   0  0  0  0  0  0  0  0  0  0  0  0
    8.0492   12.9731   26.2343 H   0  0  0  0  0  0  0  0  0  0  0  0
    6.8355   13.1322   24.9321 H   0  0  0  0  0  0  0  0  0  0  0  0
    6.3124    9.9176   24.1024 H   0  0  0  0  0  0  0  0  0  0  0  0
    7.4259    9.0773   25.2259 H   0  0  0  0  0  0  0  0  0  0  0  0
    7.3297   10.8104   26.8075 H   0  0  0  0  0  0  0  0  0  0  0  0
    5.8076   11.2596   26.0308 H   0  0  0  0  0  0  0  0  0  0  0  0
   14.0065   16.5347   17.6205 H   0  0  0  0  0  0  0  0  0  0  0  0
   13.8994   14.7731   17.8185 H   0  0  0  0  0  0  0  0  0  0  0  0
   15.2610   15.0097   19.7679 H   0  0  0  0  0  0  0  0  0  0  0  0
   15.2595   16.7637   19.4874 H   0  0  0  0  0  0  0  0  0  0  0  0
   12.0649   13.7582   19.1234 H   0  0  0  0  0  0  0  0  0  0  0  0
   10.8486   14.7606   19.9398 H   0  0  0  0  0  0  0  0  0  0  0  0
   13.4641   13.9236   21.0333 H   0  0  0  0  0  0  0  0  0  0  0  0
   11.6151   16.2707   18.1519 H   0  0  0  0  0  0  0  0  0  0  0  0
   13.9229   16.6137   21.5570 H   0  0  0  0  0  0  0  0  0  0  0  0
    9.5906   14.4883   23.5130 H   0  0  0  0  0  0  0  0  0  0  0  0
   10.9270   13.8391   24.4640 H   0  0  0  0  0  0  0  0  0  0  0  0
   11.2342   13.0042   21.7677 H   0  0  0  0  0  0  0  0  0  0  0  0
  1  2  2  0  0  0  0
  1  3  1  0  0  0  0
  2  4  1  0  0  0  0
  3  5  2  0  0  0  0
  4  7  2  0  0  0  0
  5  7  1  0  0  0  0
  6  8  2  0  0  0  0
  6  9  1  0  0  0  0
  6 11  1  0  0  0  0
  7 22  1  0  0  0  0
  8 12  1  0  0  0  0
  8 22  1  0  0  0  0
  9 20  1  0  0  0  0
  9 21  2  0  0  0  0
 10 17  1  0  0  0  0
 10 23  1  0  0  0  0
 10 24  2  0  0  0  0
 11 13  1  0  0  0  0
 12 13  1  0  0  0  0
 14 15  1  0  0  0  0
 14 18  1  0  0  0  0
 15 19  1  0  0  0  0
 16 17  1  0  0  0  0
 16 18  1  0  0  0  0
 17 19  1  0  0  0  0
 18 25  1  0  0  0  0
 19 25  1  0  0  0  0
 20 23  1  0  0  0  0
 21 22  1  0  0  0  0
  1 26  1  0  0  0  0
  2 27  1  0  0  0  0
  3 28  1  0  0  0  0
  4 29  1  0  0  0  0
  5 30  1  0  0  0  0
 11 31  1  0  0  0  0
 11 32  1  0  0  0  0
 12 33  1  0  0  0  0
 12 34  1  0  0  0  0
 13 35  1  0  0  0  0
 13 36  1  0  0  0  0
 14 37  1  0  0  0  0
 14 38  1  0  0  0  0
 15 39  1  0  0  0  0
 15 40  1  0  0  0  0
 16 41  1  0  0  0  0
 16 42  1  0  0  0  0
 17 43  1  0  0  0  0
 18 44  1  0  0  0  0
 19 45  1  0  0  0  0
 20 46  1  0  0  0  0
 20 47  1  0  0  0  0
 23 48  1  0  0  0  0
M  END
> <Catalog ID>
Z1198393563

> <PlateID>
1041831-R-21

> <Well>
F03

> <MW (desalted)>
337.416

> <ClogP>
1.994

> <HBD>
1

> <TPSA>
56.150

> <RotBonds>
4

> <ROCS_ShapeQuery>
A71EV2A-x0451_0A_A71EV2A-x0310_0A_A71EV2A-x0416_0A_peptide

> <ROCS_TanimotoCombo>
0.524 

> <ROCS_ShapeTanimoto>
0.349 

> <ROCS_ColorTanimoto>
0.175 

> <ROCS_RefTversky>
0.314 

> <ROCS_RefColorTversky>
0.218 

> <ROCS_RefTverskyCombo>
0.531 

> <ROCS_FitTversky>
1.477 

> <ROCS_FitColorTversky>
0.469 

> <ROCS_FitTverskyCombo>
1.945 

> <ROCS_ColorScore>
-6.709

> <ROCS_Overlap>
2180.719

> <ROCS_Rank>
288                 

$$$$
untitled-dbase-396_3478
  -OEChem-11132311063D

 44 46  0     1  0  0  0  0  0999 V2000
    6.4160   12.3461   25.6964 C   0  0  0  0  0  0  0  0  0  0  0  0
    6.2684   11.0550   26.1992 C   0  0  0  0  0  0  0  0  0  0  0  0
    7.3621   12.6243   24.7032 C   0  0  0  0  0  0  0  0  0  0  0  0
    7.0588   10.0030   25.7275 C   0  0  0  0  0  0  0  0  0  0  0  0
    9.6313   10.1937   23.1854 C   0  0  0  0  0  0  0  0  0  0  0  0
    8.1704   11.5798   24.2122 C   0  0  0  0  0  0  0  0  0  0  0  0
    9.2025   11.5000   23.2357 C   0  0  0  0  0  0  0  0  0  0  0  0
    8.0005   10.2958   24.7346 C   0  0  0  0  0  0  0  0  0  0  0  0
   11.2584   15.2085   21.7989 C   0  0  0  0  0  0  0  0  0  0  0  0
   10.4046   15.9747   18.8580 C   0  0  0  0  0  0  0  0  0  0  0  0
   11.5714   13.1192   24.0366 C   0  0  0  0  0  0  0  0  0  0  0  0
   13.4166   16.2127   21.0063 C   0  0  0  0  0  0  0  0  0  0  0  0
   12.6301   14.7862   18.9245 C   0  0  0  0  0  0  0  0  0  0  0  0
   11.9081   16.1525   20.8272 C   0  0  1  0  0  0  0  0  0  0  0  0
   10.2002   15.3666   17.4925 C   0  0  0  0  0  0  0  0  0  0  0  0
    9.7399   12.6371   22.4005 C   0  0  0  0  0  0  0  0  0  0  0  0
   11.2499   12.8461   22.5746 C   0  0  1  0  0  0  0  0  0  0  0  0
    8.9002    9.4750   24.0928 N   0  0  0  0  0  0  0  0  0  0  0  0
   11.6016   15.6521   19.4907 N   0  0  0  0  0  0  0  0  0  0  0  0
   11.7350   13.9133   21.7292 N   0  0  0  0  0  0  0  0  0  0  0  0
   10.3901   15.6246   22.5568 O   0  0  0  0  0  0  0  0  0  0  0  0
    9.5405   16.7074   19.3434 O   0  0  0  0  0  0  0  0  0  0  0  0
   12.3311   12.4168   24.6954 O   0  0  0  0  0  0  0  0  0  0  0  0
   10.9581   14.2075   24.5603 O   0  0  0  0  0  0  0  0  0  0  0  0
   14.0669   14.8418   20.0185 S   0  0  0  0  0  0  0  0  0  0  0  0
    5.7894   13.1475   26.0786 H   0  0  0  0  0  0  0  0  0  0  0  0
    5.5273   10.8614   26.9704 H   0  0  0  0  0  0  0  0  0  0  0  0
    7.4644   13.6359   24.3209 H   0  0  0  0  0  0  0  0  0  0  0  0
    6.9439    8.9985   26.1202 H   0  0  0  0  0  0  0  0  0  0  0  0
   10.3895    9.7100   22.5849 H   0  0  0  0  0  0  0  0  0  0  0  0
   13.8191   17.1483   20.6058 H   0  0  0  0  0  0  0  0  0  0  0  0
   13.7288   16.1073   22.0493 H   0  0  0  0  0  0  0  0  0  0  0  0
   12.2415   13.7659   18.8581 H   0  0  0  0  0  0  0  0  0  0  0  0
   12.8989   15.1367   17.9244 H   0  0  0  0  0  0  0  0  0  0  0  0
   11.4502   17.1359   20.9808 H   0  0  0  0  0  0  0  0  0  0  0  0
    9.7049   14.4079   17.6025 H   0  0  0  0  0  0  0  0  0  0  0  0
   11.1656   15.2334   17.0155 H   0  0  0  0  0  0  0  0  0  0  0  0
    9.5885   16.0346   16.8952 H   0  0  0  0  0  0  0  0  0  0  0  0
    9.1928   13.5490   22.6748 H   0  0  0  0  0  0  0  0  0  0  0  0
    9.5016   12.4646   21.3420 H   0  0  0  0  0  0  0  0  0  0  0  0
   11.8129   11.9511   22.2861 H   0  0  0  0  0  0  0  0  0  0  0  0
    9.0053    8.4850   24.2671 H   0  0  0  0  0  0  0  0  0  0  0  0
   12.4610   13.7011   21.0515 H   0  0  0  0  0  0  0  0  0  0  0  0
   10.3741   14.6904   23.9383 H   0  0  0  0  0  0  0  0  0  0  0  0
  1  2  2  0  0  0  0
  1  3  1  0  0  0  0
  2  4  1  0  0  0  0
  3  6  2  0  0  0  0
  4  8  2  0  0  0  0
  5  7  2  0  0  0  0
  5 18  1  0  0  0  0
  6  7  1  0  0  0  0
  6  8  1  0  0  0  0
  7 16  1  0  0  0  0
  8 18  1  0  0  0  0
  9 14  1  0  0  0  0
  9 20  1  0  0  0  0
  9 21  2  0  0  0  0
 10 15  1  0  0  0  0
 10 19  1  0  0  0  0
 10 22  2  0  0  0  0
 11 17  1  0  0  0  0
 11 23  2  0  0  0  0
 11 24  1  0  0  0  0
 12 14  1  0  0  0  0
 12 25  1  0  0  0  0
 13 19  1  0  0  0  0
 13 25  1  0  0  0  0
 14 19  1  0  0  0  0
 16 17  1  0  0  0  0
 17 20  1  0  0  0  0
  1 26  1  0  0  0  0
  2 27  1  0  0  0  0
  3 28  1  0  0  0  0
  4 29  1  0  0  0  0
  5 30  1  0  0  0  0
 12 31  1  0  0  0  0
 12 32  1  0  0  0  0
 13 33  1  0  0  0  0
 13 34  1  0  0  0  0
 14 35  1  0  0  0  0
 15 36  1  0  0  0  0
 15 37  1  0  0  0  0
 15 38  1  0  0  0  0
 16 39  1  0  0  0  0
 16 40  1  0  0  0  0
 17 41  1  0  0  0  0
 18 42  1  0  0  0  0
 20 43  1  0  0  0  0
 24 44  1  0  0  0  0
M  END
> <Catalog ID>
Z1444490089

> <PlateID>
1041831-R-05

> <Well>
H07

> <MW (desalted)>
361.415

> <ClogP>
1.669

> <HBD>
3

> <TPSA>
102.500

> <RotBonds>
5

> <ROCS_ShapeQuery>
A71EV2A-x0451_0A_A71EV2A-x0310_0A_A71EV2A-x0416_0A_peptide

> <ROCS_TanimotoCombo>
0.523 

> <ROCS_ShapeTanimoto>
0.355 

> <ROCS_ColorTanimoto>
0.169 

> <ROCS_RefTversky>
0.315 

> <ROCS_RefColorTversky>
0.197 

> <ROCS_RefTverskyCombo>
0.512 

> <ROCS_FitTversky>
1.540 

> <ROCS_FitColorTversky>
0.542 

> <ROCS_FitTverskyCombo>
2.082 

> <ROCS_ColorScore>
-6.026

> <ROCS_Overlap>
2193.203

> <ROCS_Rank>
289                 

$$$$
untitled-dbase-1269_1033
  -OEChem-11132311063D

 41 43  0     0  0  0  0  0  0999 V2000
    8.3219   12.2950   24.3113 C   0  0  0  0  0  0  0  0  0  0  0  0
    8.1206    9.5127   24.2832 C   0  0  0  0  0  0  0  0  0  0  0  0
    9.2133   11.5390   23.5501 C   0  0  0  0  0  0  0  0  0  0  0  0
    7.3299   11.6599   25.0585 C   0  0  0  0  0  0  0  0  0  0  0  0
    9.1126   10.1478   23.5360 C   0  0  0  0  0  0  0  0  0  0  0  0
    7.2292   10.2688   25.0444 C   0  0  0  0  0  0  0  0  0  0  0  0
   12.5878   16.2561   18.7631 C   0  0  0  0  0  0  0  0  0  0  0  0
   12.8757   15.4454   20.7725 C   0  0  0  0  0  0  0  0  0  0  0  0
   11.8099   16.7218   17.6667 C   0  0  0  0  0  0  0  0  0  0  0  0
   10.4659   16.7316   17.7671 C   0  0  0  0  0  0  0  0  0  0  0  0
    9.7879   16.2761   18.9728 C   0  0  0  0  0  0  0  0  0  0  0  0
   10.5215   15.8360   20.0088 C   0  0  0  0  0  0  0  0  0  0  0  0
   10.8448   13.4112   23.0882 C   0  0  0  0  0  0  0  0  0  0  0  0
    6.6573   13.8360   25.7426 C   0  0  0  0  0  0  0  0  0  0  0  0
    9.7957    7.9772   22.8450 C   0  0  0  0  0  0  0  0  0  0  0  0
   12.5899   14.9166   22.1200 C   0  0  0  0  0  0  0  0  0  0  0  0
   13.8820   16.1286   18.9644 N   0  0  0  0  0  0  0  0  0  0  0  0
   14.0626   15.6164   20.2341 N   0  0  0  0  0  0  0  0  0  0  0  0
   11.9056   15.8314   19.8926 N   0  0  0  0  0  0  0  0  0  0  0  0
   10.2145   12.1977   22.7990 N   0  0  0  0  0  0  0  0  0  0  0  0
   11.7786   13.7187   22.0951 N   0  0  0  0  0  0  0  0  0  0  0  0
   10.6367   14.1309   24.0621 O   0  0  0  0  0  0  0  0  0  0  0  0
    6.4728   12.4231   25.7940 O   0  0  0  0  0  0  0  0  0  0  0  0
    9.9741    9.3910   22.7987 O   0  0  0  0  0  0  0  0  0  0  0  0
    6.0112    9.4576   25.9577 Cl  0  0  0  0  0  0  0  0  0  0  0  0
    8.3973   13.3801   24.3277 H   0  0  0  0  0  0  0  0  0  0  0  0
    8.0500    8.4274   24.2668 H   0  0  0  0  0  0  0  0  0  0  0  0
   12.3058   17.0638   16.7653 H   0  0  0  0  0  0  0  0  0  0  0  0
    9.8509   17.0829   16.9456 H   0  0  0  0  0  0  0  0  0  0  0  0
    8.7056   16.3007   19.0069 H   0  0  0  0  0  0  0  0  0  0  0  0
   10.0784   15.4834   20.9319 H   0  0  0  0  0  0  0  0  0  0  0  0
    5.9098   14.3250   26.3720 H   0  0  0  0  0  0  0  0  0  0  0  0
    6.5605   14.1797   24.7096 H   0  0  0  0  0  0  0  0  0  0  0  0
    7.6564   14.0777   26.1128 H   0  0  0  0  0  0  0  0  0  0  0  0
   10.5460    7.4937   22.2146 H   0  0  0  0  0  0  0  0  0  0  0  0
    8.7920    7.7240   22.4945 H   0  0  0  0  0  0  0  0  0  0  0  0
    9.9159    7.6373   23.8764 H   0  0  0  0  0  0  0  0  0  0  0  0
   13.5153   14.6625   22.6677 H   0  0  0  0  0  0  0  0  0  0  0  0
   12.0541   15.6473   22.7518 H   0  0  0  0  0  0  0  0  0  0  0  0
   10.5084   11.7272   21.9467 H   0  0  0  0  0  0  0  0  0  0  0  0
   11.8928   13.0728   21.3217 H   0  0  0  0  0  0  0  0  0  0  0  0
  1  3  1  0  0  0  0
  1  4  2  0  0  0  0
  2  5  1  0  0  0  0
  2  6  2  0  0  0  0
  3  5  2  0  0  0  0
  3 20  1  0  0  0  0
  4  6  1  0  0  0  0
  4 23  1  0  0  0  0
  5 24  1  0  0  0  0
  6 25  1  0  0  0  0
  7  9  1  0  0  0  0
  7 17  2  0  0  0  0
  7 19  1  0  0  0  0
  8 16  1  0  0  0  0
  8 18  2  0  0  0  0
  8 19  1  0  0  0  0
  9 10  2  0  0  0  0
 10 11  1  0  0  0  0
 11 12  2  0  0  0  0
 12 19  1  0  0  0  0
 13 20  1  0  0  0  0
 13 21  1  0  0  0  0
 13 22  2  0  0  0  0
 14 23  1  0  0  0  0
 15 24  1  0  0  0  0
 16 21  1  0  0  0  0
 17 18  1  0  0  0  0
  1 26  1  0  0  0  0
  2 27  1  0  0  0  0
  9 28  1  0  0  0  0
 10 29  1  0  0  0  0
 11 30  1  0  0  0  0
 12 31  1  0  0  0  0
 14 32  1  0  0  0  0
 14 33  1  0  0  0  0
 14 34  1  0  0  0  0
 15 35  1  0  0  0  0
 15 36  1  0  0  0  0
 15 37  1  0  0  0  0
 16 38  1  0  0  0  0
 16 39  1  0  0  0  0
 20 40  1  0  0  0  0
 21 41  1  0  0  0  0
M  END
> <Catalog ID>
Z410981346

> <PlateID>
1041831-R-16

> <Well>
G10

> <MW (desalted)>
361.783

> <ClogP>
1.820

> <HBD>
2

> <TPSA>
89.780

> <RotBonds>
5

> <ROCS_ShapeQuery>
A71EV2A-x0451_0A_A71EV2A-x0310_0A_A71EV2A-x0416_0A_peptide

> <ROCS_TanimotoCombo>
0.523 

> <ROCS_ShapeTanimoto>
0.365 

> <ROCS_ColorTanimoto>
0.158 

> <ROCS_RefTversky>
0.323 

> <ROCS_RefColorTversky>
0.188 

> <ROCS_RefTverskyCombo>
0.511 

> <ROCS_FitTversky>
1.552 

> <ROCS_FitColorTversky>
0.504 

> <ROCS_FitTverskyCombo>
2.056 

> <ROCS_ColorScore>
-5.749

> <ROCS_Overlap>
2246.024

> <ROCS_Rank>
290                 

$$$$
untitled-dbase-349_4593
  -OEChem-11132311063D

 51 55  0     1  0  0  0  0  0999 V2000
    9.0604    9.4601   22.8348 C   0  0  0  0  0  0  0  0  0  0  0  0
    6.0804   11.4357   26.1040 C   0  0  0  0  0  0  0  0  0  0  0  0
    7.9288    9.3642   23.6396 C   0  0  0  0  0  0  0  0  0  0  0  0
    6.4219   10.3632   25.2928 C   0  0  0  0  0  0  0  0  0  0  0  0
    9.8226   10.6214   22.8588 C   0  0  0  0  0  0  0  0  0  0  0  0
    6.8939   12.5499   26.0648 C   0  0  0  0  0  0  0  0  0  0  0  0
    7.5561   10.4329   24.4725 C   0  0  0  0  0  0  0  0  0  0  0  0
    8.3252   11.6151   24.5019 C   0  0  0  0  0  0  0  0  0  0  0  0
    9.4519   11.6837   23.6870 C   0  0  0  0  0  0  0  0  0  0  0  0
   11.5627   14.4386   23.1659 C   0  0  0  0  0  0  0  0  0  0  0  0
   10.9806   13.3115   22.6427 C   0  0  0  0  0  0  0  0  0  0  0  0
   12.4477   15.3448   22.5028 C   0  0  0  0  0  0  0  0  0  0  0  0
   15.4229   13.1204   22.7251 C   0  0  0  0  0  0  0  0  0  0  0  0
   14.1520   12.8088   23.4574 C   0  0  0  0  0  0  0  0  0  0  0  0
   14.9030   16.9782   19.0740 C   0  0  0  0  0  0  0  0  0  0  0  0
   14.0814   16.9916   17.8020 C   0  0  0  0  0  0  0  0  0  0  0  0
   12.8593   15.8904   19.4519 C   0  0  0  0  0  0  0  0  0  0  0  0
   14.3346   15.7746   19.7939 C   0  0  2  0  0  0  0  0  0  0  0  0
   14.0971   13.4840   22.1145 C   0  0  0  0  0  0  0  0  0  0  0  0
   11.0568   12.6840   21.3113 C   0  0  0  0  0  0  0  0  0  0  0  0
   14.6170   15.7508   21.2838 C   0  0  0  0  0  0  0  0  0  0  0  0
    7.9962   12.6574   25.2882 N   0  0  0  0  0  0  0  0  0  0  0  0
   11.1716   14.5963   24.4665 N   0  0  0  0  0  0  0  0  0  0  0  0
   10.3571   13.5922   24.7724 N   0  0  0  0  0  0  0  0  0  0  0  0
   10.2440   12.8229   23.6776 N   0  0  0  0  0  0  0  0  0  0  0  0
   13.6814   14.8734   21.9839 N   0  0  0  0  0  0  0  0  0  0  0  0
   12.0903   16.5369   22.3911 O   0  0  0  0  0  0  0  0  0  0  0  0
   12.7911   16.4585   18.1350 O   0  0  0  0  0  0  0  0  0  0  0  0
    9.3453    8.6320   22.1930 H   0  0  0  0  0  0  0  0  0  0  0  0
    5.2068   11.3988   26.7443 H   0  0  0  0  0  0  0  0  0  0  0  0
    7.3393    8.4503   23.6142 H   0  0  0  0  0  0  0  0  0  0  0  0
    5.7984    9.4723   25.3039 H   0  0  0  0  0  0  0  0  0  0  0  0
   10.7057   10.6890   22.2275 H   0  0  0  0  0  0  0  0  0  0  0  0
    6.6764   13.4190   26.6768 H   0  0  0  0  0  0  0  0  0  0  0  0
   16.0469   13.9149   23.1159 H   0  0  0  0  0  0  0  0  0  0  0  0
   15.9695   12.2939   22.2879 H   0  0  0  0  0  0  0  0  0  0  0  0
   13.8426   11.7723   23.5136 H   0  0  0  0  0  0  0  0  0  0  0  0
   13.9232   13.3941   24.3396 H   0  0  0  0  0  0  0  0  0  0  0  0
   15.9772   16.9085   18.8816 H   0  0  0  0  0  0  0  0  0  0  0  0
   14.7173   17.8948   19.6471 H   0  0  0  0  0  0  0  0  0  0  0  0
   13.9690   17.9963   17.3851 H   0  0  0  0  0  0  0  0  0  0  0  0
   14.5228   16.3432   17.0377 H   0  0  0  0  0  0  0  0  0  0  0  0
   12.3515   14.9214   19.4567 H   0  0  0  0  0  0  0  0  0  0  0  0
   12.3284   16.5652   20.1325 H   0  0  0  0  0  0  0  0  0  0  0  0
   14.7414   14.8629   19.3424 H   0  0  0  0  0  0  0  0  0  0  0  0
   13.7640   12.8780   21.2788 H   0  0  0  0  0  0  0  0  0  0  0  0
   11.8825   11.9543   21.2602 H   0  0  0  0  0  0  0  0  0  0  0  0
   10.1254   12.1523   21.0480 H   0  0  0  0  0  0  0  0  0  0  0  0
   11.2182   13.4267   20.5101 H   0  0  0  0  0  0  0  0  0  0  0  0
   15.6421   15.3876   21.4491 H   0  0  0  0  0  0  0  0  0  0  0  0
   14.5205   16.7709   21.6839 H   0  0  0  0  0  0  0  0  0  0  0  0
  1  3  2  0  0  0  0
  1  5  1  0  0  0  0
  2  4  1  0  0  0  0
  2  6  2  0  0  0  0
  3  7  1  0  0  0  0
  4  7  2  0  0  0  0
  5  9  2  0  0  0  0
  6 22  1  0  0  0  0
  7  8  1  0  0  0  0
  8  9  1  0  0  0  0
  8 22  2  0  0  0  0
  9 25  1  0  0  0  0
 10 11  2  0  0  0  0
 10 12  1  0  0  0  0
 10 23  1  0  0  0  0
 11 20  1  0  0  0  0
 11 25  1  0  0  0  0
 12 26  1  0  0  0  0
 12 27  2  0  0  0  0
 13 14  1  0  0  0  0
 13 19  1  0  0  0  0
 14 19  1  0  0  0  0
 15 16  1  0  0  0  0
 15 18  1  0  0  0  0
 16 28  1  0  0  0  0
 17 18  1  0  0  0  0
 17 28  1  0  0  0  0
 18 21  1  0  0  0  0
 19 26  1  0  0  0  0
 21 26  1  0  0  0  0
 23 24  2  0  0  0  0
 24 25  1  0  0  0  0
  1 29  1  0  0  0  0
  2 30  1  0  0  0  0
  3 31  1  0  0  0  0
  4 32  1  0  0  0  0
  5 33  1  0  0  0  0
  6 34  1  0  0  0  0
 13 35  1  0  0  0  0
 13 36  1  0  0  0  0
 14 37  1  0  0  0  0
 14 38  1  0  0  0  0
 15 39  1  0  0  0  0
 15 40  1  0  0  0  0
 16 41  1  0  0  0  0
 16 42  1  0  0  0  0
 17 43  1  0  0  0  0
 17 44  1  0  0  0  0
 18 45  1  0  0  0  0
 19 46  1  0  0  0  0
 20 47  1  0  0  0  0
 20 48  1  0  0  0  0
 20 49  1  0  0  0  0
 21 50  1  0  0  0  0
 21 51  1  0  0  0  0
M  END
> <Catalog ID>
Z1165662087

> <PlateID>
1041831-R-05

> <Well>
C10

> <MW (desalted)>
377.440

> <ClogP>
1.367

> <HBD>
0

> <TPSA>
73.140

> <RotBonds>
5

> <ROCS_ShapeQuery>
A71EV2A-x0451_0A_A71EV2A-x0310_0A_A71EV2A-x0416_0A_peptide

> <ROCS_TanimotoCombo>
0.523 

> <ROCS_ShapeTanimoto>
0.378 

> <ROCS_ColorTanimoto>
0.146 

> <ROCS_RefTversky>
0.337 

> <ROCS_RefColorTversky>
0.171 

> <ROCS_RefTverskyCombo>
0.508 

> <ROCS_FitTversky>
1.463 

> <ROCS_FitColorTversky>
0.499 

> <ROCS_FitTverskyCombo>
1.962 

> <ROCS_ColorScore>
-5.218

> <ROCS_Overlap>
2348.807

> <ROCS_Rank>
291                 

$$$$
untitled-dbase-2188_5526
  -OEChem-11132311063D

 53 56  0     1  0  0  0  0  0999 V2000
    7.6282   11.0018   27.3292 C   0  0  0  0  0  0  0  0  0  0  0  0
    7.1367   11.7831   28.3778 C   0  0  0  0  0  0  0  0  0  0  0  0
    5.4202   10.9075   26.3076 C   0  0  0  0  0  0  0  0  0  0  0  0
    6.7749   10.5666   26.3000 C   0  0  0  0  0  0  0  0  0  0  0  0
    5.7953   12.1057   28.3616 C   0  0  0  0  0  0  0  0  0  0  0  0
    4.9601   11.6798   27.3542 C   0  0  0  0  0  0  0  0  0  0  0  0
    8.5462   11.8249   24.5456 C   0  0  0  0  0  0  0  0  0  0  0  0
   10.1127   10.6400   23.3939 C   0  0  0  0  0  0  0  0  0  0  0  0
   10.8480   13.8444   23.3827 C   0  0  0  0  0  0  0  0  0  0  0  0
   11.0143   16.6834   19.5136 C   0  0  0  0  0  0  0  0  0  0  0  0
    9.9240   15.6228   19.3896 C   0  0  0  0  0  0  0  0  0  0  0  0
   12.3742   16.0604   19.8158 C   0  0  0  0  0  0  0  0  0  0  0  0
    9.8679   14.7251   20.6245 C   0  0  0  0  0  0  0  0  0  0  0  0
   12.3209   15.1638   21.0516 C   0  0  0  0  0  0  0  0  0  0  0  0
    3.8029   12.8504   28.7586 C   0  0  0  0  0  0  0  0  0  0  0  0
   11.2329   14.0928   20.9176 C   0  0  0  0  0  0  0  0  0  0  0  0
    7.8251   10.5800   24.0233 C   0  0  2  0  0  0  0  0  0  0  0  0
    6.7079   10.9708   23.0650 C   0  0  0  0  0  0  0  0  0  0  0  0
    7.3273    9.7246   25.1810 C   0  0  0  0  0  0  0  0  0  0  0  0
   10.8453   12.7903   24.4603 C   0  0  0  0  0  0  0  0  0  0  0  0
    8.9124    9.9312   23.3234 N   0  0  0  0  0  0  0  0  0  0  0  0
    9.8633   11.7728   24.1426 N   0  0  0  0  0  0  0  0  0  0  0  0
   11.1606   13.3017   22.1446 N   0  0  0  0  0  0  0  0  0  0  0  0
    8.0105   12.7023   25.2112 O   0  0  0  0  0  0  0  0  0  0  0  0
   11.1703   10.2989   22.8804 O   0  0  0  0  0  0  0  0  0  0  0  0
   10.5994   15.0283   23.5949 O   0  0  0  0  0  0  0  0  0  0  0  0
    5.1428   12.8538   29.2924 O   0  0  0  0  0  0  0  0  0  0  0  0
    3.6800   12.1076   27.5284 O   0  0  0  0  0  0  0  0  0  0  0  0
    8.6816   10.7327   27.3145 H   0  0  0  0  0  0  0  0  0  0  0  0
    7.7914   12.1214   29.1726 H   0  0  0  0  0  0  0  0  0  0  0  0
    4.7513   10.5793   25.5191 H   0  0  0  0  0  0  0  0  0  0  0  0
   11.0722   17.2629   18.5854 H   0  0  0  0  0  0  0  0  0  0  0  0
   10.7497   17.3859   20.3135 H   0  0  0  0  0  0  0  0  0  0  0  0
    8.9527   16.1084   19.2428 H   0  0  0  0  0  0  0  0  0  0  0  0
   10.1120   15.0082   18.5005 H   0  0  0  0  0  0  0  0  0  0  0  0
   12.7059   15.4710   18.9521 H   0  0  0  0  0  0  0  0  0  0  0  0
   13.1168   16.8520   19.9667 H   0  0  0  0  0  0  0  0  0  0  0  0
    9.5372   15.3199   21.4858 H   0  0  0  0  0  0  0  0  0  0  0  0
    9.1164   13.9425   20.4653 H   0  0  0  0  0  0  0  0  0  0  0  0
   13.3000   14.6907   21.1944 H   0  0  0  0  0  0  0  0  0  0  0  0
   12.1298   15.7840   21.9370 H   0  0  0  0  0  0  0  0  0  0  0  0
    3.1303   12.4089   29.5031 H   0  0  0  0  0  0  0  0  0  0  0  0
    3.4954   13.8861   28.5754 H   0  0  0  0  0  0  0  0  0  0  0  0
   11.4952   13.3969   20.1261 H   0  0  0  0  0  0  0  0  0  0  0  0
    6.2007   10.0779   22.6987 H   0  0  0  0  0  0  0  0  0  0  0  0
    7.1186   11.5171   22.2156 H   0  0  0  0  0  0  0  0  0  0  0  0
    5.9826   11.6047   23.5756 H   0  0  0  0  0  0  0  0  0  0  0  0
    8.1462    9.1002   25.5562 H   0  0  0  0  0  0  0  0  0  0  0  0
    6.5566    9.0323   24.8227 H   0  0  0  0  0  0  0  0  0  0  0  0
   11.8346   12.3280   24.5259 H   0  0  0  0  0  0  0  0  0  0  0  0
   10.5932   13.2447   25.4229 H   0  0  0  0  0  0  0  0  0  0  0  0
    8.8167    9.0502   22.8277 H   0  0  0  0  0  0  0  0  0  0  0  0
   11.3487   12.3050   22.0880 H   0  0  0  0  0  0  0  0  0  0  0  0
  1  2  1  0  0  0  0
  1  4  2  0  0  0  0
  2  5  2  0  0  0  0
  3  4  1  0  0  0  0
  3  6  2  0  0  0  0
  4 19  1  0  0  0  0
  5  6  1  0  0  0  0
  5 27  1  0  0  0  0
  6 28  1  0  0  0  0
  7 17  1  0  0  0  0
  7 22  1  0  0  0  0
  7 24  2  0  0  0  0
  8 21  1  0  0  0  0
  8 22  1  0  0  0  0
  8 25  2  0  0  0  0
  9 20  1  0  0  0  0
  9 23  1  0  0  0  0
  9 26  2  0  0  0  0
 10 11  1  0  0  0  0
 10 12  1  0  0  0  0
 11 13  1  0  0  0  0
 12 14  1  0  0  0  0
 13 16  1  0  0  0  0
 14 16  1  0  0  0  0
 15 27  1  0  0  0  0
 15 28  1  0  0  0  0
 16 23  1  0  0  0  0
 17 18  1  0  0  0  0
 17 19  1  0  0  0  0
 17 21  1  0  0  0  0
 20 22  1  0  0  0  0
  1 29  1  0  0  0  0
  2 30  1  0  0  0  0
  3 31  1  0  0  0  0
 10 32  1  0  0  0  0
 10 33  1  0  0  0  0
 11 34  1  0  0  0  0
 11 35  1  0  0  0  0
 12 36  1  0  0  0  0
 12 37  1  0  0  0  0
 13 38  1  0  0  0  0
 13 39  1  0  0  0  0
 14 40  1  0  0  0  0
 14 41  1  0  0  0  0
 15 42  1  0  0  0  0
 15 43  1  0  0  0  0
 16 44  1  0  0  0  0
 18 45  1  0  0  0  0
 18 46  1  0  0  0  0
 18 47  1  0  0  0  0
 19 48  1  0  0  0  0
 19 49  1  0  0  0  0
 20 50  1  0  0  0  0
 20 51  1  0  0  0  0
 21 52  1  0  0  0  0
 23 53  1  0  0  0  0
M  END
> <Catalog ID>
Z74551769

> <PlateID>
1041831-R-28

> <Well>
C09

> <MW (desalted)>
387.430

> <ClogP>
2.724

> <HBD>
2

> <TPSA>
96.970

> <RotBonds>
5

> <ROCS_ShapeQuery>
A71EV2A-x0451_0A_A71EV2A-x0310_0A_A71EV2A-x0416_0A_peptide

> <ROCS_TanimotoCombo>
0.523 

> <ROCS_ShapeTanimoto>
0.363 

> <ROCS_ColorTanimoto>
0.160 

> <ROCS_RefTversky>
0.327 

> <ROCS_RefColorTversky>
0.192 

> <ROCS_RefTverskyCombo>
0.519 

> <ROCS_FitTversky>
1.437 

> <ROCS_FitColorTversky>
0.489 

> <ROCS_FitTverskyCombo>
1.926 

> <ROCS_ColorScore>
-5.903

> <ROCS_Overlap>
2275.708

> <ROCS_Rank>
292                 

$$$$
untitled-dbase-169_843
  -OEChem-11132311063D

 48 51  0     1  0  0  0  0  0999 V2000
    9.5679   10.2792   23.0362 C   0  0  0  0  0  0  0  0  0  0  0  0
    8.6347   12.3319   24.6741 C   0  0  0  0  0  0  0  0  0  0  0  0
   10.2516   11.5021   23.0709 C   0  0  0  0  0  0  0  0  0  0  0  0
    9.7742   12.5442   23.8846 C   0  0  0  0  0  0  0  0  0  0  0  0
    8.4340   10.0820   23.8234 C   0  0  0  0  0  0  0  0  0  0  0  0
    7.9693   11.1065   24.6438 C   0  0  0  0  0  0  0  0  0  0  0  0
   12.0971   15.2379   22.5532 C   0  0  0  0  0  0  0  0  0  0  0  0
   11.4601   11.7134   22.1986 C   0  0  0  0  0  0  0  0  0  0  0  0
   10.4641   13.8859   23.9370 C   0  0  0  0  0  0  0  0  0  0  0  0
   13.3133   15.7401   17.9018 C   0  0  0  0  0  0  0  0  0  0  0  0
   14.5958   15.5094   18.6962 C   0  0  0  0  0  0  0  0  0  0  0  0
   12.0813   15.3657   18.7221 C   0  0  0  0  0  0  0  0  0  0  0  0
   14.6561   16.4265   19.9161 C   0  0  0  0  0  0  0  0  0  0  0  0
   12.3705   12.7920   22.7722 C   0  0  0  0  0  0  0  0  0  0  0  0
   12.7376   15.2118   21.2324 C   0  0  0  0  0  0  0  0  0  0  0  0
   12.0947   15.9767   20.0917 C   0  0  1  0  0  0  0  0  0  0  0  0
   13.3824   16.4677   20.7039 C   0  0  2  0  0  0  0  0  0  0  0  0
    8.3293    7.8876   22.9126 C   0  0  0  0  0  0  0  0  0  0  0  0
    6.4545   12.0252   26.2304 C   0  0  0  0  0  0  0  0  0  0  0  0
   11.6158   14.0172   23.0327 N   0  0  0  0  0  0  0  0  0  0  0  0
   12.0190   16.3049   23.1670 O   0  0  0  0  0  0  0  0  0  0  0  0
    7.7883    8.8833   23.7787 O   0  0  0  0  0  0  0  0  0  0  0  0
    6.8639   10.9258   25.4192 O   0  0  0  0  0  0  0  0  0  0  0  0
    9.9227    9.4766   22.3936 H   0  0  0  0  0  0  0  0  0  0  0  0
    8.2633   13.1295   25.3139 H   0  0  0  0  0  0  0  0  0  0  0  0
   12.0300   10.7806   22.1153 H   0  0  0  0  0  0  0  0  0  0  0  0
   11.1269   11.9945   21.1923 H   0  0  0  0  0  0  0  0  0  0  0  0
    9.7322   14.6658   23.7049 H   0  0  0  0  0  0  0  0  0  0  0  0
   10.8435   14.0564   24.9516 H   0  0  0  0  0  0  0  0  0  0  0  0
   13.2532   16.7941   17.6031 H   0  0  0  0  0  0  0  0  0  0  0  0
   13.3322   15.1457   16.9814 H   0  0  0  0  0  0  0  0  0  0  0  0
   14.6505   14.4600   19.0099 H   0  0  0  0  0  0  0  0  0  0  0  0
   15.4678   15.6958   18.0590 H   0  0  0  0  0  0  0  0  0  0  0  0
   11.1828   15.6920   18.1852 H   0  0  0  0  0  0  0  0  0  0  0  0
   12.0110   14.2744   18.8070 H   0  0  0  0  0  0  0  0  0  0  0  0
   15.4841   16.1243   20.5672 H   0  0  0  0  0  0  0  0  0  0  0  0
   14.8788   17.4458   19.5768 H   0  0  0  0  0  0  0  0  0  0  0  0
   12.8058   12.4713   23.7270 H   0  0  0  0  0  0  0  0  0  0  0  0
   13.2001   12.9833   22.0840 H   0  0  0  0  0  0  0  0  0  0  0  0
   13.2159   14.2681   21.0018 H   0  0  0  0  0  0  0  0  0  0  0  0
   11.1951   16.5518   20.2935 H   0  0  0  0  0  0  0  0  0  0  0  0
   13.3329   17.3608   21.3234 H   0  0  0  0  0  0  0  0  0  0  0  0
    7.7204    6.9822   22.9720 H   0  0  0  0  0  0  0  0  0  0  0  0
    9.3585    7.6674   23.2071 H   0  0  0  0  0  0  0  0  0  0  0  0
    8.3185    8.2646   21.8872 H   0  0  0  0  0  0  0  0  0  0  0  0
    5.5623   11.7483   26.7973 H   0  0  0  0  0  0  0  0  0  0  0  0
    6.2421   12.8887   25.5951 H   0  0  0  0  0  0  0  0  0  0  0  0
    7.2610   12.2750   26.9238 H   0  0  0  0  0  0  0  0  0  0  0  0
  1  3  1  0  0  0  0
  1  5  2  0  0  0  0
  2  4  1  0  0  0  0
  2  6  2  0  0  0  0
  3  4  2  0  0  0  0
  3  8  1  0  0  0  0
  4  9  1  0  0  0  0
  5  6  1  0  0  0  0
  5 22  1  0  0  0  0
  6 23  1  0  0  0  0
  7 15  1  0  0  0  0
  7 20  1  0  0  0  0
  7 21  2  0  0  0  0
  8 14  1  0  0  0  0
  9 20  1  0  0  0  0
 10 11  1  0  0  0  0
 10 12  1  0  0  0  0
 11 13  1  0  0  0  0
 12 16  1  0  0  0  0
 13 17  1  0  0  0  0
 14 20  1  0  0  0  0
 15 16  1  0  0  0  0
 15 17  1  0  0  0  0
 16 17  1  0  0  0  0
 18 22  1  0  0  0  0
 19 23  1  0  0  0  0
  1 24  1  0  0  0  0
  2 25  1  0  0  0  0
  8 26  1  0  0  0  0
  8 27  1  0  0  0  0
  9 28  1  0  0  0  0
  9 29  1  0  0  0  0
 10 30  1  0  0  0  0
 10 31  1  0  0  0  0
 11 32  1  0  0  0  0
 11 33  1  0  0  0  0
 12 34  1  0  0  0  0
 12 35  1  0  0  0  0
 13 36  1  0  0  0  0
 13 37  1  0  0  0  0
 14 38  1  0  0  0  0
 14 39  1  0  0  0  0
 15 40  1  0  0  0  0
 16 41  1  0  0  0  0
 17 42  1  0  0  0  0
 18 43  1  0  0  0  0
 18 44  1  0  0  0  0
 18 45  1  0  0  0  0
 19 46  1  0  0  0  0
 19 47  1  0  0  0  0
 19 48  1  0  0  0  0
M  END
> <Catalog ID>
Z1311232470

> <PlateID>
1041831-R-03

> <Well>
A10

> <MW (desalted)>
315.407

> <ClogP>
2.085

> <HBD>
0

> <TPSA>
38.770

> <RotBonds>
3

> <ROCS_ShapeQuery>
A71EV2A-x0451_0A_A71EV2A-x0310_0A_A71EV2A-x0416_0A_peptide

> <ROCS_TanimotoCombo>
0.523 

> <ROCS_ShapeTanimoto>
0.360 

> <ROCS_ColorTanimoto>
0.164 

> <ROCS_RefTversky>
0.316 

> <ROCS_RefColorTversky>
0.186 

> <ROCS_RefTverskyCombo>
0.502 

> <ROCS_FitTversky>
1.633 

> <ROCS_FitColorTversky>
0.571 

> <ROCS_FitTverskyCombo>
2.205 

> <ROCS_ColorScore>
-5.698

> <ROCS_Overlap>
2193.133

> <ROCS_Rank>
293                 

$$$$
untitled-dbase-2643_10900
  -OEChem-11132311063D

 54 57  0     1  0  0  0  0  0999 V2000
   12.6495   15.3901   22.0198 C   0  0  0  0  0  0  0  0  0  0  0  0
   10.1432   13.8164   23.3500 C   0  0  0  0  0  0  0  0  0  0  0  0
    5.3083    8.0231   25.2506 C   0  0  0  0  0  0  0  0  0  0  0  0
    5.9065    6.8679   24.4401 C   0  0  0  0  0  0  0  0  0  0  0  0
   13.6892   16.6303   18.7180 C   0  0  0  0  0  0  0  0  0  0  0  0
   13.0527   15.2989   18.3394 C   0  0  0  0  0  0  0  0  0  0  0  0
    6.3898    9.0102   25.7006 C   0  0  0  0  0  0  0  0  0  0  0  0
   13.1132   16.8994   20.0996 C   0  0  0  0  0  0  0  0  0  0  0  0
   13.0415   14.5386   19.6581 C   0  0  0  0  0  0  0  0  0  0  0  0
    6.8246    7.3608   23.3138 C   0  0  0  0  0  0  0  0  0  0  0  0
    8.7815    8.7911   22.9074 C   0  0  0  0  0  0  0  0  0  0  0  0
    9.7501   11.1790   22.9680 C   0  0  0  0  0  0  0  0  0  0  0  0
    8.2668   11.7705   24.6645 C   0  0  0  0  0  0  0  0  0  0  0  0
    9.4793    9.8837   23.7274 C   0  0  1  0  0  0  0  0  0  0  0  0
    8.4678   10.2675   24.8299 C   0  0  2  0  0  0  0  0  0  0  0  0
    7.2328    9.4271   24.5006 C   0  0  1  0  0  0  0  0  0  0  0  0
   12.4644   13.9577   22.4524 C   0  0  0  0  0  0  0  0  0  0  0  0
    8.7586   13.3952   22.9283 C   0  0  0  0  0  0  0  0  0  0  0  0
   12.9158   15.5774   20.6757 N   0  0  0  0  0  0  0  0  0  0  0  0
    7.8372    8.2460   23.8763 N   0  0  1  0  0  0  0  0  0  0  0  0
    8.5590   11.9886   23.2439 N   0  0  1  0  0  0  0  0  0  0  0  0
   11.0616   13.6342   22.3260 N   0  0  0  0  0  0  0  0  0  0  0  0
   12.5565   16.3062   22.8384 O   0  0  0  0  0  0  0  0  0  0  0  0
   10.4035   14.2645   24.4635 O   0  0  0  0  0  0  0  0  0  0  0  0
    4.5716    8.5514   24.6327 H   0  0  0  0  0  0  0  0  0  0  0  0
    4.7733    7.6308   26.1224 H   0  0  0  0  0  0  0  0  0  0  0  0
    6.4780    6.2174   25.1149 H   0  0  0  0  0  0  0  0  0  0  0  0
    5.0997    6.2577   24.0185 H   0  0  0  0  0  0  0  0  0  0  0  0
   14.7791   16.5259   18.7741 H   0  0  0  0  0  0  0  0  0  0  0  0
   13.4519   17.4233   18.0034 H   0  0  0  0  0  0  0  0  0  0  0  0
   12.0276   15.4578   17.9843 H   0  0  0  0  0  0  0  0  0  0  0  0
   13.6136   14.7760   17.5598 H   0  0  0  0  0  0  0  0  0  0  0  0
    5.9249    9.8879   26.1633 H   0  0  0  0  0  0  0  0  0  0  0  0
    7.0166    8.5368   26.4670 H   0  0  0  0  0  0  0  0  0  0  0  0
   13.7705   17.5060   20.7296 H   0  0  0  0  0  0  0  0  0  0  0  0
   12.1334   17.3859   20.0398 H   0  0  0  0  0  0  0  0  0  0  0  0
   12.2202   13.8200   19.7232 H   0  0  0  0  0  0  0  0  0  0  0  0
   13.9897   14.0170   19.8273 H   0  0  0  0  0  0  0  0  0  0  0  0
    7.3027    6.4943   22.8426 H   0  0  0  0  0  0  0  0  0  0  0  0
    6.2304    7.8685   22.5435 H   0  0  0  0  0  0  0  0  0  0  0  0
    8.2716    9.2069   22.0291 H   0  0  0  0  0  0  0  0  0  0  0  0
    9.4970    8.0360   22.5666 H   0  0  0  0  0  0  0  0  0  0  0  0
   10.6530   11.6548   23.3726 H   0  0  0  0  0  0  0  0  0  0  0  0
    9.8980   11.0152   21.8958 H   0  0  0  0  0  0  0  0  0  0  0  0
    7.2540   12.0889   24.9313 H   0  0  0  0  0  0  0  0  0  0  0  0
    8.9804   12.3077   25.3027 H   0  0  0  0  0  0  0  0  0  0  0  0
   10.4012    9.4926   24.1752 H   0  0  0  0  0  0  0  0  0  0  0  0
    8.8680   10.0279   25.8225 H   0  0  0  0  0  0  0  0  0  0  0  0
    6.5913    9.9567   23.7801 H   0  0  0  0  0  0  0  0  0  0  0  0
   12.7877   13.8505   23.4908 H   0  0  0  0  0  0  0  0  0  0  0  0
   13.0645   13.3073   21.8112 H   0  0  0  0  0  0  0  0  0  0  0  0
    8.0133   13.9931   23.4611 H   0  0  0  0  0  0  0  0  0  0  0  0
    8.6382   13.5422   21.8511 H   0  0  0  0  0  0  0  0  0  0  0  0
   10.7314   13.2545   21.4435 H   0  0  0  0  0  0  0  0  0  0  0  0
  1 17  1  0  0  0  0
  1 19  1  0  0  0  0
  1 23  2  0  0  0  0
  2 18  1  0  0  0  0
  2 22  1  0  0  0  0
  2 24  2  0  0  0  0
  3  4  1  0  0  0  0
  3  7  1  0  0  0  0
  4 10  1  0  0  0  0
  5  6  1  0  0  0  0
  5  8  1  0  0  0  0
  6  9  1  0  0  0  0
  7 16  1  0  0  0  0
  8 19  1  0  0  0  0
  9 19  1  0  0  0  0
 10 20  1  0  0  0  0
 11 14  1  0  0  0  0
 11 20  1  0  0  0  0
 12 14  1  0  0  0  0
 12 21  1  0  0  0  0
 13 15  1  0  0  0  0
 13 21  1  0  0  0  0
 14 15  1  0  0  0  0
 15 16  1  0  0  0  0
 16 20  1  0  0  0  0
 17 22  1  0  0  0  0
 18 21  1  0  0  0  0
  3 25  1  0  0  0  0
  3 26  1  0  0  0  0
  4 27  1  0  0  0  0
  4 28  1  0  0  0  0
  5 29  1  0  0  0  0
  5 30  1  0  0  0  0
  6 31  1  0  0  0  0
  6 32  1  0  0  0  0
  7 33  1  0  0  0  0
  7 34  1  0  0  0  0
  8 35  1  0  0  0  0
  8 36  1  0  0  0  0
  9 37  1  0  0  0  0
  9 38  1  0  0  0  0
 10 39  1  0  0  0  0
 10 40  1  0  0  0  0
 11 41  1  0  0  0  0
 11 42  1  0  0  0  0
 12 43  1  0  0  0  0
 12 44  1  0  0  0  0
 13 45  1  0  0  0  0
 13 46  1  0  0  0  0
 14 47  1  0  0  0  0
 15 48  1  0  0  0  0
 16 49  1  0  0  0  0
 17 50  1  0  0  0  0
 17 51  1  0  0  0  0
 18 52  1  0  0  0  0
 18 53  1  0  0  0  0
 22 54  1  0  0  0  0
M  END
> <Catalog ID>
Z1256668242

> <PlateID>
1041831-R-34

> <Well>
A04

> <MW (desalted)>
334.456

> <ClogP>
0.867

> <HBD>
1

> <TPSA>
55.890

> <RotBonds>
4

> <ROCS_ShapeQuery>
A71EV2A-x0451_0A_A71EV2A-x0310_0A_A71EV2A-x0416_0A_peptide

> <ROCS_TanimotoCombo>
0.523 

> <ROCS_ShapeTanimoto>
0.316 

> <ROCS_ColorTanimoto>
0.207 

> <ROCS_RefTversky>
0.288 

> <ROCS_RefColorTversky>
0.229 

> <ROCS_RefTverskyCombo>
0.517 

> <ROCS_FitTversky>
1.447 

> <ROCS_FitColorTversky>
0.685 

> <ROCS_FitTverskyCombo>
2.131 

> <ROCS_ColorScore>
-7.003

> <ROCS_Overlap>
1999.890

> <ROCS_Rank>
294                 

$$$$
untitled-dbase-2676_5248
  -OEChem-11132311063D

 45 48  0     1  0  0  0  0  0999 V2000
    6.9304   12.9070   25.4081 C   0  0  0  0  0  0  0  0  0  0  0  0
    6.6148   11.7477   26.1140 C   0  0  0  0  0  0  0  0  0  0  0  0
   13.0996   17.0190   16.0686 C   0  0  0  0  0  0  0  0  0  0  0  0
   12.6560   15.7000   15.9672 C   0  0  0  0  0  0  0  0  0  0  0  0
    7.8587   12.8778   24.3610 C   0  0  0  0  0  0  0  0  0  0  0  0
    7.2145   10.5254   25.7976 C   0  0  0  0  0  0  0  0  0  0  0  0
   13.4655   17.5413   17.3094 C   0  0  0  0  0  0  0  0  0  0  0  0
   12.5871   14.8952   17.1047 C   0  0  0  0  0  0  0  0  0  0  0  0
    9.6611    9.9186   23.1971 C   0  0  0  0  0  0  0  0  0  0  0  0
    8.4762   11.6569   24.0240 C   0  0  0  0  0  0  0  0  0  0  0  0
    9.4364   11.2677   23.0484 C   0  0  0  0  0  0  0  0  0  0  0  0
    8.1406   10.5112   24.7485 C   0  0  0  0  0  0  0  0  0  0  0  0
   13.3839   16.7417   18.4497 C   0  0  0  0  0  0  0  0  0  0  0  0
   12.9657   15.4123   18.3438 C   0  0  0  0  0  0  0  0  0  0  0  0
   13.1711   14.2482   21.6955 C   0  0  0  0  0  0  0  0  0  0  0  0
   10.6616   13.8903   23.7525 C   0  0  0  0  0  0  0  0  0  0  0  0
   13.2905   16.5428   20.7597 C   0  0  0  0  0  0  0  0  0  0  0  0
   13.6198   15.0786   20.5396 C   0  0  2  0  0  0  0  0  0  0  0  0
   10.0977   12.1647   22.0298 C   0  0  0  0  0  0  0  0  0  0  0  0
   11.2161   13.0275   22.6285 C   0  0  1  0  0  0  0  0  0  0  0  0
    8.8749    9.4712   24.2248 N   0  0  0  0  0  0  0  0  0  0  0  0
   11.8532   13.8403   21.6173 N   0  0  0  0  0  0  0  0  0  0  0  0
   13.9603   13.9909   22.5970 O   0  0  0  0  0  0  0  0  0  0  0  0
   10.1887   15.0067   23.5659 O   0  0  0  0  0  0  0  0  0  0  0  0
   13.7368   17.3175   19.6428 O   0  0  0  0  0  0  0  0  0  0  0  0
   12.8958   14.5672   19.4213 O   0  0  0  0  0  0  0  0  0  0  0  0
   10.7220   13.3286   24.9837 O   0  0  0  0  0  0  0  0  0  0  0  0
    6.4505   13.8455   25.6724 H   0  0  0  0  0  0  0  0  0  0  0  0
    5.8910   11.7933   26.9237 H   0  0  0  0  0  0  0  0  0  0  0  0
   13.1560   17.6416   15.1803 H   0  0  0  0  0  0  0  0  0  0  0  0
   12.3679   15.2978   15.0003 H   0  0  0  0  0  0  0  0  0  0  0  0
    8.0932   13.7899   23.8198 H   0  0  0  0  0  0  0  0  0  0  0  0
    6.9690    9.6237   26.3483 H   0  0  0  0  0  0  0  0  0  0  0  0
   13.8014   18.5721   17.3804 H   0  0  0  0  0  0  0  0  0  0  0  0
   12.2488   13.8665   17.0154 H   0  0  0  0  0  0  0  0  0  0  0  0
   10.3082    9.2359   22.6637 H   0  0  0  0  0  0  0  0  0  0  0  0
   12.2131   16.7091   20.8912 H   0  0  0  0  0  0  0  0  0  0  0  0
   13.7943   16.9241   21.6545 H   0  0  0  0  0  0  0  0  0  0  0  0
   14.6919   14.9141   20.3777 H   0  0  0  0  0  0  0  0  0  0  0  0
    9.3222   12.7999   21.5813 H   0  0  0  0  0  0  0  0  0  0  0  0
   10.4897   11.5590   21.2014 H   0  0  0  0  0  0  0  0  0  0  0  0
   12.0091   12.4082   23.0635 H   0  0  0  0  0  0  0  0  0  0  0  0
    8.8383    8.5157   24.5523 H   0  0  0  0  0  0  0  0  0  0  0  0
   11.3060   14.1253   20.8106 H   0  0  0  0  0  0  0  0  0  0  0  0
   11.1207   12.4333   25.0089 H   0  0  0  0  0  0  0  0  0  0  0  0
  1  2  2  0  0  0  0
  1  5  1  0  0  0  0
  2  6  1  0  0  0  0
  3  4  2  0  0  0  0
  3  7  1  0  0  0  0
  4  8  1  0  0  0  0
  5 10  2  0  0  0  0
  6 12  2  0  0  0  0
  7 13  2  0  0  0  0
  8 14  2  0  0  0  0
  9 11  2  0  0  0  0
  9 21  1  0  0  0  0
 10 11  1  0  0  0  0
 10 12  1  0  0  0  0
 11 19  1  0  0  0  0
 12 21  1  0  0  0  0
 13 14  1  0  0  0  0
 13 25  1  0  0  0  0
 14 26  1  0  0  0  0
 15 18  1  0  0  0  0
 15 22  1  0  0  0  0
 15 23  2  0  0  0  0
 16 20  1  0  0  0  0
 16 24  2  0  0  0  0
 16 27  1  0  0  0  0
 17 18  1  0  0  0  0
 17 25  1  0  0  0  0
 18 26  1  0  0  0  0
 19 20  1  0  0  0  0
 20 22  1  0  0  0  0
  1 28  1  0  0  0  0
  2 29  1  0  0  0  0
  3 30  1  0  0  0  0
  4 31  1  0  0  0  0
  5 32  1  0  0  0  0
  6 33  1  0  0  0  0
  7 34  1  0  0  0  0
  8 35  1  0  0  0  0
  9 36  1  0  0  0  0
 17 37  1  0  0  0  0
 17 38  1  0  0  0  0
 18 39  1  0  0  0  0
 19 40  1  0  0  0  0
 19 41  1  0  0  0  0
 20 42  1  0  0  0  0
 21 43  1  0  0  0  0
 22 44  1  0  0  0  0
 27 45  1  0  0  0  0
M  END
> <Catalog ID>
Z85882053

> <PlateID>
1041831-R-34

> <Well>
D07

> <MW (desalted)>
366.367

> <ClogP>
2.688

> <HBD>
3

> <TPSA>
100.650

> <RotBonds>
5

> <ROCS_ShapeQuery>
A71EV2A-x0451_0A_A71EV2A-x0310_0A_A71EV2A-x0416_0A_peptide

> <ROCS_TanimotoCombo>
0.523 

> <ROCS_ShapeTanimoto>
0.341 

> <ROCS_ColorTanimoto>
0.182 

> <ROCS_RefTversky>
0.311 

> <ROCS_RefColorTversky>
0.219 

> <ROCS_RefTverskyCombo>
0.530 

> <ROCS_FitTversky>
1.392 

> <ROCS_FitColorTversky>
0.517 

> <ROCS_FitTverskyCombo>
1.910 

> <ROCS_ColorScore>
-6.737

> <ROCS_Overlap>
2164.736

> <ROCS_Rank>
295                 

$$$$
untitled-dbase-2434_89
  -OEChem-11132311063D

 52 56  0     1  0  0  0  0  0999 V2000
    3.8209   13.4854   28.7347 C   0  0  0  0  0  0  0  0  0  0  0  0
    4.7663   12.8846   29.5659 C   0  0  0  0  0  0  0  0  0  0  0  0
    3.7599   13.1407   27.3845 C   0  0  0  0  0  0  0  0  0  0  0  0
    5.6508   11.9392   29.0468 C   0  0  0  0  0  0  0  0  0  0  0  0
    4.6444   12.1953   26.8654 C   0  0  0  0  0  0  0  0  0  0  0  0
   11.3505   15.9917   24.1220 C   0  0  0  0  0  0  0  0  0  0  0  0
    5.5898   11.5945   27.6966 C   0  0  0  0  0  0  0  0  0  0  0  0
   11.4002   14.2575   22.9436 C   0  0  0  0  0  0  0  0  0  0  0  0
   13.0116   13.7146   20.6505 C   0  0  0  0  0  0  0  0  0  0  0  0
   11.7067   12.9326   20.8438 C   0  0  0  0  0  0  0  0  0  0  0  0
    9.2352    9.5573   23.3107 C   0  0  0  0  0  0  0  0  0  0  0  0
   10.3233   10.4501   23.8970 C   0  0  0  0  0  0  0  0  0  0  0  0
   12.8564   15.1634   21.1177 C   0  0  0  0  0  0  0  0  0  0  0  0
    7.3605    9.6334   25.0586 C   0  0  0  0  0  0  0  0  0  0  0  0
    7.8826   11.8351   25.5557 C   0  0  0  0  0  0  0  0  0  0  0  0
   11.2967   12.9078   22.3241 C   0  0  2  0  0  0  0  0  0  0  0  0
    7.9254   10.2038   23.7577 C   0  0  1  0  0  0  0  0  0  0  0  0
    8.2528   11.6756   24.0795 C   0  0  2  0  0  0  0  0  0  0  0  0
    9.7459   11.8615   23.7926 C   0  0  2  0  0  0  0  0  0  0  0  0
    6.5417   10.5771   27.1371 C   0  0  0  0  0  0  0  0  0  0  0  0
   10.8836   14.7070   24.0683 N   0  0  0  0  0  0  0  0  0  0  0  0
   12.1318   16.3717   23.1077 N   0  0  0  0  0  0  0  0  0  0  0  0
   12.1576   15.2468   22.3800 N   0  0  0  0  0  0  0  0  0  0  0  0
    6.8395   10.8235   25.7338 N   0  0  2  0  0  0  0  0  0  0  0  0
    9.9523   12.4126   22.4733 N   0  0  0  0  0  0  0  0  0  0  0  0
    3.1313   14.2206   29.1394 H   0  0  0  0  0  0  0  0  0  0  0  0
    4.8132   13.1521   30.6175 H   0  0  0  0  0  0  0  0  0  0  0  0
    3.0232   13.6074   26.7373 H   0  0  0  0  0  0  0  0  0  0  0  0
    6.3842   11.4764   29.7019 H   0  0  0  0  0  0  0  0  0  0  0  0
    4.5896   11.9330   25.8121 H   0  0  0  0  0  0  0  0  0  0  0  0
   11.1131   16.6715   24.9266 H   0  0  0  0  0  0  0  0  0  0  0  0
   13.8116   13.2271   21.2221 H   0  0  0  0  0  0  0  0  0  0  0  0
   13.3130   13.6955   19.5974 H   0  0  0  0  0  0  0  0  0  0  0  0
   10.9231   13.4020   20.2331 H   0  0  0  0  0  0  0  0  0  0  0  0
   11.8303   11.9087   20.4704 H   0  0  0  0  0  0  0  0  0  0  0  0
    9.3082    9.4929   22.2189 H   0  0  0  0  0  0  0  0  0  0  0  0
    9.3383    8.5378   23.7067 H   0  0  0  0  0  0  0  0  0  0  0  0
   10.5687   10.1739   24.9354 H   0  0  0  0  0  0  0  0  0  0  0  0
   11.2511   10.3535   23.3056 H   0  0  0  0  0  0  0  0  0  0  0  0
   13.8362   15.6373   21.2354 H   0  0  0  0  0  0  0  0  0  0  0  0
   12.2675   15.7397   20.3954 H   0  0  0  0  0  0  0  0  0  0  0  0
    6.5565    8.9260   24.8245 H   0  0  0  0  0  0  0  0  0  0  0  0
    8.1177    9.1169   25.6538 H   0  0  0  0  0  0  0  0  0  0  0  0
    8.7347   11.6734   26.2205 H   0  0  0  0  0  0  0  0  0  0  0  0
    7.4916   12.8447   25.7256 H   0  0  0  0  0  0  0  0  0  0  0  0
   11.9783   12.2453   22.8701 H   0  0  0  0  0  0  0  0  0  0  0  0
    7.1795   10.1380   22.9554 H   0  0  0  0  0  0  0  0  0  0  0  0
    7.6373   12.3455   23.4601 H   0  0  0  0  0  0  0  0  0  0  0  0
   10.2143   12.5005   24.5231 H   0  0  0  0  0  0  0  0  0  0  0  0
    7.4876   10.5885   27.6897 H   0  0  0  0  0  0  0  0  0  0  0  0
    6.1292    9.5660   27.2194 H   0  0  0  0  0  0  0  0  0  0  0  0
    9.2956   13.1786   22.3203 H   0  0  0  0  0  0  0  0  0  0  0  0
  1  2  2  0  0  0  0
  1  3  1  0  0  0  0
  2  4  1  0  0  0  0
  3  5  2  0  0  0  0
  4  7  2  0  0  0  0
  5  7  1  0  0  0  0
  6 21  1  0  0  0  0
  6 22  2  0  0  0  0
  7 20  1  0  0  0  0
  8 16  1  0  0  0  0
  8 21  2  0  0  0  0
  8 23  1  0  0  0  0
  9 10  1  0  0  0  0
  9 13  1  0  0  0  0
 10 16  1  0  0  0  0
 11 12  1  0  0  0  0
 11 17  1  0  0  0  0
 12 19  1  0  0  0  0
 13 23  1  0  0  0  0
 14 17  1  0  0  0  0
 14 24  1  0  0  0  0
 15 18  1  0  0  0  0
 15 24  1  0  0  0  0
 16 25  1  0  0  0  0
 17 18  1  0  0  0  0
 18 19  1  0  0  0  0
 19 25  1  0  0  0  0
 20 24  1  0  0  0  0
 22 23  1  0  0  0  0
  1 26  1  0  0  0  0
  2 27  1  0  0  0  0
  3 28  1  0  0  0  0
  4 29  1  0  0  0  0
  5 30  1  0  0  0  0
  6 31  1  0  0  0  0
  9 32  1  0  0  0  0
  9 33  1  0  0  0  0
 10 34  1  0  0  0  0
 10 35  1  0  0  0  0
 11 36  1  0  0  0  0
 11 37  1  0  0  0  0
 12 38  1  0  0  0  0
 12 39  1  0  0  0  0
 13 40  1  0  0  0  0
 13 41  1  0  0  0  0
 14 42  1  0  0  0  0
 14 43  1  0  0  0  0
 15 44  1  0  0  0  0
 15 45  1  0  0  0  0
 16 46  1  0  0  0  0
 17 47  1  0  0  0  0
 18 48  1  0  0  0  0
 19 49  1  0  0  0  0
 20 50  1  0  0  0  0
 20 51  1  0  0  0  0
 25 52  1  0  0  0  0
M  END
> <Catalog ID>
Z1630804387

> <PlateID>
1041831-R-31

> <Well>
D05

> <MW (desalted)>
337.462

> <ClogP>
1.810

> <HBD>
1

> <TPSA>
45.980

> <RotBonds>
4

> <ROCS_ShapeQuery>
A71EV2A-x0451_0A_A71EV2A-x0310_0A_A71EV2A-x0416_0A_peptide

> <ROCS_TanimotoCombo>
0.523 

> <ROCS_ShapeTanimoto>
0.345 

> <ROCS_ColorTanimoto>
0.178 

> <ROCS_RefTversky>
0.310 

> <ROCS_RefColorTversky>
0.207 

> <ROCS_RefTverskyCombo>
0.517 

> <ROCS_FitTversky>
1.479 

> <ROCS_FitColorTversky>
0.565 

> <ROCS_FitTverskyCombo>
2.044 

> <ROCS_ColorScore>
-6.327

> <ROCS_Overlap>
2155.836

> <ROCS_Rank>
296                 

$$$$
untitled-dbase-1116_1307
  -OEChem-11132311063D

 43 46  0     0  0  0  0  0  0999 V2000
   13.6021   13.0348   27.7057 C   0  0  0  0  0  0  0  0  0  0  0  0
   14.3912   11.9687   27.2882 C   0  0  0  0  0  0  0  0  0  0  0  0
   12.6186   13.5629   26.8643 C   0  0  0  0  0  0  0  0  0  0  0  0
   14.2200   11.4029   26.0223 C   0  0  0  0  0  0  0  0  0  0  0  0
   12.4248   13.0098   25.5800 C   0  0  0  0  0  0  0  0  0  0  0  0
   13.2304   11.9385   25.1823 C   0  0  0  0  0  0  0  0  0  0  0  0
    8.9756   11.2267   23.0963 C   0  0  0  0  0  0  0  0  0  0  0  0
    9.0336    9.8554   23.2848 C   0  0  0  0  0  0  0  0  0  0  0  0
   11.5941   12.6879   23.5617 C   0  0  0  0  0  0  0  0  0  0  0  0
    7.7019   10.5583   24.7500 C   0  0  0  0  0  0  0  0  0  0  0  0
    7.5777   12.8545   24.4661 C   0  0  0  0  0  0  0  0  0  0  0  0
    6.7360   12.6947   25.5051 C   0  0  0  0  0  0  0  0  0  0  0  0
    9.5752   12.1304   22.2067 C   0  0  0  0  0  0  0  0  0  0  0  0
   10.7690   12.8291   22.3423 C   0  0  0  0  0  0  0  0  0  0  0  0
   11.2092   15.7807   22.6986 C   0  0  0  0  0  0  0  0  0  0  0  0
    9.8199    8.8658   22.5280 C   0  0  0  0  0  0  0  0  0  0  0  0
    5.9746   13.7600   26.2098 C   0  0  0  0  0  0  0  0  0  0  0  0
   11.3179   13.7396   21.2638 C   0  0  0  0  0  0  0  0  0  0  0  0
   10.7902   15.1679   21.3868 C   0  0  0  0  0  0  0  0  0  0  0  0
   11.4928   13.4277   24.6411 N   0  0  0  0  0  0  0  0  0  0  0  0
    8.2278    9.4415   24.3293 N   0  0  0  0  0  0  0  0  0  0  0  0
    8.1092   11.6552   24.0549 N   0  0  0  0  0  0  0  0  0  0  0  0
   12.2771   16.3516   22.8775 O   0  0  0  0  0  0  0  0  0  0  0  0
   10.2764   15.6179   23.6699 O   0  0  0  0  0  0  0  0  0  0  0  0
   12.7869   11.4620   23.5857 S   0  0  0  0  0  0  0  0  0  0  0  0
    6.5849   10.9902   26.0070 S   0  0  0  0  0  0  0  0  0  0  0  0
   13.7496   13.4620   28.6938 H   0  0  0  0  0  0  0  0  0  0  0  0
   15.1517   11.5692   27.9540 H   0  0  0  0  0  0  0  0  0  0  0  0
   12.0078   14.3959   27.2008 H   0  0  0  0  0  0  0  0  0  0  0  0
   14.8398   10.5707   25.7029 H   0  0  0  0  0  0  0  0  0  0  0  0
    7.8371   13.7824   23.9783 H   0  0  0  0  0  0  0  0  0  0  0  0
    9.0335   12.3385   21.2522 H   0  0  0  0  0  0  0  0  0  0  0  0
   10.8176    8.7201   22.9762 H   0  0  0  0  0  0  0  0  0  0  0  0
    9.3243    7.8795   22.4916 H   0  0  0  0  0  0  0  0  0  0  0  0
    9.9686    9.1682   21.4761 H   0  0  0  0  0  0  0  0  0  0  0  0
    5.0012   13.9024   25.7357 H   0  0  0  0  0  0  0  0  0  0  0  0
    6.5265   14.7020   26.1762 H   0  0  0  0  0  0  0  0  0  0  0  0
    5.8227   13.4842   27.2557 H   0  0  0  0  0  0  0  0  0  0  0  0
   12.4148   13.7377   21.2878 H   0  0  0  0  0  0  0  0  0  0  0  0
   11.0575   13.3503   20.2701 H   0  0  0  0  0  0  0  0  0  0  0  0
    9.6979   15.2153   21.3084 H   0  0  0  0  0  0  0  0  0  0  0  0
   11.1848   15.7988   20.5808 H   0  0  0  0  0  0  0  0  0  0  0  0
   10.5161   15.9943   24.5437 H   0  0  0  0  0  0  0  0  0  0  0  0
  1  2  2  0  0  0  0
  1  3  1  0  0  0  0
  2  4  1  0  0  0  0
  3  5  2  0  0  0  0
  4  6  2  0  0  0  0
  5  6  1  0  0  0  0
  5 20  1  0  0  0  0
  6 25  1  0  0  0  0
  7  8  2  0  0  0  0
  7 13  1  4  0  0  0
  7 22  1  0  0  0  0
  8 16  1  0  0  0  0
  8 21  1  0  0  0  0
  9 14  1  0  0  0  0
  9 20  2  0  0  0  0
  9 25  1  0  0  0  0
 10 21  2  0  0  0  0
 10 22  1  0  0  0  0
 10 26  1  0  0  0  0
 11 12  2  0  0  0  0
 11 22  1  0  0  0  0
 12 17  1  0  0  0  0
 12 26  1  0  0  0  0
 13 14  2  0  0  0  0
 14 18  1  0  0  0  0
 15 19  1  0  0  0  0
 15 23  2  0  0  0  0
 15 24  1  0  0  0  0
 18 19  1  0  0  0  0
  1 27  1  0  0  0  0
  2 28  1  0  0  0  0
  3 29  1  0  0  0  0
  4 30  1  0  0  0  0
 11 31  1  0  0  0  0
 13 32  1  0  0  0  0
 16 33  1  0  0  0  0
 16 34  1  0  0  0  0
 16 35  1  0  0  0  0
 17 36  1  0  0  0  0
 17 37  1  0  0  0  0
 17 38  1  0  0  0  0
 18 39  1  0  0  0  0
 18 40  1  0  0  0  0
 19 41  1  0  0  0  0
 19 42  1  0  0  0  0
 24 43  1  0  0  0  0
M  END
> <Catalog ID>
Z196358746

> <PlateID>
1041831-R-14

> <Well>
H07

> <MW (desalted)>
383.487

> <ClogP>
3.906

> <HBD>
1

> <TPSA>
67.490

> <RotBonds>
5

> <ROCS_ShapeQuery>
A71EV2A-x0451_0A_A71EV2A-x0310_0A_A71EV2A-x0416_0A_peptide

> <ROCS_TanimotoCombo>
0.523 

> <ROCS_ShapeTanimoto>
0.367 

> <ROCS_ColorTanimoto>
0.156 

> <ROCS_RefTversky>
0.325 

> <ROCS_RefColorTversky>
0.184 

> <ROCS_RefTverskyCombo>
0.509 

> <ROCS_FitTversky>
1.534 

> <ROCS_FitColorTversky>
0.505 

> <ROCS_FitTverskyCombo>
2.039 

> <ROCS_ColorScore>
-5.631

> <ROCS_Overlap>
2263.633

> <ROCS_Rank>
297                 

$$$$
untitled-dbase-1087_265
  -OEChem-11132311063D

 37 40  0     0  0  0  0  0  0999 V2000
   12.9011   15.6124   21.0258 C   0  0  0  0  0  0  0  0  0  0  0  0
   11.6034   15.4445   20.5703 C   0  0  0  0  0  0  0  0  0  0  0  0
    7.6594   10.5804   24.4806 C   0  0  0  0  0  0  0  0  0  0  0  0
    9.6207   11.3402   23.8899 C   0  0  0  0  0  0  0  0  0  0  0  0
   12.7726   15.6585   18.8377 C   0  0  0  0  0  0  0  0  0  0  0  0
    6.3560   10.6915   25.0362 C   0  0  0  0  0  0  0  0  0  0  0  0
    5.9409   11.8797   25.5182 C   0  0  0  0  0  0  0  0  0  0  0  0
   14.9551   15.9419   19.5572 C   0  0  0  0  0  0  0  0  0  0  0  0
    8.0305   12.9536   24.9587 C   0  0  0  0  0  0  0  0  0  0  0  0
   15.1243   16.0045   18.2254 C   0  0  0  0  0  0  0  0  0  0  0  0
    6.7964   13.0675   25.4871 C   0  0  0  0  0  0  0  0  0  0  0  0
   10.6106   14.5401   22.7089 C   0  0  0  0  0  0  0  0  0  0  0  0
   10.3566   15.2462   21.3910 C   0  0  0  0  0  0  0  0  0  0  0  0
   10.7573   12.2555   23.6729 C   0  0  0  0  0  0  0  0  0  0  0  0
    6.2463   14.3398   26.0466 C   0  0  0  0  0  0  0  0  0  0  0  0
   11.5305   15.4745   19.1898 N   0  0  0  0  0  0  0  0  0  0  0  0
    8.3324    9.5842   23.9454 N   0  0  0  0  0  0  0  0  0  0  0  0
    9.5716   10.0656   23.5725 N   0  0  0  0  0  0  0  0  0  0  0  0
   13.6350   15.7482   19.8875 N   0  0  0  0  0  0  0  0  0  0  0  0
    8.4431   11.7221   24.4663 N   0  0  0  0  0  0  0  0  0  0  0  0
   10.5470   13.1629   22.5654 N   0  0  0  0  0  0  0  0  0  0  0  0
   10.8456   15.1304   23.7602 O   0  0  0  0  0  0  0  0  0  0  0  0
    4.9903   14.1641   26.5079 F   0  0  0  0  0  0  0  0  0  0  0  0
    7.0017   14.7879   27.0714 F   0  0  0  0  0  0  0  0  0  0  0  0
    6.2081   15.3105   25.1095 F   0  0  0  0  0  0  0  0  0  0  0  0
   13.6090   15.8194   17.3240 S   0  0  0  0  0  0  0  0  0  0  0  0
   13.3347   15.6443   22.0158 H   0  0  0  0  0  0  0  0  0  0  0  0
    5.7112    9.8206   25.0673 H   0  0  0  0  0  0  0  0  0  0  0  0
    4.9478   11.9755   25.9458 H   0  0  0  0  0  0  0  0  0  0  0  0
   15.7174   16.0267   20.3167 H   0  0  0  0  0  0  0  0  0  0  0  0
    8.7245   13.7835   24.8981 H   0  0  0  0  0  0  0  0  0  0  0  0
   16.0695   16.1530   17.7229 H   0  0  0  0  0  0  0  0  0  0  0  0
    9.8922   16.2194   21.5950 H   0  0  0  0  0  0  0  0  0  0  0  0
    9.6239   14.6646   20.8173 H   0  0  0  0  0  0  0  0  0  0  0  0
   10.9590   12.8801   24.5617 H   0  0  0  0  0  0  0  0  0  0  0  0
   11.6971   11.7141   23.4628 H   0  0  0  0  0  0  0  0  0  0  0  0
   10.3453   12.7765   21.6494 H   0  0  0  0  0  0  0  0  0  0  0  0
  1  2  2  0  0  0  0
  1 19  1  0  0  0  0
  2 13  1  0  0  0  0
  2 16  1  0  0  0  0
  3  6  1  0  0  0  0
  3 17  2  0  0  0  0
  3 20  1  0  0  0  0
  4 14  1  0  0  0  0
  4 18  2  0  0  0  0
  4 20  1  0  0  0  0
  5 16  2  0  0  0  0
  5 19  1  0  0  0  0
  5 26  1  0  0  0  0
  6  7  2  0  0  0  0
  7 11  1  0  0  0  0
  8 10  2  0  0  0  0
  8 19  1  0  0  0  0
  9 11  2  0  0  0  0
  9 20  1  0  0  0  0
 10 26  1  0  0  0  0
 11 15  1  0  0  0  0
 12 13  1  0  0  0  0
 12 21  1  0  0  0  0
 12 22  2  0  0  0  0
 14 21  1  0  0  0  0
 15 23  1  0  0  0  0
 15 24  1  0  0  0  0
 15 25  1  0  0  0  0
 17 18  1  0  0  0  0
  1 27  1  0  0  0  0
  6 28  1  0  0  0  0
  7 29  1  0  0  0  0
  8 30  1  0  0  0  0
  9 31  1  0  0  0  0
 10 32  1  0  0  0  0
 13 33  1  0  0  0  0
 13 34  1  0  0  0  0
 14 35  1  0  0  0  0
 14 36  1  0  0  0  0
 21 37  1  0  0  0  0
M  END
> <Catalog ID>
Z167450508

> <PlateID>
1041831-R-14

> <Well>
E08

> <MW (desalted)>
380.348

> <ClogP>
0.848

> <HBD>
1

> <TPSA>
76.590

> <RotBonds>
5

> <ROCS_ShapeQuery>
A71EV2A-x0451_0A_A71EV2A-x0310_0A_A71EV2A-x0416_0A_peptide

> <ROCS_TanimotoCombo>
0.523 

> <ROCS_ShapeTanimoto>
0.357 

> <ROCS_ColorTanimoto>
0.166 

> <ROCS_RefTversky>
0.320 

> <ROCS_RefColorTversky>
0.196 

> <ROCS_RefTverskyCombo>
0.516 

> <ROCS_FitTversky>
1.465 

> <ROCS_FitColorTversky>
0.525 

> <ROCS_FitTverskyCombo>
1.989 

> <ROCS_ColorScore>
-5.999

> <ROCS_Overlap>
2228.283

> <ROCS_Rank>
298                 

$$$$
untitled-dbase-2055_16
  -OEChem-11132311063D

 50 53  0     1  0  0  0  0  0999 V2000
   10.5832   13.4951   23.4423 C   0  0  0  0  0  0  0  0  0  0  0  0
   11.4284   14.4134   20.1927 C   0  0  0  0  0  0  0  0  0  0  0  0
   10.5456   13.3332   20.8410 C   0  0  0  0  0  0  0  0  0  0  0  0
   11.8114   14.8804   21.6074 C   0  0  0  0  0  0  0  0  0  0  0  0
    6.7870   10.2251   25.0151 C   0  0  0  0  0  0  0  0  0  0  0  0
    7.9229    9.9463   22.7992 C   0  0  0  0  0  0  0  0  0  0  0  0
    9.1711    9.4674   24.9723 C   0  0  0  0  0  0  0  0  0  0  0  0
    7.3028   12.2536   23.6439 C   0  0  0  0  0  0  0  0  0  0  0  0
    8.5799   11.7789   25.8218 C   0  0  0  0  0  0  0  0  0  0  0  0
   10.1990   11.0301   23.2326 C   0  0  0  0  0  0  0  0  0  0  0  0
    6.9098   10.7759   23.5923 C   0  0  2  0  0  0  0  0  0  0  0  0
    8.1420   10.3160   25.7213 C   0  0  1  0  0  0  0  0  0  0  0  0
    9.2893    9.8220   23.4852 C   0  0  0  0  0  0  0  0  0  0  0  0
    8.5543   12.5343   24.4859 C   0  0  0  0  0  0  0  0  0  0  0  0
   11.3828   13.4764   22.1596 C   0  0  0  0  0  0  0  0  0  0  0  0
   14.2955   13.8784   25.1357 C   0  0  0  0  0  0  0  0  0  0  0  0
   12.5565   12.4850   22.2226 C   0  0  0  0  0  0  0  0  0  0  0  0
   13.1987   12.4850   23.5935 C   0  0  0  0  0  0  0  0  0  0  0  0
    9.7965   12.3572   23.7106 N   0  0  0  0  0  0  0  0  0  0  0  0
   10.6548   14.4851   24.1753 O   0  0  0  0  0  0  0  0  0  0  0  0
   13.6595   13.8010   23.8670 O   0  0  0  0  0  0  0  0  0  0  0  0
   12.2692   14.0111   19.6167 H   0  0  0  0  0  0  0  0  0  0  0  0
   10.9017   15.1487   19.5788 H   0  0  0  0  0  0  0  0  0  0  0  0
    9.4978   13.6382   20.9504 H   0  0  0  0  0  0  0  0  0  0  0  0
   10.5708   12.3557   20.3505 H   0  0  0  0  0  0  0  0  0  0  0  0
   12.8619   15.1562   21.7393 H   0  0  0  0  0  0  0  0  0  0  0  0
   11.1889   15.7052   21.9751 H   0  0  0  0  0  0  0  0  0  0  0  0
    6.0305   10.7889   25.5749 H   0  0  0  0  0  0  0  0  0  0  0  0
    6.4459    9.1827   24.9873 H   0  0  0  0  0  0  0  0  0  0  0  0
    7.5108    8.9355   22.6752 H   0  0  0  0  0  0  0  0  0  0  0  0
    8.0379   10.3517   21.7863 H   0  0  0  0  0  0  0  0  0  0  0  0
   10.1502    9.5359   25.4623 H   0  0  0  0  0  0  0  0  0  0  0  0
    8.8674    8.4147   25.0502 H   0  0  0  0  0  0  0  0  0  0  0  0
    7.4221   12.6592   22.6313 H   0  0  0  0  0  0  0  0  0  0  0  0
    6.4653   12.8104   24.0870 H   0  0  0  0  0  0  0  0  0  0  0  0
    7.8904   12.2885   26.5090 H   0  0  0  0  0  0  0  0  0  0  0  0
    9.5702   11.8573   26.2880 H   0  0  0  0  0  0  0  0  0  0  0  0
   11.1838   10.8231   23.6697 H   0  0  0  0  0  0  0  0  0  0  0  0
   10.3584   11.1180   22.1507 H   0  0  0  0  0  0  0  0  0  0  0  0
    5.9351   10.6958   23.0950 H   0  0  0  0  0  0  0  0  0  0  0  0
    8.0405    9.9154   26.7376 H   0  0  0  0  0  0  0  0  0  0  0  0
    9.8027    8.9763   23.0050 H   0  0  0  0  0  0  0  0  0  0  0  0
    8.4977   13.5968   24.7517 H   0  0  0  0  0  0  0  0  0  0  0  0
   14.6360   14.9017   25.3116 H   0  0  0  0  0  0  0  0  0  0  0  0
   15.1449   13.1911   25.1609 H   0  0  0  0  0  0  0  0  0  0  0  0
   13.5785   13.5971   25.9105 H   0  0  0  0  0  0  0  0  0  0  0  0
   13.2867   12.7539   21.4592 H   0  0  0  0  0  0  0  0  0  0  0  0
   12.1908   11.4889   21.9727 H   0  0  0  0  0  0  0  0  0  0  0  0
   12.4802   12.1994   24.3684 H   0  0  0  0  0  0  0  0  0  0  0  0
   14.0533   11.8019   23.6312 H   0  0  0  0  0  0  0  0  0  0  0  0
  1 15  1  0  0  0  0
  1 19  1  0  0  0  0
  1 20  2  0  0  0  0
  2  3  1  0  0  0  0
  2  4  1  0  0  0  0
  3 15  1  0  0  0  0
  4 15  1  0  0  0  0
  5 11  1  0  0  0  0
  5 12  1  0  0  0  0
  6 11  1  0  0  0  0
  6 13  1  0  0  0  0
  7 12  1  0  0  0  0
  7 13  1  0  0  0  0
  8 11  1  0  0  0  0
  8 14  1  0  0  0  0
  9 12  1  0  0  0  0
  9 14  1  0  0  0  0
 10 13  1  0  0  0  0
 10 19  1  0  0  0  0
 14 19  1  0  0  0  0
 15 17  1  0  0  0  0
 16 21  1  0  0  0  0
 17 18  1  0  0  0  0
 18 21  1  0  0  0  0
  2 22  1  0  0  0  0
  2 23  1  0  0  0  0
  3 24  1  0  0  0  0
  3 25  1  0  0  0  0
  4 26  1  0  0  0  0
  4 27  1  0  0  0  0
  5 28  1  0  0  0  0
  5 29  1  0  0  0  0
  6 30  1  0  0  0  0
  6 31  1  0  0  0  0
  7 32  1  0  0  0  0
  7 33  1  0  0  0  0
  8 34  1  0  0  0  0
  8 35  1  0  0  0  0
  9 36  1  0  0  0  0
  9 37  1  0  0  0  0
 10 38  1  0  0  0  0
 10 39  1  0  0  0  0
 11 40  1  0  0  0  0
 12 41  1  0  0  0  0
 13 42  1  0  0  0  0
 14 43  1  0  0  0  0
 16 44  1  0  0  0  0
 16 45  1  0  0  0  0
 16 46  1  0  0  0  0
 17 47  1  0  0  0  0
 17 48  1  0  0  0  0
 18 49  1  0  0  0  0
 18 50  1  0  0  0  0
M  END
> <Catalog ID>
Z1419784252

> <PlateID>
1041831-R-26

> <Well>
F06

> <MW (desalted)>
291.428

> <ClogP>
2.942

> <HBD>
0

> <TPSA>
29.540

> <RotBonds>
4

> <ROCS_ShapeQuery>
A71EV2A-x0451_0A_A71EV2A-x0310_0A_A71EV2A-x0416_0A_peptide

> <ROCS_TanimotoCombo>
0.523 

> <ROCS_ShapeTanimoto>
0.322 

> <ROCS_ColorTanimoto>
0.201 

> <ROCS_RefTversky>
0.287 

> <ROCS_RefColorTversky>
0.223 

> <ROCS_RefTverskyCombo>
0.510 

> <ROCS_FitTversky>
1.600 

> <ROCS_FitColorTversky>
0.675 

> <ROCS_FitTverskyCombo>
2.275 

> <ROCS_ColorScore>
-6.805

> <ROCS_Overlap>
1992.585

> <ROCS_Rank>
299                 

$$$$
untitled-dbase-993_109
  -OEChem-11132311063D

 50 53  0     0  0  0  0  0  0999 V2000
   13.9806   11.7802   24.3795 C   0  0  0  0  0  0  0  0  0  0  0  0
   14.6029   12.9621   24.7813 C   0  0  0  0  0  0  0  0  0  0  0  0
   12.8945   11.8261   23.5054 C   0  0  0  0  0  0  0  0  0  0  0  0
   14.1390   14.1899   24.3092 C   0  0  0  0  0  0  0  0  0  0  0  0
   12.4306   13.0539   23.0333 C   0  0  0  0  0  0  0  0  0  0  0  0
   13.0528   14.2359   23.4352 C   0  0  0  0  0  0  0  0  0  0  0  0
    6.5767   12.7570   26.3746 C   0  0  0  0  0  0  0  0  0  0  0  0
    7.4866   13.1158   25.4630 C   0  0  0  0  0  0  0  0  0  0  0  0
    6.2345   11.3756   26.5685 C   0  0  0  0  0  0  0  0  0  0  0  0
    9.3659   10.1623   23.1400 C   0  0  0  0  0  0  0  0  0  0  0  0
    6.8303   10.4317   25.8311 C   0  0  0  0  0  0  0  0  0  0  0  0
    9.6592   11.4685   22.9889 C   0  0  0  0  0  0  0  0  0  0  0  0
    8.1575   12.0689   24.6350 C   0  0  0  0  0  0  0  0  0  0  0  0
    8.3661    9.7103   24.1343 C   0  0  0  0  0  0  0  0  0  0  0  0
   13.4380   16.0577   18.3748 C   0  0  0  0  0  0  0  0  0  0  0  0
   14.5056   15.6098   19.3691 C   0  0  0  0  0  0  0  0  0  0  0  0
   12.0479   15.6469   18.8524 C   0  0  0  0  0  0  0  0  0  0  0  0
   14.1995   16.1124   20.7761 C   0  0  0  0  0  0  0  0  0  0  0  0
   11.7762   16.1501   20.2662 C   0  0  0  0  0  0  0  0  0  0  0  0
   11.2644   13.0685   22.0998 C   0  0  0  0  0  0  0  0  0  0  0  0
    9.0390   12.4359   23.7545 N   0  0  0  0  0  0  0  0  0  0  0  0
    7.7837   10.7414   24.8683 N   0  0  0  0  0  0  0  0  0  0  0  0
   12.8401   15.6529   21.1877 N   0  0  0  0  0  0  0  0  0  0  0  0
   10.5684   11.8081   22.0769 N   0  0  0  0  0  0  0  0  0  0  0  0
    8.1287    8.5089   24.2407 O   0  0  0  0  0  0  0  0  0  0  0  0
   11.0561   15.8571   23.0373 O   0  0  0  0  0  0  0  0  0  0  0  0
   13.3503   16.8235   23.4251 O   0  0  0  0  0  0  0  0  0  0  0  0
   12.4909   15.8067   22.8589 S   0  0  0  0  0  0  0  0  0  0  0  0
   14.3419   10.8244   24.7480 H   0  0  0  0  0  0  0  0  0  0  0  0
   15.4479   12.9262   25.4627 H   0  0  0  0  0  0  0  0  0  0  0  0
   12.4170   10.8994   23.1986 H   0  0  0  0  0  0  0  0  0  0  0  0
   14.6323   15.1037   24.6305 H   0  0  0  0  0  0  0  0  0  0  0  0
    6.0779   13.5004   26.9861 H   0  0  0  0  0  0  0  0  0  0  0  0
    7.7554   14.1536   25.3046 H   0  0  0  0  0  0  0  0  0  0  0  0
    5.4923   11.1221   27.3163 H   0  0  0  0  0  0  0  0  0  0  0  0
    9.8466    9.3924   22.5443 H   0  0  0  0  0  0  0  0  0  0  0  0
    6.5798    9.3855   25.9685 H   0  0  0  0  0  0  0  0  0  0  0  0
   13.4792   17.1476   18.2574 H   0  0  0  0  0  0  0  0  0  0  0  0
   13.6383   15.6195   17.3907 H   0  0  0  0  0  0  0  0  0  0  0  0
   14.5557   14.5136   19.3747 H   0  0  0  0  0  0  0  0  0  0  0  0
   15.4873   15.9763   19.0493 H   0  0  0  0  0  0  0  0  0  0  0  0
   11.2892   16.0398   18.1664 H   0  0  0  0  0  0  0  0  0  0  0  0
   11.9679   14.5528   18.8310 H   0  0  0  0  0  0  0  0  0  0  0  0
   14.9461   15.7089   21.4688 H   0  0  0  0  0  0  0  0  0  0  0  0
   14.2465   17.2068   20.8153 H   0  0  0  0  0  0  0  0  0  0  0  0
   11.7497   17.2456   20.2896 H   0  0  0  0  0  0  0  0  0  0  0  0
   10.8021   15.7733   20.5970 H   0  0  0  0  0  0  0  0  0  0  0  0
   10.5400   13.8423   22.3870 H   0  0  0  0  0  0  0  0  0  0  0  0
   11.5775   13.2905   21.0713 H   0  0  0  0  0  0  0  0  0  0  0  0
   10.7674   11.1314   21.3373 H   0  0  0  0  0  0  0  0  0  0  0  0
  1  2  2  0  0  0  0
  1  3  1  0  0  0  0
  2  4  1  0  0  0  0
  3  5  2  0  0  0  0
  4  6  2  0  0  0  0
  5  6  1  0  0  0  0
  5 20  1  0  0  0  0
  6 28  1  0  0  0  0
  7  8  2  0  0  0  0
  7  9  1  0  0  0  0
  8 13  1  0  0  0  0
  9 11  2  0  0  0  0
 10 12  2  0  0  0  0
 10 14  1  0  0  0  0
 11 22  1  0  0  0  0
 12 21  1  0  0  0  0
 12 24  1  0  0  0  0
 13 21  2  0  0  0  0
 13 22  1  0  0  0  0
 14 22  1  0  0  0  0
 14 25  2  0  0  0  0
 15 16  1  0  0  0  0
 15 17  1  0  0  0  0
 16 18  1  0  0  0  0
 17 19  1  0  0  0  0
 18 23  1  0  0  0  0
 19 23  1  0  0  0  0
 20 24  1  0  0  0  0
 23 28  1  0  0  0  0
 26 28  2  0  0  0  0
 27 28  2  0  0  0  0
  1 29  1  0  0  0  0
  2 30  1  0  0  0  0
  3 31  1  0  0  0  0
  4 32  1  0  0  0  0
  7 33  1  0  0  0  0
  8 34  1  0  0  0  0
  9 35  1  0  0  0  0
 10 36  1  0  0  0  0
 11 37  1  0  0  0  0
 15 38  1  0  0  0  0
 15 39  1  0  0  0  0
 16 40  1  0  0  0  0
 16 41  1  0  0  0  0
 17 42  1  0  0  0  0
 17 43  1  0  0  0  0
 18 44  1  0  0  0  0
 18 45  1  0  0  0  0
 19 46  1  0  0  0  0
 19 47  1  0  0  0  0
 20 48  1  0  0  0  0
 20 49  1  0  0  0  0
 24 50  1  0  0  0  0
M  END
> <Catalog ID>
Z229485136

> <PlateID>
1041831-R-13

> <Well>
D04

> <MW (desalted)>
398.479

> <ClogP>
2.737

> <HBD>
1

> <TPSA>
82.080

> <RotBonds>
4

> <ROCS_ShapeQuery>
A71EV2A-x0451_0A_A71EV2A-x0310_0A_A71EV2A-x0416_0A_peptide

> <ROCS_TanimotoCombo>
0.522 

> <ROCS_ShapeTanimoto>
0.380 

> <ROCS_ColorTanimoto>
0.143 

> <ROCS_RefTversky>
0.337 

> <ROCS_RefColorTversky>
0.166 

> <ROCS_RefTverskyCombo>
0.504 

> <ROCS_FitTversky>
1.499 

> <ROCS_FitColorTversky>
0.502 

> <ROCS_FitTverskyCombo>
2.001 

> <ROCS_ColorScore>
-5.090

> <ROCS_Overlap>
2345.552

> <ROCS_Rank>
300                 

$$$$
untitled-dbase-196_10
  -OEChem-11132311063D

 47 51  0     1  0  0  0  0  0999 V2000
    5.5137   10.1083   26.3445 C   0  0  0  0  0  0  0  0  0  0  0  0
    5.5743   11.4862   26.4904 C   0  0  0  0  0  0  0  0  0  0  0  0
    6.4308    9.4637   25.5163 C   0  0  0  0  0  0  0  0  0  0  0  0
    6.5512   12.2077   25.8066 C   0  0  0  0  0  0  0  0  0  0  0  0
    7.4111   10.1753   24.8286 C   0  0  0  0  0  0  0  0  0  0  0  0
    7.4724   11.5731   24.9765 C   0  0  0  0  0  0  0  0  0  0  0  0
    9.2105   10.2669   23.3950 C   0  0  0  0  0  0  0  0  0  0  0  0
    9.2702   11.6276   23.5388 C   0  0  0  0  0  0  0  0  0  0  0  0
   10.8520   13.5613   23.2514 C   0  0  0  0  0  0  0  0  0  0  0  0
   12.1417    9.0498   21.4355 C   0  0  0  0  0  0  0  0  0  0  0  0
   11.0661    8.0649   21.0242 C   0  0  0  0  0  0  0  0  0  0  0  0
   13.4841   16.0676   20.9206 C   0  0  0  0  0  0  0  0  0  0  0  0
   14.0985   15.1142   21.9484 C   0  0  0  0  0  0  0  0  0  0  0  0
   11.2203   15.0157   21.2568 C   0  0  0  0  0  0  0  0  0  0  0  0
   11.5909    9.6266   22.7347 C   0  0  0  0  0  0  0  0  0  0  0  0
    9.7807    8.7999   21.3864 C   0  0  0  0  0  0  0  0  0  0  0  0
   11.8549   14.0302   22.2428 C   0  0  1  0  0  0  0  0  0  0  0  0
   12.0722   16.2675   21.4711 C   0  0  1  0  0  0  0  0  0  0  0  0
   12.9326   14.8906   22.9099 C   0  0  2  0  0  0  0  0  0  0  0  0
    8.2847    9.5307   24.0354 N   0  0  0  0  0  0  0  0  0  0  0  0
    8.4057   12.2911   24.3274 N   0  0  0  0  0  0  0  0  0  0  0  0
   10.1332    9.6079   22.5603 N   0  0  0  0  0  0  0  0  0  0  0  0
   10.2568   12.3722   22.8499 N   0  0  0  0  0  0  0  0  0  0  0  0
   10.6451   14.2027   24.2765 O   0  0  0  0  0  0  0  0  0  0  0  0
   12.3135   16.2017   22.8941 O   0  0  0  0  0  0  0  0  0  0  0  0
    4.7573    9.5349   26.8716 H   0  0  0  0  0  0  0  0  0  0  0  0
    4.8657   12.0001   27.1327 H   0  0  0  0  0  0  0  0  0  0  0  0
    6.3717    8.3821   25.4112 H   0  0  0  0  0  0  0  0  0  0  0  0
    6.5870   13.2883   25.9300 H   0  0  0  0  0  0  0  0  0  0  0  0
   13.1155    8.5714   21.5724 H   0  0  0  0  0  0  0  0  0  0  0  0
   12.2448    9.8395   20.6821 H   0  0  0  0  0  0  0  0  0  0  0  0
   11.1160    7.8131   19.9612 H   0  0  0  0  0  0  0  0  0  0  0  0
   11.1525    7.1395   21.6055 H   0  0  0  0  0  0  0  0  0  0  0  0
   14.0375   17.0134   20.9241 H   0  0  0  0  0  0  0  0  0  0  0  0
   13.4937   15.6660   19.9032 H   0  0  0  0  0  0  0  0  0  0  0  0
   14.4743   14.1879   21.5044 H   0  0  0  0  0  0  0  0  0  0  0  0
   14.9285   15.6149   22.4596 H   0  0  0  0  0  0  0  0  0  0  0  0
   11.2605   14.6613   20.2221 H   0  0  0  0  0  0  0  0  0  0  0  0
   10.1732   15.2183   21.5099 H   0  0  0  0  0  0  0  0  0  0  0  0
   11.8586    8.9978   23.5958 H   0  0  0  0  0  0  0  0  0  0  0  0
   11.9712   10.6415   22.9151 H   0  0  0  0  0  0  0  0  0  0  0  0
    9.4605    9.4674   20.5734 H   0  0  0  0  0  0  0  0  0  0  0  0
    8.9635    8.0975   21.5995 H   0  0  0  0  0  0  0  0  0  0  0  0
   12.2682   13.1465   21.7461 H   0  0  0  0  0  0  0  0  0  0  0  0
   11.5930   17.2013   21.1690 H   0  0  0  0  0  0  0  0  0  0  0  0
   13.2225   14.5906   23.9199 H   0  0  0  0  0  0  0  0  0  0  0  0
   10.5564   11.9800   21.9597 H   0  0  0  0  0  0  0  0  0  0  0  0
  1  2  2  0  0  0  0
  1  3  1  0  0  0  0
  2  4  1  0  0  0  0
  3  5  2  0  0  0  0
  4  6  2  0  0  0  0
  5  6  1  0  0  0  0
  5 20  1  0  0  0  0
  6 21  1  0  0  0  0
  7  8  1  0  0  0  0
  7 20  2  0  0  0  0
  7 22  1  0  0  0  0
  8 21  2  0  0  0  0
  8 23  1  0  0  0  0
  9 17  1  0  0  0  0
  9 23  1  0  0  0  0
  9 24  2  0  0  0  0
 10 11  1  0  0  0  0
 10 15  1  0  0  0  0
 11 16  1  0  0  0  0
 12 13  1  0  0  0  0
 12 18  1  0  0  0  0
 13 19  1  0  0  0  0
 14 17  1  0  0  0  0
 14 18  1  0  0  0  0
 15 22  1  0  0  0  0
 16 22  1  0  0  0  0
 17 19  1  0  0  0  0
 18 25  1  0  0  0  0
 19 25  1  0  0  0  0
  1 26  1  0  0  0  0
  2 27  1  0  0  0  0
  3 28  1  0  0  0  0
  4 29  1  0  0  0  0
 10 30  1  0  0  0  0
 10 31  1  0  0  0  0
 11 32  1  0  0  0  0
 11 33  1  0  0  0  0
 12 34  1  0  0  0  0
 12 35  1  0  0  0  0
 13 36  1  0  0  0  0
 13 37  1  0  0  0  0
 14 38  1  0  0  0  0
 14 39  1  0  0  0  0
 15 40  1  0  0  0  0
 15 41  1  0  0  0  0
 16 42  1  0  0  0  0
 16 43  1  0  0  0  0
 17 44  1  0  0  0  0
 18 45  1  0  0  0  0
 19 46  1  0  0  0  0
 23 47  1  0  0  0  0
M  END
> <Catalog ID>
Z1198363730

> <PlateID>
1041831-R-03

> <Well>
D07

> <MW (desalted)>
338.404

> <ClogP>
2.706

> <HBD>
1

> <TPSA>
67.350

> <RotBonds>
3

> <ROCS_ShapeQuery>
A71EV2A-x0451_0A_A71EV2A-x0310_0A_A71EV2A-x0416_0A_peptide

> <ROCS_TanimotoCombo>
0.522 

> <ROCS_ShapeTanimoto>
0.362 

> <ROCS_ColorTanimoto>
0.160 

> <ROCS_RefTversky>
0.323 

> <ROCS_RefColorTversky>
0.206 

> <ROCS_RefTverskyCombo>
0.529 

> <ROCS_FitTversky>
1.511 

> <ROCS_FitColorTversky>
0.418 

> <ROCS_FitTverskyCombo>
1.928 

> <ROCS_ColorScore>
-6.365

> <ROCS_Overlap>
2243.610

> <ROCS_Rank>
301                 

$$$$
untitled-dbase-473_14
  -OEChem-11132311063D

 49 53  0     1  0  0  0  0  0999 V2000
   12.5502   15.2033   20.8097 C   0  0  0  0  0  0  0  0  0  0  0  0
   13.5455   16.0729   19.0703 C   0  0  0  0  0  0  0  0  0  0  0  0
   10.6804   13.2460   23.2636 C   0  0  0  0  0  0  0  0  0  0  0  0
   14.7553   15.4800   22.5934 C   0  0  0  0  0  0  0  0  0  0  0  0
   13.7303   14.3705   22.8537 C   0  0  0  0  0  0  0  0  0  0  0  0
    7.4571   10.3343   25.0613 C   0  0  0  0  0  0  0  0  0  0  0  0
    9.7138   11.3412   25.4846 C   0  0  0  0  0  0  0  0  0  0  0  0
    7.8914   12.7306   24.4660 C   0  0  0  0  0  0  0  0  0  0  0  0
    9.4264    9.6321   23.6777 C   0  0  0  0  0  0  0  0  0  0  0  0
    7.5980   11.0262   22.6556 C   0  0  0  0  0  0  0  0  0  0  0  0
   14.9901   15.6613   21.0926 C   0  0  0  0  0  0  0  0  0  0  0  0
   12.3813   14.7105   22.2039 C   0  0  2  0  0  0  0  0  0  0  0  0
    9.8589   12.0072   23.0466 C   0  0  0  0  0  0  0  0  0  0  0  0
    8.2004   11.6149   25.4784 C   0  0  0  0  0  0  0  0  0  0  0  0
    7.9091    9.8978   23.6571 C   0  0  0  0  0  0  0  0  0  0  0  0
   10.1836   10.9141   24.0793 C   0  0  0  0  0  0  0  0  0  0  0  0
    8.3508   12.3115   23.0548 C   0  0  0  0  0  0  0  0  0  0  0  0
   14.6036   16.6240   18.2054 C   0  0  0  0  0  0  0  0  0  0  0  0
   11.6502   15.3398   19.8564 N   0  0  0  0  0  0  0  0  0  0  0  0
   12.2833   15.8840   18.7537 N   0  0  0  0  0  0  0  0  0  0  0  0
   13.7514   15.6668   20.3473 N   0  0  0  0  0  0  0  0  0  0  0  0
   11.5104   13.5632   22.2053 N   0  0  0  0  0  0  0  0  0  0  0  0
   10.5685   13.8690   24.3129 O   0  0  0  0  0  0  0  0  0  0  0  0
   14.3878   16.4190   23.0263 H   0  0  0  0  0  0  0  0  0  0  0  0
   15.7030   15.2458   23.0906 H   0  0  0  0  0  0  0  0  0  0  0  0
   14.1234   13.4275   22.4504 H   0  0  0  0  0  0  0  0  0  0  0  0
   13.6008   14.2305   23.9333 H   0  0  0  0  0  0  0  0  0  0  0  0
    7.6540    9.5337   25.7847 H   0  0  0  0  0  0  0  0  0  0  0  0
    6.3745   10.5106   25.0683 H   0  0  0  0  0  0  0  0  0  0  0  0
   10.2548   12.2369   25.8124 H   0  0  0  0  0  0  0  0  0  0  0  0
    9.9465   10.5519   26.2101 H   0  0  0  0  0  0  0  0  0  0  0  0
    6.8144   12.9398   24.4594 H   0  0  0  0  0  0  0  0  0  0  0  0
    8.3888   13.6594   24.7695 H   0  0  0  0  0  0  0  0  0  0  0  0
    9.6551    8.8255   24.3849 H   0  0  0  0  0  0  0  0  0  0  0  0
    9.7602    9.2929   22.6895 H   0  0  0  0  0  0  0  0  0  0  0  0
    7.8903   10.7192   21.6439 H   0  0  0  0  0  0  0  0  0  0  0  0
    6.5181   11.2171   22.6301 H   0  0  0  0  0  0  0  0  0  0  0  0
   15.5151   16.6031   20.9029 H   0  0  0  0  0  0  0  0  0  0  0  0
   15.5911   14.8349   20.6964 H   0  0  0  0  0  0  0  0  0  0  0  0
   11.8802   15.4880   22.7914 H   0  0  0  0  0  0  0  0  0  0  0  0
   10.1460   11.6514   22.0476 H   0  0  0  0  0  0  0  0  0  0  0  0
    7.8750   11.9215   26.4788 H   0  0  0  0  0  0  0  0  0  0  0  0
    7.3774    8.9857   23.3640 H   0  0  0  0  0  0  0  0  0  0  0  0
   11.2615   10.7144   24.1021 H   0  0  0  0  0  0  0  0  0  0  0  0
    8.1161   13.1125   22.3440 H   0  0  0  0  0  0  0  0  0  0  0  0
   14.6662   17.7213   18.3000 H   0  0  0  0  0  0  0  0  0  0  0  0
   15.5983   16.2113   18.4502 H   0  0  0  0  0  0  0  0  0  0  0  0
   14.4334   16.3907   17.1394 H   0  0  0  0  0  0  0  0  0  0  0  0
   11.5061   12.9584   21.3894 H   0  0  0  0  0  0  0  0  0  0  0  0
  1 12  1  0  0  0  0
  1 19  2  0  0  0  0
  1 21  1  0  0  0  0
  2 18  1  0  0  0  0
  2 20  2  0  0  0  0
  2 21  1  0  0  0  0
  3 13  1  0  0  0  0
  3 22  1  0  0  0  0
  3 23  2  0  0  0  0
  4  5  1  0  0  0  0
  4 11  1  0  0  0  0
  5 12  1  0  0  0  0
  6 14  1  0  0  0  0
  6 15  1  0  0  0  0
  7 14  1  0  0  0  0
  7 16  1  0  0  0  0
  8 14  1  0  0  0  0
  8 17  1  0  0  0  0
  9 15  1  0  0  0  0
  9 16  1  0  0  0  0
 10 15  1  0  0  0  0
 10 17  1  0  0  0  0
 11 21  1  0  0  0  0
 12 22  1  0  0  0  0
 13 16  1  0  0  0  0
 13 17  1  0  0  0  0
 19 20  1  0  0  0  0
  4 24  1  0  0  0  0
  4 25  1  0  0  0  0
  5 26  1  0  0  0  0
  5 27  1  0  0  0  0
  6 28  1  0  0  0  0
  6 29  1  0  0  0  0
  7 30  1  0  0  0  0
  7 31  1  0  0  0  0
  8 32  1  0  0  0  0
  8 33  1  0  0  0  0
  9 34  1  0  0  0  0
  9 35  1  0  0  0  0
 10 36  1  0  0  0  0
 10 37  1  0  0  0  0
 11 38  1  0  0  0  0
 11 39  1  0  0  0  0
 12 40  1  0  0  0  0
 13 41  1  0  0  0  0
 14 42  1  0  0  0  0
 15 43  1  0  0  0  0
 16 44  1  0  0  0  0
 17 45  1  0  0  0  0
 18 46  1  0  0  0  0
 18 47  1  0  0  0  0
 18 48  1  0  0  0  0
 22 49  1  0  0  0  0
M  END
> <Catalog ID>
Z1356227377

> <PlateID>
1041831-R-06

> <Well>
H04

> <MW (desalted)>
314.425

> <ClogP>
2.169

> <HBD>
1

> <TPSA>
59.810

> <RotBonds>
2

> <ROCS_ShapeQuery>
A71EV2A-x0451_0A_A71EV2A-x0310_0A_A71EV2A-x0416_0A_peptide

> <ROCS_TanimotoCombo>
0.522 

> <ROCS_ShapeTanimoto>
0.321 

> <ROCS_ColorTanimoto>
0.202 

> <ROCS_RefTversky>
0.291 

> <ROCS_RefColorTversky>
0.243 

> <ROCS_RefTverskyCombo>
0.534 

> <ROCS_FitTversky>
1.469 

> <ROCS_FitColorTversky>
0.543 

> <ROCS_FitTverskyCombo>
2.012 

> <ROCS_ColorScore>
-7.463

> <ROCS_Overlap>
2022.494

> <ROCS_Rank>
302                 

$$$$
untitled-dbase-200_52
  -OEChem-11132311063D

 46 49  0     1  0  0  0  0  0999 V2000
    9.4951   11.9198   23.7577 C   0  0  0  0  0  0  0  0  0  0  0  0
    9.6977   10.5403   23.6162 C   0  0  0  0  0  0  0  0  0  0  0  0
    8.2693   12.0352   24.3727 C   0  0  0  0  0  0  0  0  0  0  0  0
    5.8148   11.5195   25.5819 C   0  0  0  0  0  0  0  0  0  0  0  0
    6.5734   10.4973   25.1737 C   0  0  0  0  0  0  0  0  0  0  0  0
    6.3991   12.8612   25.3299 C   0  0  0  0  0  0  0  0  0  0  0  0
   10.3726   13.0485   23.3537 C   0  0  0  0  0  0  0  0  0  0  0  0
   13.4396   16.6960   21.2799 C   0  0  0  0  0  0  0  0  0  0  0  0
   12.2991   17.1002   20.3490 C   0  0  0  0  0  0  0  0  0  0  0  0
   14.3248   15.5975   20.6962 C   0  0  0  0  0  0  0  0  0  0  0  0
   10.7523   15.0397   20.4739 C   0  0  0  0  0  0  0  0  0  0  0  0
   12.7748   13.5387   20.8183 C   0  0  0  0  0  0  0  0  0  0  0  0
   11.6475   15.9308   19.5869 C   0  0  2  0  0  0  0  0  0  0  0  0
   13.5656   14.5084   19.9149 C   0  0  1  0  0  0  0  0  0  0  0  0
   11.5263   14.1563   21.4583 C   0  0  0  0  0  0  0  0  0  0  0  0
   10.8569    9.8552   23.0172 C   0  0  0  0  0  0  0  0  0  0  0  0
   13.3022   15.7072   17.7978 C   0  0  0  0  0  0  0  0  0  0  0  0
    8.6889    9.8153   24.0983 N   0  0  0  0  0  0  0  0  0  0  0  0
    7.5411   13.1186   24.7679 N   0  0  0  0  0  0  0  0  0  0  0  0
    7.8038   10.7337   24.5668 N   0  0  0  0  0  0  0  0  0  0  0  0
   12.6328   15.0644   18.9238 N   0  0  0  0  0  0  0  0  0  0  0  0
   10.6667   13.1298   22.0025 N   0  0  0  0  0  0  0  0  0  0  0  0
   10.7967   13.8163   24.2134 O   0  0  0  0  0  0  0  0  0  0  0  0
    4.8519   11.4161   26.0598 H   0  0  0  0  0  0  0  0  0  0  0  0
    6.2706    9.4643   25.2946 H   0  0  0  0  0  0  0  0  0  0  0  0
    5.7756   13.7065   25.6645 H   0  0  0  0  0  0  0  0  0  0  0  0
   14.0548   17.5778   21.5068 H   0  0  0  0  0  0  0  0  0  0  0  0
   13.0395   16.3807   22.2492 H   0  0  0  0  0  0  0  0  0  0  0  0
   11.5413   17.6553   20.9155 H   0  0  0  0  0  0  0  0  0  0  0  0
   12.7026   17.8070   19.6100 H   0  0  0  0  0  0  0  0  0  0  0  0
   15.0420   16.0721   20.0114 H   0  0  0  0  0  0  0  0  0  0  0  0
   14.9245   15.1451   21.4956 H   0  0  0  0  0  0  0  0  0  0  0  0
   10.0404   15.6663   21.0257 H   0  0  0  0  0  0  0  0  0  0  0  0
   10.1455   14.4012   19.8184 H   0  0  0  0  0  0  0  0  0  0  0  0
   12.4773   12.6710   20.2149 H   0  0  0  0  0  0  0  0  0  0  0  0
   13.4331   13.1469   21.6037 H   0  0  0  0  0  0  0  0  0  0  0  0
   10.9847   16.3666   18.8271 H   0  0  0  0  0  0  0  0  0  0  0  0
   14.3164   13.8968   19.3963 H   0  0  0  0  0  0  0  0  0  0  0  0
   11.8183   14.7486   22.3246 H   0  0  0  0  0  0  0  0  0  0  0  0
   11.6305    9.6426   23.7743 H   0  0  0  0  0  0  0  0  0  0  0  0
   10.5765    8.8954   22.5486 H   0  0  0  0  0  0  0  0  0  0  0  0
   11.3280   10.4555   22.2188 H   0  0  0  0  0  0  0  0  0  0  0  0
   14.0224   15.0065   17.3501 H   0  0  0  0  0  0  0  0  0  0  0  0
   12.5552   15.9965   17.0439 H   0  0  0  0  0  0  0  0  0  0  0  0
   13.8335   16.6035   18.1503 H   0  0  0  0  0  0  0  0  0  0  0  0
   10.3307   12.4218   21.3588 H   0  0  0  0  0  0  0  0  0  0  0  0
  1  2  1  0  0  0  0
  1  3  2  0  0  0  0
  1  7  1  0  0  0  0
  2 16  1  0  0  0  0
  2 18  2  0  0  0  0
  3 19  1  0  0  0  0
  3 20  1  0  0  0  0
  4  5  2  0  0  0  0
  4  6  1  0  0  0  0
  5 20  1  0  0  0  0
  6 19  2  0  0  0  0
  7 22  1  0  0  0  0
  7 23  2  0  0  0  0
  8  9  1  0  0  0  0
  8 10  1  0  0  0  0
  9 13  1  0  0  0  0
 10 14  1  0  0  0  0
 11 13  1  0  0  0  0
 11 15  1  0  0  0  0
 12 14  1  0  0  0  0
 12 15  1  0  0  0  0
 13 21  1  0  0  0  0
 14 21  1  0  0  0  0
 15 22  1  0  0  0  0
 17 21  1  0  0  0  0
 18 20  1  0  0  0  0
  4 24  1  0  0  0  0
  5 25  1  0  0  0  0
  6 26  1  0  0  0  0
  8 27  1  0  0  0  0
  8 28  1  0  0  0  0
  9 29  1  0  0  0  0
  9 30  1  0  0  0  0
 10 31  1  0  0  0  0
 10 32  1  0  0  0  0
 11 33  1  0  0  0  0
 11 34  1  0  0  0  0
 12 35  1  0  0  0  0
 12 36  1  0  0  0  0
 13 37  1  0  0  0  0
 14 38  1  0  0  0  0
 15 39  1  0  0  0  0
 16 40  1  0  0  0  0
 16 41  1  0  0  0  0
 16 42  1  0  0  0  0
 17 43  1  0  0  0  0
 17 44  1  0  0  0  0
 17 45  1  0  0  0  0
 22 46  1  0  0  0  0
M  END
> <Catalog ID>
Z1274688631

> <PlateID>
1041831-R-03

> <Well>
D11

> <MW (desalted)>
313.397

> <ClogP>
0.537

> <HBD>
1

> <TPSA>
62.530

> <RotBonds>
2

> <ROCS_ShapeQuery>
A71EV2A-x0451_0A_A71EV2A-x0310_0A_A71EV2A-x0416_0A_peptide

> <ROCS_TanimotoCombo>
0.522 

> <ROCS_ShapeTanimoto>
0.342 

> <ROCS_ColorTanimoto>
0.180 

> <ROCS_RefTversky>
0.305 

> <ROCS_RefColorTversky>
0.205 

> <ROCS_RefTverskyCombo>
0.510 

> <ROCS_FitTversky>
1.550 

> <ROCS_FitColorTversky>
0.600 

> <ROCS_FitTverskyCombo>
2.149 

> <ROCS_ColorScore>
-6.259

> <ROCS_Overlap>
2121.016

> <ROCS_Rank>
303                 

$$$$
untitled-dbase-3600_1333
  -OEChem-11132311063D

 43 45  0     1  0  0  0  0  0999 V2000
   15.2324   17.8077   19.1182 C   0  0  0  0  0  0  0  0  0  0  0  0
   12.8436   15.0739   18.2959 C   0  0  0  0  0  0  0  0  0  0  0  0
   13.8150   16.0647   18.1531 C   0  0  0  0  0  0  0  0  0  0  0  0
   12.2947   14.8110   19.5511 C   0  0  0  0  0  0  0  0  0  0  0  0
   13.6888   16.5296   20.5207 C   0  0  0  0  0  0  0  0  0  0  0  0
   14.2376   16.7925   19.2655 C   0  0  0  0  0  0  0  0  0  0  0  0
   12.7174   15.5389   20.6634 C   0  0  0  0  0  0  0  0  0  0  0  0
   10.7697   13.5210   23.1779 C   0  0  0  0  0  0  0  0  0  0  0  0
    5.5240   11.9243   27.2237 C   0  0  0  0  0  0  0  0  0  0  0  0
    6.3404   13.1819   27.2187 C   0  0  0  0  0  0  0  0  0  0  0  0
    8.8933   10.2453   23.3744 C   0  0  0  0  0  0  0  0  0  0  0  0
    8.2638   12.4034   24.4931 C   0  0  0  0  0  0  0  0  0  0  0  0
    8.0210    9.5380   24.4046 C   0  0  0  0  0  0  0  0  0  0  0  0
    6.2380   12.3495   25.9655 C   0  0  0  0  0  0  0  0  0  0  0  0
    9.4170   11.5670   23.9357 C   0  0  2  0  0  0  0  0  0  0  0  0
    7.4250   11.5746   25.4728 C   0  0  1  0  0  0  0  0  0  0  0  0
   12.1266   15.2556   22.0143 C   0  0  0  0  0  0  0  0  0  0  0  0
   16.0403   18.6322   18.9986 N   0  0  0  0  0  0  0  0  0  0  0  0
   10.1511   12.2966   22.9325 N   0  0  0  0  0  0  0  0  0  0  0  0
   11.4070   14.0039   22.0377 N   0  0  0  0  0  0  0  0  0  0  0  0
   10.7557   14.1015   24.2626 O   0  0  0  0  0  0  0  0  0  0  0  0
    6.9537   10.3846   24.8304 O   0  0  0  0  0  0  0  0  0  0  0  0
   12.5151   14.5062   17.4303 H   0  0  0  0  0  0  0  0  0  0  0  0
   14.2331   16.2584   17.1682 H   0  0  0  0  0  0  0  0  0  0  0  0
   11.5380   14.0375   19.6522 H   0  0  0  0  0  0  0  0  0  0  0  0
   14.0152   17.0933   21.3923 H   0  0  0  0  0  0  0  0  0  0  0  0
    5.9093   11.0770   27.7774 H   0  0  0  0  0  0  0  0  0  0  0  0
    4.4456   12.0228   27.2485 H   0  0  0  0  0  0  0  0  0  0  0  0
    5.8121   14.1271   27.2385 H   0  0  0  0  0  0  0  0  0  0  0  0
    7.2745   13.1786   27.7666 H   0  0  0  0  0  0  0  0  0  0  0  0
    9.7226    9.5932   23.0777 H   0  0  0  0  0  0  0  0  0  0  0  0
    8.2893   10.4462   22.4801 H   0  0  0  0  0  0  0  0  0  0  0  0
    8.6462   13.3034   24.9900 H   0  0  0  0  0  0  0  0  0  0  0  0
    7.6267   12.7367   23.6623 H   0  0  0  0  0  0  0  0  0  0  0  0
    7.5778    8.6399   23.9629 H   0  0  0  0  0  0  0  0  0  0  0  0
    8.6074    9.2231   25.2756 H   0  0  0  0  0  0  0  0  0  0  0  0
    5.6363   12.7360   25.1521 H   0  0  0  0  0  0  0  0  0  0  0  0
   10.1301   11.3565   24.7423 H   0  0  0  0  0  0  0  0  0  0  0  0
    8.0323   11.2881   26.3414 H   0  0  0  0  0  0  0  0  0  0  0  0
   12.9117   15.2076   22.7767 H   0  0  0  0  0  0  0  0  0  0  0  0
   11.4312   16.0471   22.3129 H   0  0  0  0  0  0  0  0  0  0  0  0
   10.2211   11.8984   22.0001 H   0  0  0  0  0  0  0  0  0  0  0  0
   11.4051   13.4335   21.1980 H   0  0  0  0  0  0  0  0  0  0  0  0
  1  6  1  0  0  0  0
  1 18  3  0  0  0  0
  2  3  2  0  0  0  0
  2  4  1  0  0  0  0
  3  6  1  0  0  0  0
  4  7  2  0  0  0  0
  5  6  2  0  0  0  0
  5  7  1  0  0  0  0
  7 17  1  0  0  0  0
  8 19  1  0  0  0  0
  8 20  1  0  0  0  0
  8 21  2  0  0  0  0
  9 10  1  0  0  0  0
  9 14  1  0  0  0  0
 10 14  1  0  0  0  0
 11 13  1  0  0  0  0
 11 15  1  0  0  0  0
 12 15  1  0  0  0  0
 12 16  1  0  0  0  0
 13 22  1  0  0  0  0
 14 16  1  0  0  0  0
 15 19  1  0  0  0  0
 16 22  1  0  0  0  0
 17 20  1  0  0  0  0
  2 23  1  0  0  0  0
  3 24  1  0  0  0  0
  4 25  1  0  0  0  0
  5 26  1  0  0  0  0
  9 27  1  0  0  0  0
  9 28  1  0  0  0  0
 10 29  1  0  0  0  0
 10 30  1  0  0  0  0
 11 31  1  0  0  0  0
 11 32  1  0  0  0  0
 12 33  1  0  0  0  0
 12 34  1  0  0  0  0
 13 35  1  0  0  0  0
 13 36  1  0  0  0  0
 14 37  1  0  0  0  0
 15 38  1  0  0  0  0
 16 39  1  0  0  0  0
 17 40  1  0  0  0  0
 17 41  1  0  0  0  0
 19 42  1  0  0  0  0
 20 43  1  0  0  0  0
M  END
> <Catalog ID>
Z1693320770

> <PlateID>
1041831-R-45

> <Well>
H11

> <MW (desalted)>
299.368

> <ClogP>
1.158

> <HBD>
2

> <TPSA>
74.150

> <RotBonds>
4

> <ROCS_ShapeQuery>
A71EV2A-x0451_0A_A71EV2A-x0310_0A_A71EV2A-x0416_0A_peptide

> <ROCS_TanimotoCombo>
0.522 

> <ROCS_ShapeTanimoto>
0.321 

> <ROCS_ColorTanimoto>
0.201 

> <ROCS_RefTversky>
0.288 

> <ROCS_RefColorTversky>
0.213 

> <ROCS_RefTverskyCombo>
0.500 

> <ROCS_FitTversky>
1.567 

> <ROCS_FitColorTversky>
0.786 

> <ROCS_FitTverskyCombo>
2.352 

> <ROCS_ColorScore>
-6.478

> <ROCS_Overlap>
1999.098

> <ROCS_Rank>
304                 

$$$$
untitled-dbase-3228_224
  -OEChem-11132311063D

 57 59  0     1  0  0  0  0  0999 V2000
    8.6027    9.4109   23.3079 C   0  0  0  0  0  0  0  0  0  0  0  0
    7.6648    9.8763   24.2294 C   0  0  0  0  0  0  0  0  0  0  0  0
    9.5785   10.2741   22.8094 C   0  0  0  0  0  0  0  0  0  0  0  0
    8.6782   12.0682   24.1539 C   0  0  0  0  0  0  0  0  0  0  0  0
    7.7025   11.2049   24.6524 C   0  0  0  0  0  0  0  0  0  0  0  0
    9.6162   11.6027   23.2324 C   0  0  0  0  0  0  0  0  0  0  0  0
    4.8678   12.6971   27.3969 C   0  0  0  0  0  0  0  0  0  0  0  0
    6.7030   11.6992   25.6338 C   0  0  0  0  0  0  0  0  0  0  0  0
    5.2764   11.4181   27.3970 C   0  0  0  0  0  0  0  0  0  0  0  0
    5.4263   13.6233   26.3885 C   0  0  0  0  0  0  0  0  0  0  0  0
   11.1788   13.5684   23.3697 C   0  0  0  0  0  0  0  0  0  0  0  0
   14.7187   13.1020   24.9072 C   0  0  0  0  0  0  0  0  0  0  0  0
   12.8885   16.0692   24.1246 C   0  0  0  0  0  0  0  0  0  0  0  0
   12.2005   15.7445   22.7979 C   0  0  0  0  0  0  0  0  0  0  0  0
   14.2683   15.4277   24.2012 C   0  0  0  0  0  0  0  0  0  0  0  0
   13.5714   13.5983   22.6905 C   0  0  0  0  0  0  0  0  0  0  0  0
   12.2072   14.2506   22.4810 C   0  0  1  0  0  0  0  0  0  0  0  0
    4.7345   10.4399   28.3986 C   0  0  0  0  0  0  0  0  0  0  0  0
   15.3063   11.3316   23.2790 C   0  0  0  0  0  0  0  0  0  0  0  0
   13.1051   11.2615   24.4810 C   0  0  0  0  0  0  0  0  0  0  0  0
   15.2280   10.8148   25.7329 C   0  0  0  0  0  0  0  0  0  0  0  0
   14.5896   11.6311   24.6012 C   0  0  0  0  0  0  0  0  0  0  0  0
    6.1966   10.8930   26.5177 N   0  0  0  0  0  0  0  0  0  0  0  0
    6.3446   13.0372   25.5405 N   0  0  0  0  0  0  0  0  0  0  0  0
   14.1836   13.9857   23.9695 N   0  0  0  0  0  0  0  0  0  0  0  0
   10.6064   12.4782   22.7268 N   0  0  0  0  0  0  0  0  0  0  0  0
    5.0762   14.7977   26.3412 O   0  0  0  0  0  0  0  0  0  0  0  0
   10.9466   13.9887   24.4986 O   0  0  0  0  0  0  0  0  0  0  0  0
   15.2759   13.4531   25.9504 O   0  0  0  0  0  0  0  0  0  0  0  0
    8.5737    8.3763   22.9787 H   0  0  0  0  0  0  0  0  0  0  0  0
    6.9085    9.1947   24.6100 H   0  0  0  0  0  0  0  0  0  0  0  0
   10.3043    9.9007   22.0911 H   0  0  0  0  0  0  0  0  0  0  0  0
    8.7070   13.1049   24.4831 H   0  0  0  0  0  0  0  0  0  0  0  0
    4.1419   13.0846   28.1018 H   0  0  0  0  0  0  0  0  0  0  0  0
   12.9796   17.1560   24.2325 H   0  0  0  0  0  0  0  0  0  0  0  0
   12.2718   15.7186   24.9610 H   0  0  0  0  0  0  0  0  0  0  0  0
   11.1758   16.1350   22.8155 H   0  0  0  0  0  0  0  0  0  0  0  0
   12.7276   16.2758   21.9951 H   0  0  0  0  0  0  0  0  0  0  0  0
   14.9314   15.8455   23.4343 H   0  0  0  0  0  0  0  0  0  0  0  0
   14.7204   15.6413   25.1749 H   0  0  0  0  0  0  0  0  0  0  0  0
   13.4848   12.5135   22.5991 H   0  0  0  0  0  0  0  0  0  0  0  0
   14.2628   13.9299   21.9061 H   0  0  0  0  0  0  0  0  0  0  0  0
   11.8737   14.0943   21.4643 H   0  0  0  0  0  0  0  0  0  0  0  0
    3.8461    9.9621   27.9930 H   0  0  0  0  0  0  0  0  0  0  0  0
    4.4808   10.9647   29.3166 H   0  0  0  0  0  0  0  0  0  0  0  0
    5.4891    9.6869   28.6135 H   0  0  0  0  0  0  0  0  0  0  0  0
   15.2372   10.2692   23.0171 H   0  0  0  0  0  0  0  0  0  0  0  0
   14.8667   11.9050   22.4548 H   0  0  0  0  0  0  0  0  0  0  0  0
   16.3704   11.5906   23.3321 H   0  0  0  0  0  0  0  0  0  0  0  0
   12.9730   10.1961   24.2582 H   0  0  0  0  0  0  0  0  0  0  0  0
   12.6145   11.8301   23.6822 H   0  0  0  0  0  0  0  0  0  0  0  0
   12.5708   11.4721   25.4145 H   0  0  0  0  0  0  0  0  0  0  0  0
   15.1515    9.7378   25.5419 H   0  0  0  0  0  0  0  0  0  0  0  0
   14.7434   11.0154   26.6958 H   0  0  0  0  0  0  0  0  0  0  0  0
   16.2913   11.0580   25.8417 H   0  0  0  0  0  0  0  0  0  0  0  0
    6.7701   13.6195   24.8244 H   0  0  0  0  0  0  0  0  0  0  0  0
   10.9278   12.2740   21.7828 H   0  0  0  0  0  0  0  0  0  0  0  0
  1  2  1  0  0  0  0
  1  3  2  0  0  0  0
  2  5  2  0  0  0  0
  3  6  1  0  0  0  0
  4  5  1  0  0  0  0
  4  6  2  0  0  0  0
  5  8  1  0  0  0  0
  6 26  1  0  0  0  0
  7  9  2  0  0  0  0
  7 10  1  0  0  0  0
  8 23  2  0  0  0  0
  8 24  1  0  0  0  0
  9 18  1  0  0  0  0
  9 23  1  0  0  0  0
 10 24  1  0  0  0  0
 10 27  2  0  0  0  0
 11 17  1  0  0  0  0
 11 26  1  0  0  0  0
 11 28  2  0  0  0  0
 12 22  1  0  0  0  0
 12 25  1  0  0  0  0
 12 29  2  0  0  0  0
 13 14  1  0  0  0  0
 13 15  1  0  0  0  0
 14 17  1  0  0  0  0
 15 25  1  0  0  0  0
 16 17  1  0  0  0  0
 16 25  1  0  0  0  0
 19 22  1  0  0  0  0
 20 22  1  0  0  0  0
 21 22  1  0  0  0  0
  1 30  1  0  0  0  0
  2 31  1  0  0  0  0
  3 32  1  0  0  0  0
  4 33  1  0  0  0  0
  7 34  1  0  0  0  0
 13 35  1  0  0  0  0
 13 36  1  0  0  0  0
 14 37  1  0  0  0  0
 14 38  1  0  0  0  0
 15 39  1  0  0  0  0
 15 40  1  0  0  0  0
 16 41  1  0  0  0  0
 16 42  1  0  0  0  0
 17 43  1  0  0  0  0
 18 44  1  0  0  0  0
 18 45  1  0  0  0  0
 18 46  1  0  0  0  0
 19 47  1  0  0  0  0
 19 48  1  0  0  0  0
 19 49  1  0  0  0  0
 20 50  1  0  0  0  0
 20 51  1  0  0  0  0
 20 52  1  0  0  0  0
 21 53  1  0  0  0  0
 21 54  1  0  0  0  0
 21 55  1  0  0  0  0
 24 56  1  0  0  0  0
 26 57  1  0  0  0  0
M  END
> <Catalog ID>
Z838422374

> <PlateID>
1041831-R-41

> <Well>
C09

> <MW (desalted)>
396.483

> <ClogP>
1.595

> <HBD>
2

> <TPSA>
90.870

> <RotBonds>
4

> <ROCS_ShapeQuery>
A71EV2A-x0451_0A_A71EV2A-x0310_0A_A71EV2A-x0416_0A_peptide

> <ROCS_TanimotoCombo>
0.522 

> <ROCS_ShapeTanimoto>
0.355 

> <ROCS_ColorTanimoto>
0.167 

> <ROCS_RefTversky>
0.322 

> <ROCS_RefColorTversky>
0.195 

> <ROCS_RefTverskyCombo>
0.517 

> <ROCS_FitTversky>
1.400 

> <ROCS_FitColorTversky>
0.539 

> <ROCS_FitTverskyCombo>
1.938 

> <ROCS_ColorScore>
-5.972

> <ROCS_Overlap>
2244.578

> <ROCS_Rank>
305                 

$$$$
untitled-dbase-936_1535
  -OEChem-11132311063D

 53 56  0     1  0  0  0  0  0999 V2000
   16.0491   16.7391   19.7396 C   0  0  0  0  0  0  0  0  0  0  0  0
    5.8513   12.0556   25.2206 C   0  0  0  0  0  0  0  0  0  0  0  0
    6.8077   13.0219   25.5158 C   0  0  0  0  0  0  0  0  0  0  0  0
   15.8417   17.2264   18.4507 C   0  0  0  0  0  0  0  0  0  0  0  0
   15.0595   15.9944   20.3917 C   0  0  0  0  0  0  0  0  0  0  0  0
    6.2222   10.8919   24.5483 C   0  0  0  0  0  0  0  0  0  0  0  0
    8.1358   12.8244   25.1397 C   0  0  0  0  0  0  0  0  0  0  0  0
   14.6427   16.9861   17.7735 C   0  0  0  0  0  0  0  0  0  0  0  0
   11.7884   15.1302   19.0084 C   0  0  0  0  0  0  0  0  0  0  0  0
   13.8425   15.7395   19.7289 C   0  0  0  0  0  0  0  0  0  0  0  0
    7.5538   10.6844   24.1552 C   0  0  0  0  0  0  0  0  0  0  0  0
    8.5252   11.6562   24.4626 C   0  0  0  0  0  0  0  0  0  0  0  0
   12.6520   15.0413   20.0757 C   0  0  0  0  0  0  0  0  0  0  0  0
   13.6625   16.2403   18.4377 C   0  0  0  0  0  0  0  0  0  0  0  0
   11.0143   16.6515   22.8253 C   0  0  0  0  0  0  0  0  0  0  0  0
   10.6855   13.6880   23.1194 C   0  0  0  0  0  0  0  0  0  0  0  0
    7.9157    9.3893   23.4723 C   0  0  0  0  0  0  0  0  0  0  0  0
    9.2744    9.4261   22.7773 C   0  0  0  0  0  0  0  0  0  0  0  0
   10.3268   10.0406   23.6947 C   0  0  0  0  0  0  0  0  0  0  0  0
    9.9714   11.4896   24.0493 C   0  0  1  0  0  0  0  0  0  0  0  0
   10.3776   18.0016   22.8236 C   0  0  0  0  0  0  0  0  0  0  0  0
   12.3743   14.3291   21.3770 C   0  0  0  0  0  0  0  0  0  0  0  0
   10.8984   14.3956   21.7860 C   0  0  2  0  0  0  0  0  0  0  0  0
   12.4069   15.8550   18.0252 N   0  0  0  0  0  0  0  0  0  0  0  0
   10.2880   12.3719   22.9467 N   0  0  0  0  0  0  0  0  0  0  0  0
   10.4382   15.7522   21.9450 N   0  0  0  0  0  0  0  0  0  0  0  0
   11.9634   16.4321   23.5688 O   0  0  0  0  0  0  0  0  0  0  0  0
   10.8143   14.2517   24.2041 O   0  0  0  0  0  0  0  0  0  0  0  0
   16.9899   16.9384   20.2455 H   0  0  0  0  0  0  0  0  0  0  0  0
    4.8172   12.2060   25.5159 H   0  0  0  0  0  0  0  0  0  0  0  0
    6.5207   13.9293   26.0390 H   0  0  0  0  0  0  0  0  0  0  0  0
   16.6239   17.8025   17.9631 H   0  0  0  0  0  0  0  0  0  0  0  0
   15.2368   15.6207   21.3962 H   0  0  0  0  0  0  0  0  0  0  0  0
    5.4653   10.1414   24.3330 H   0  0  0  0  0  0  0  0  0  0  0  0
    8.8709   13.5897   25.3778 H   0  0  0  0  0  0  0  0  0  0  0  0
   14.4818   17.3668   16.7706 H   0  0  0  0  0  0  0  0  0  0  0  0
   10.7903   14.7421   18.8588 H   0  0  0  0  0  0  0  0  0  0  0  0
    7.9214    8.5973   24.2319 H   0  0  0  0  0  0  0  0  0  0  0  0
    7.1492    9.1307   22.7318 H   0  0  0  0  0  0  0  0  0  0  0  0
    9.5689    8.4092   22.4944 H   0  0  0  0  0  0  0  0  0  0  0  0
    9.2040   10.0066   21.8491 H   0  0  0  0  0  0  0  0  0  0  0  0
   10.3879    9.4463   24.6162 H   0  0  0  0  0  0  0  0  0  0  0  0
   11.3178    9.9871   23.2280 H   0  0  0  0  0  0  0  0  0  0  0  0
   10.6190   11.8004   24.8811 H   0  0  0  0  0  0  0  0  0  0  0  0
    9.5551   18.0797   23.5527 H   0  0  0  0  0  0  0  0  0  0  0  0
   11.0854   18.8007   23.0965 H   0  0  0  0  0  0  0  0  0  0  0  0
    9.9426   18.3163   21.8615 H   0  0  0  0  0  0  0  0  0  0  0  0
   12.7018   13.2832   21.3029 H   0  0  0  0  0  0  0  0  0  0  0  0
   13.0083   14.7748   22.1549 H   0  0  0  0  0  0  0  0  0  0  0  0
   10.2545   13.9342   21.0280 H   0  0  0  0  0  0  0  0  0  0  0  0
   12.0010   16.0759   17.1263 H   0  0  0  0  0  0  0  0  0  0  0  0
   10.2154   12.0097   22.0026 H   0  0  0  0  0  0  0  0  0  0  0  0
    9.6504   16.0644   21.3819 H   0  0  0  0  0  0  0  0  0  0  0  0
  1  4  2  0  0  0  0
  1  5  1  0  0  0  0
  2  3  2  0  0  0  0
  2  6  1  0  0  0  0
  3  7  1  0  0  0  0
  4  8  1  0  0  0  0
  5 10  2  0  0  0  0
  6 11  2  0  0  0  0
  7 12  2  0  0  0  0
  8 14  2  0  0  0  0
  9 13  2  0  0  0  0
  9 24  1  0  0  0  0
 10 13  1  0  0  0  0
 10 14  1  0  0  0  0
 11 12  1  0  0  0  0
 11 17  1  0  0  0  0
 12 20  1  0  0  0  0
 13 22  1  0  0  0  0
 14 24  1  0  0  0  0
 15 21  1  0  0  0  0
 15 26  1  0  0  0  0
 15 27  2  0  0  0  0
 16 23  1  0  0  0  0
 16 25  1  0  0  0  0
 16 28  2  0  0  0  0
 17 18  1  0  0  0  0
 18 19  1  0  0  0  0
 19 20  1  0  0  0  0
 20 25  1  0  0  0  0
 22 23  1  0  0  0  0
 23 26  1  1  0  0  0
  1 29  1  0  0  0  0
  2 30  1  0  0  0  0
  3 31  1  0  0  0  0
  4 32  1  0  0  0  0
  5 33  1  0  0  0  0
  6 34  1  0  0  0  0
  7 35  1  0  0  0  0
  8 36  1  0  0  0  0
  9 37  1  0  0  0  0
 17 38  1  0  0  0  0
 17 39  1  0  0  0  0
 18 40  1  0  0  0  0
 18 41  1  0  0  0  0
 19 42  1  0  0  0  0
 19 43  1  0  0  0  0
 20 44  1  0  0  0  0
 21 45  1  0  0  0  0
 21 46  1  0  0  0  0
 21 47  1  0  0  0  0
 22 48  1  0  0  0  0
 22 49  1  0  0  0  0
 23 50  1  0  0  0  0
 24 51  1  0  0  0  0
 25 52  1  0  0  0  0
 26 53  1  0  0  0  0
M  END
> <Catalog ID>
Z99131276

> <PlateID>
1041831-R-12

> <Well>
F07

> <MW (desalted)>
375.464

> <ClogP>
2.926

> <HBD>
3

> <TPSA>
73.990

> <RotBonds>
5

> <ROCS_ShapeQuery>
A71EV2A-x0451_0A_A71EV2A-x0310_0A_A71EV2A-x0416_0A_peptide

> <ROCS_TanimotoCombo>
0.522 

> <ROCS_ShapeTanimoto>
0.353 

> <ROCS_ColorTanimoto>
0.170 

> <ROCS_RefTversky>
0.319 

> <ROCS_RefColorTversky>
0.193 

> <ROCS_RefTverskyCombo>
0.513 

> <ROCS_FitTversky>
1.417 

> <ROCS_FitColorTversky>
0.581 

> <ROCS_FitTverskyCombo>
1.999 

> <ROCS_ColorScore>
-5.906

> <ROCS_Overlap>
2223.126

> <ROCS_Rank>
306                 

$$$$
untitled-dbase-3052_361
  -OEChem-11132311063D

 47 50  0     1  0  0  0  0  0999 V2000
   13.8682   16.5673   18.1444 C   0  0  0  0  0  0  0  0  0  0  0  0
   12.5734   16.0784   18.3177 C   0  0  0  0  0  0  0  0  0  0  0  0
   14.7065   16.7282   19.2476 C   0  0  0  0  0  0  0  0  0  0  0  0
   12.1168   15.7506   19.5943 C   0  0  0  0  0  0  0  0  0  0  0  0
   14.2499   16.4004   20.5242 C   0  0  0  0  0  0  0  0  0  0  0  0
   11.7202   14.5078   23.7082 C   0  0  0  0  0  0  0  0  0  0  0  0
    7.8531   12.6792   24.7746 C   0  0  0  0  0  0  0  0  0  0  0  0
    8.8525    8.9354   23.7403 C   0  0  0  0  0  0  0  0  0  0  0  0
    8.4077   11.5079   24.2259 C   0  0  0  0  0  0  0  0  0  0  0  0
   12.9550   15.9116   20.6976 C   0  0  0  0  0  0  0  0  0  0  0  0
   11.9789   15.8630   23.9879 C   0  0  0  0  0  0  0  0  0  0  0  0
   12.0682   14.3571   22.3881 C   0  0  0  0  0  0  0  0  0  0  0  0
    7.7139   10.4816   24.8427 C   0  0  0  0  0  0  0  0  0  0  0  0
    9.3857   11.1462   23.3055 C   0  0  0  0  0  0  0  0  0  0  0  0
   11.7806   16.5686   25.2650 C   0  0  0  0  0  0  0  0  0  0  0  0
   12.3432   11.4908   23.4129 C   0  0  0  0  0  0  0  0  0  0  0  0
    5.8745   10.4251   26.5511 C   0  0  0  0  0  0  0  0  0  0  0  0
   12.0228   13.1415   21.4937 C   0  0  0  0  0  0  0  0  0  0  0  0
   11.4990   11.8768   22.1983 C   0  0  2  0  0  0  0  0  0  0  0  0
    6.8882   12.4255   25.6654 N   0  0  0  0  0  0  0  0  0  0  0  0
    7.8810    9.1636   24.6502 N   0  0  0  0  0  0  0  0  0  0  0  0
    9.6078    9.8322   23.0624 N   0  0  0  0  0  0  0  0  0  0  0  0
   12.4547   16.5260   22.9305 N   0  0  0  0  0  0  0  0  0  0  0  0
   12.4978   15.5834   21.9736 N   0  0  0  0  0  0  0  0  0  0  0  0
    6.8259   11.0810   25.6855 N   0  0  0  0  0  0  0  0  0  0  0  0
   10.1214   12.1008   22.6464 N   0  0  0  0  0  0  0  0  0  0  0  0
   14.2249   16.8210   17.1505 H   0  0  0  0  0  0  0  0  0  0  0  0
   11.9210   15.9518   17.4587 H   0  0  0  0  0  0  0  0  0  0  0  0
   15.7152   17.1076   19.1116 H   0  0  0  0  0  0  0  0  0  0  0  0
   11.1056   15.3698   19.7154 H   0  0  0  0  0  0  0  0  0  0  0  0
   14.9140   16.5300   21.3753 H   0  0  0  0  0  0  0  0  0  0  0  0
   11.3345   13.7463   24.3709 H   0  0  0  0  0  0  0  0  0  0  0  0
    8.1078   13.7087   24.5661 H   0  0  0  0  0  0  0  0  0  0  0  0
    9.0564    7.8925   23.5220 H   0  0  0  0  0  0  0  0  0  0  0  0
   12.6854   16.5194   25.8949 H   0  0  0  0  0  0  0  0  0  0  0  0
   11.5355   17.6358   25.1185 H   0  0  0  0  0  0  0  0  0  0  0  0
   10.9448   16.1450   25.8505 H   0  0  0  0  0  0  0  0  0  0  0  0
   12.3790   12.3100   24.1403 H   0  0  0  0  0  0  0  0  0  0  0  0
   13.3732   11.2485   23.1276 H   0  0  0  0  0  0  0  0  0  0  0  0
   11.9213   10.6214   23.9274 H   0  0  0  0  0  0  0  0  0  0  0  0
    6.3601   10.2499   27.5147 H   0  0  0  0  0  0  0  0  0  0  0  0
    4.9957   11.0637   26.6764 H   0  0  0  0  0  0  0  0  0  0  0  0
    5.5675    9.4780   26.0987 H   0  0  0  0  0  0  0  0  0  0  0  0
   11.4157   13.3574   20.6042 H   0  0  0  0  0  0  0  0  0  0  0  0
   13.0414   12.9686   21.1193 H   0  0  0  0  0  0  0  0  0  0  0  0
   11.4901   11.0324   21.4992 H   0  0  0  0  0  0  0  0  0  0  0  0
    9.7201   13.0001   22.4527 H   0  0  0  0  0  0  0  0  0  0  0  0
  1  2  2  0  0  0  0
  1  3  1  0  0  0  0
  2  4  1  0  0  0  0
  3  5  2  0  0  0  0
  4 10  2  0  0  0  0
  5 10  1  0  0  0  0
  6 11  1  0  0  0  0
  6 12  2  0  0  0  0
  7  9  1  0  0  0  0
  7 20  2  0  0  0  0
  8 21  1  0  0  0  0
  8 22  2  0  0  0  0
  9 13  1  0  0  0  0
  9 14  2  0  0  0  0
 10 24  1  0  0  0  0
 11 15  1  0  0  0  0
 11 23  2  0  0  0  0
 12 18  1  0  0  0  0
 12 24  1  0  0  0  0
 13 21  2  0  0  0  0
 13 25  1  0  0  0  0
 14 22  1  0  0  0  0
 14 26  1  0  0  0  0
 16 19  1  0  0  0  0
 17 25  1  0  0  0  0
 18 19  1  0  0  0  0
 19 26  1  0  0  0  0
 20 25  1  0  0  0  0
 23 24  1  0  0  0  0
  1 27  1  0  0  0  0
  2 28  1  0  0  0  0
  3 29  1  0  0  0  0
  4 30  1  0  0  0  0
  5 31  1  0  0  0  0
  6 32  1  0  0  0  0
  7 33  1  0  0  0  0
  8 34  1  0  0  0  0
 15 35  1  0  0  0  0
 15 36  1  0  0  0  0
 15 37  1  0  0  0  0
 16 38  1  0  0  0  0
 16 39  1  0  0  0  0
 16 40  1  0  0  0  0
 17 41  1  0  0  0  0
 17 42  1  0  0  0  0
 17 43  1  0  0  0  0
 18 44  1  0  0  0  0
 18 45  1  0  0  0  0
 19 46  1  0  0  0  0
 26 47  1  0  0  0  0
M  END
> <Catalog ID>
Z1478328893

> <PlateID>
1041831-R-39

> <Well>
B03

> <MW (desalted)>
347.417

> <ClogP>
2.852

> <HBD>
1

> <TPSA>
73.450

> <RotBonds>
5

> <ROCS_ShapeQuery>
A71EV2A-x0451_0A_A71EV2A-x0310_0A_A71EV2A-x0416_0A_peptide

> <ROCS_TanimotoCombo>
0.522 

> <ROCS_ShapeTanimoto>
0.371 

> <ROCS_ColorTanimoto>
0.152 

> <ROCS_RefTversky>
0.329 

> <ROCS_RefColorTversky>
0.175 

> <ROCS_RefTverskyCombo>
0.505 

> <ROCS_FitTversky>
1.508 

> <ROCS_FitColorTversky>
0.528 

> <ROCS_FitTverskyCombo>
2.036 

> <ROCS_ColorScore>
-5.363

> <ROCS_Overlap>
2291.717

> <ROCS_Rank>
307                 

$$$$
untitled-dbase-1161_2629
  -OEChem-11132311063D

 47 50  0     0  0  0  0  0  0999 V2000
    7.7612    9.4662   24.3527 C   0  0  0  0  0  0  0  0  0  0  0  0
    9.0478    9.9142   24.0534 C   0  0  0  0  0  0  0  0  0  0  0  0
    6.8051   10.3611   24.8329 C   0  0  0  0  0  0  0  0  0  0  0  0
    8.4222   12.1522   24.7148 C   0  0  0  0  0  0  0  0  0  0  0  0
    9.3783   11.2572   24.2345 C   0  0  0  0  0  0  0  0  0  0  0  0
    7.1356   11.7041   25.0140 C   0  0  0  0  0  0  0  0  0  0  0  0
   13.4655   16.5251   21.2340 C   0  0  0  0  0  0  0  0  0  0  0  0
   11.5833   15.4999   21.6628 C   0  0  0  0  0  0  0  0  0  0  0  0
   14.5538   16.9162   20.4053 C   0  0  0  0  0  0  0  0  0  0  0  0
   14.5937   16.4961   19.1252 C   0  0  0  0  0  0  0  0  0  0  0  0
   13.5482   15.6493   18.5676 C   0  0  0  0  0  0  0  0  0  0  0  0
   12.5201   15.2792   19.3494 C   0  0  0  0  0  0  0  0  0  0  0  0
   10.6702   13.1998   23.4722 C   0  0  0  0  0  0  0  0  0  0  0  0
   12.2967   10.1602   24.9164 C   0  0  0  0  0  0  0  0  0  0  0  0
   12.2382    9.8548   23.4214 C   0  0  0  0  0  0  0  0  0  0  0  0
   11.7592   11.5801   25.0734 C   0  0  0  0  0  0  0  0  0  0  0  0
   11.5470   11.0533   22.7703 C   0  0  0  0  0  0  0  0  0  0  0  0
   10.7789   11.7445   23.9070 C   0  0  0  0  0  0  0  0  0  0  0  0
   10.3474   14.6652   21.4895 C   0  0  0  0  0  0  0  0  0  0  0  0
    6.1133   12.6609   25.5282 C   0  0  0  0  0  0  0  0  0  0  0  0
   13.1522   16.7666   22.4892 N   0  0  0  0  0  0  0  0  0  0  0  0
   11.9630   16.1185   22.7588 N   0  0  0  0  0  0  0  0  0  0  0  0
   12.4908   15.7193   20.6665 N   0  0  0  0  0  0  0  0  0  0  0  0
   10.4785   13.3684   22.1142 N   0  0  0  0  0  0  0  0  0  0  0  0
   10.7537   14.0890   24.3113 O   0  0  0  0  0  0  0  0  0  0  0  0
    4.9007   12.0840   25.7783 F   0  0  0  0  0  0  0  0  0  0  0  0
    6.4697   13.2634   26.7009 F   0  0  0  0  0  0  0  0  0  0  0  0
    5.8612   13.6791   24.6550 F   0  0  0  0  0  0  0  0  0  0  0  0
    7.5039    8.4204   24.2115 H   0  0  0  0  0  0  0  0  0  0  0  0
    9.7861    9.2097   23.6792 H   0  0  0  0  0  0  0  0  0  0  0  0
    5.8054   10.0030   25.0642 H   0  0  0  0  0  0  0  0  0  0  0  0
    8.6790   13.1995   24.8552 H   0  0  0  0  0  0  0  0  0  0  0  0
   15.3363   17.5472   20.8112 H   0  0  0  0  0  0  0  0  0  0  0  0
   15.4119   16.7814   18.4730 H   0  0  0  0  0  0  0  0  0  0  0  0
   13.6237   15.3349   17.5339 H   0  0  0  0  0  0  0  0  0  0  0  0
   11.7124   14.6507   18.9957 H   0  0  0  0  0  0  0  0  0  0  0  0
   11.7211    9.4304   25.5084 H   0  0  0  0  0  0  0  0  0  0  0  0
   13.3411   10.1065   25.2696 H   0  0  0  0  0  0  0  0  0  0  0  0
   13.2345    9.6752   23.0071 H   0  0  0  0  0  0  0  0  0  0  0  0
   11.6427    8.9501   23.2535 H   0  0  0  0  0  0  0  0  0  0  0  0
   11.2474   11.6689   26.0414 H   0  0  0  0  0  0  0  0  0  0  0  0
   12.5737   12.3140   25.0617 H   0  0  0  0  0  0  0  0  0  0  0  0
   12.2859   11.7125   22.3135 H   0  0  0  0  0  0  0  0  0  0  0  0
   10.8895   10.7004   21.9742 H   0  0  0  0  0  0  0  0  0  0  0  0
    9.4785   15.1658   21.9307 H   0  0  0  0  0  0  0  0  0  0  0  0
   10.1268   14.5052   20.4289 H   0  0  0  0  0  0  0  0  0  0  0  0
   10.4273   12.5415   21.5268 H   0  0  0  0  0  0  0  0  0  0  0  0
  1  2  2  0  0  0  0
  1  3  1  0  0  0  0
  2  5  1  0  0  0  0
  3  6  2  0  0  0  0
  4  5  2  0  0  0  0
  4  6  1  0  0  0  0
  5 18  1  0  0  0  0
  6 20  1  0  0  0  0
  7  9  1  0  0  0  0
  7 21  2  0  0  0  0
  7 23  1  0  0  0  0
  8 19  1  0  0  0  0
  8 22  2  0  0  0  0
  8 23  1  0  0  0  0
  9 10  2  0  0  0  0
 10 11  1  0  0  0  0
 11 12  2  0  0  0  0
 12 23  1  0  0  0  0
 13 18  1  0  0  0  0
 13 24  1  0  0  0  0
 13 25  2  0  0  0  0
 14 15  1  0  0  0  0
 14 16  1  0  0  0  0
 15 17  1  0  0  0  0
 16 18  1  0  0  0  0
 17 18  1  0  0  0  0
 19 24  1  0  0  0  0
 20 26  1  0  0  0  0
 20 27  1  0  0  0  0
 20 28  1  0  0  0  0
 21 22  1  0  0  0  0
  1 29  1  0  0  0  0
  2 30  1  0  0  0  0
  3 31  1  0  0  0  0
  4 32  1  0  0  0  0
  9 33  1  0  0  0  0
 10 34  1  0  0  0  0
 11 35  1  0  0  0  0
 12 36  1  0  0  0  0
 14 37  1  0  0  0  0
 14 38  1  0  0  0  0
 15 39  1  0  0  0  0
 15 40  1  0  0  0  0
 16 41  1  0  0  0  0
 16 42  1  0  0  0  0
 17 43  1  0  0  0  0
 17 44  1  0  0  0  0
 19 45  1  0  0  0  0
 19 46  1  0  0  0  0
 24 47  1  0  0  0  0
M  END
> <Catalog ID>
Z192908000

> <PlateID>
1041831-R-15

> <Well>
E02

> <MW (desalted)>
388.386

> <ClogP>
3.231

> <HBD>
1

> <TPSA>
59.290

> <RotBonds>
5

> <ROCS_ShapeQuery>
A71EV2A-x0451_0A_A71EV2A-x0310_0A_A71EV2A-x0416_0A_peptide

> <ROCS_TanimotoCombo>
0.522 

> <ROCS_ShapeTanimoto>
0.358 

> <ROCS_ColorTanimoto>
0.164 

> <ROCS_RefTversky>
0.324 

> <ROCS_RefColorTversky>
0.185 

> <ROCS_RefTverskyCombo>
0.509 

> <ROCS_FitTversky>
1.410 

> <ROCS_FitColorTversky>
0.594 

> <ROCS_FitTverskyCombo>
2.005 

> <ROCS_ColorScore>
-5.638

> <ROCS_Overlap>
2257.907

> <ROCS_Rank>
308                 

$$$$
untitled-dbase-1122_1116
  -OEChem-11132311063D

 42 44  0     1  0  0  0  0  0999 V2000
    6.8965   12.5653   25.9380 C   0  0  0  0  0  0  0  0  0  0  0  0
    6.3998   11.2968   26.2312 C   0  0  0  0  0  0  0  0  0  0  0  0
    7.9633   12.7284   25.0468 C   0  0  0  0  0  0  0  0  0  0  0  0
    6.9509   10.1537   25.6453 C   0  0  0  0  0  0  0  0  0  0  0  0
   12.0965   15.5365   19.7925 C   0  0  0  0  0  0  0  0  0  0  0  0
   14.1438   15.2835   21.0291 C   0  0  0  0  0  0  0  0  0  0  0  0
   12.8142   16.2655   18.8580 C   0  0  0  0  0  0  0  0  0  0  0  0
   14.7699   16.0236   20.0391 C   0  0  0  0  0  0  0  0  0  0  0  0
    9.7016   10.0338   23.2924 C   0  0  0  0  0  0  0  0  0  0  0  0
    8.5352   11.5906   24.4438 C   0  0  0  0  0  0  0  0  0  0  0  0
    9.5974   11.3868   23.5190 C   0  0  0  0  0  0  0  0  0  0  0  0
    8.0169   10.3320   24.7563 C   0  0  0  0  0  0  0  0  0  0  0  0
   12.7814   15.0397   20.8959 C   0  0  0  0  0  0  0  0  0  0  0  0
   10.3363   15.1006   24.4021 C   0  0  0  0  0  0  0  0  0  0  0  0
   12.6162   13.7372   23.0456 C   0  0  0  0  0  0  0  0  0  0  0  0
    9.8548   15.9330   25.5438 C   0  0  0  0  0  0  0  0  0  0  0  0
   10.4436   12.4314   22.9071 C   0  0  0  0  0  0  0  0  0  0  0  0
   11.5383   12.9975   23.8411 C   0  0  2  0  0  0  0  0  0  0  0  0
   14.1380   16.5227   18.9532 N   0  0  0  0  0  0  0  0  0  0  0  0
    8.7440    9.4059   24.0429 N   0  0  0  0  0  0  0  0  0  0  0  0
   12.0948   14.2891   21.8790 N   0  0  0  0  0  0  0  0  0  0  0  0
   10.9942   13.9450   24.7832 N   0  0  0  0  0  0  0  0  0  0  0  0
   10.1284   15.4726   23.2532 O   0  0  0  0  0  0  0  0  0  0  0  0
   13.7668   13.8389   23.4629 O   0  0  0  0  0  0  0  0  0  0  0  0
    6.4511   13.4392   26.4058 H   0  0  0  0  0  0  0  0  0  0  0  0
    5.5706   11.1933   26.9264 H   0  0  0  0  0  0  0  0  0  0  0  0
    8.3386   13.7241   24.8279 H   0  0  0  0  0  0  0  0  0  0  0  0
    6.5643    9.1667   25.8749 H   0  0  0  0  0  0  0  0  0  0  0  0
   11.0337   15.3647   19.6580 H   0  0  0  0  0  0  0  0  0  0  0  0
   14.7084   14.9108   21.8773 H   0  0  0  0  0  0  0  0  0  0  0  0
   12.3269   16.6749   17.9792 H   0  0  0  0  0  0  0  0  0  0  0  0
   15.8314   16.2408   20.0958 H   0  0  0  0  0  0  0  0  0  0  0  0
   10.3695    9.4609   22.6640 H   0  0  0  0  0  0  0  0  0  0  0  0
   10.6035   16.6726   25.8703 H   0  0  0  0  0  0  0  0  0  0  0  0
    8.9583   16.5201   25.2874 H   0  0  0  0  0  0  0  0  0  0  0  0
    9.5841   15.3737   26.4537 H   0  0  0  0  0  0  0  0  0  0  0  0
    9.8088   13.2721   22.5607 H   0  0  0  0  0  0  0  0  0  0  0  0
   10.9263   12.0633   21.9784 H   0  0  0  0  0  0  0  0  0  0  0  0
   11.9918   12.1988   24.4387 H   0  0  0  0  0  0  0  0  0  0  0  0
    8.5922    8.4071   24.0700 H   0  0  0  0  0  0  0  0  0  0  0  0
   11.1010   14.1576   21.7043 H   0  0  0  0  0  0  0  0  0  0  0  0
   11.0995   13.7539   25.7763 H   0  0  0  0  0  0  0  0  0  0  0  0
  1  2  2  0  0  0  0
  1  3  1  0  0  0  0
  2  4  1  0  0  0  0
  3 10  2  0  0  0  0
  4 12  2  0  0  0  0
  5  7  1  0  0  0  0
  5 13  2  0  0  0  0
  6  8  2  0  0  0  0
  6 13  1  0  0  0  0
  7 19  2  0  0  0  0
  8 19  1  0  0  0  0
  9 11  2  0  0  0  0
  9 20  1  0  0  0  0
 10 11  1  0  0  0  0
 10 12  1  0  0  0  0
 11 17  1  0  0  0  0
 12 20  1  0  0  0  0
 13 21  1  0  0  0  0
 14 16  1  0  0  0  0
 14 22  1  0  0  0  0
 14 23  2  0  0  0  0
 15 18  1  0  0  0  0
 15 21  1  0  0  0  0
 15 24  2  0  0  0  0
 17 18  1  0  0  0  0
 18 22  1  0  0  0  0
  1 25  1  0  0  0  0
  2 26  1  0  0  0  0
  3 27  1  0  0  0  0
  4 28  1  0  0  0  0
  5 29  1  0  0  0  0
  6 30  1  0  0  0  0
  7 31  1  0  0  0  0
  8 32  1  0  0  0  0
  9 33  1  0  0  0  0
 16 34  1  0  0  0  0
 16 35  1  0  0  0  0
 16 36  1  0  0  0  0
 17 37  1  0  0  0  0
 17 38  1  0  0  0  0
 18 39  1  0  0  0  0
 20 40  1  0  0  0  0
 21 41  1  0  0  0  0
 22 42  1  0  0  0  0
M  END
> <Catalog ID>
Z85518142

> <PlateID>
1041831-R-15

> <Well>
A03

> <MW (desalted)>
322.361

> <ClogP>
1.258

> <HBD>
3

> <TPSA>
86.880

> <RotBonds>
5

> <ROCS_ShapeQuery>
A71EV2A-x0451_0A_A71EV2A-x0310_0A_A71EV2A-x0416_0A_peptide

> <ROCS_TanimotoCombo>
0.522 

> <ROCS_ShapeTanimoto>
0.358 

> <ROCS_ColorTanimoto>
0.164 

> <ROCS_RefTversky>
0.317 

> <ROCS_RefColorTversky>
0.188 

> <ROCS_RefTverskyCombo>
0.504 

> <ROCS_FitTversky>
1.572 

> <ROCS_FitColorTversky>
0.565 

> <ROCS_FitTverskyCombo>
2.137 

> <ROCS_ColorScore>
-5.737

> <ROCS_Overlap>
2202.214

> <ROCS_Rank>
309                 

$$$$
untitled-dbase-1268_11380
  -OEChem-11132311063D

 45 47  0     0  0  0  0  0  0999 V2000
   13.8242   16.3815   18.4894 C   0  0  0  0  0  0  0  0  0  0  0  0
   14.1276   16.8359   19.7728 C   0  0  0  0  0  0  0  0  0  0  0  0
   12.7181   15.5566   18.2849 C   0  0  0  0  0  0  0  0  0  0  0  0
   13.3251   16.4652   20.8517 C   0  0  0  0  0  0  0  0  0  0  0  0
    5.3516   13.0827   28.5718 C   0  0  0  0  0  0  0  0  0  0  0  0
    4.0458   12.8276   28.9210 C   0  0  0  0  0  0  0  0  0  0  0  0
    9.2639    9.9411   23.0870 C   0  0  0  0  0  0  0  0  0  0  0  0
    5.5330   12.5156   27.2878 C   0  0  0  0  0  0  0  0  0  0  0  0
   11.9156   15.1859   19.3639 C   0  0  0  0  0  0  0  0  0  0  0  0
   12.2190   15.6402   20.6473 C   0  0  0  0  0  0  0  0  0  0  0  0
    9.7887   11.1202   23.5731 C   0  0  0  0  0  0  0  0  0  0  0  0
    4.3253   11.9541   26.9440 C   0  0  0  0  0  0  0  0  0  0  0  0
    7.9251   11.0874   24.7290 C   0  0  0  0  0  0  0  0  0  0  0  0
    6.7487   12.5062   26.4562 C   0  0  0  0  0  0  0  0  0  0  0  0
   11.1143   13.2457   23.2535 C   0  0  0  0  0  0  0  0  0  0  0  0
   10.7358   14.3028   19.1210 C   0  0  0  0  0  0  0  0  0  0  0  0
    3.8500   11.2217   25.7603 C   0  0  0  0  0  0  0  0  0  0  0  0
   11.3749   15.2561   21.8180 C   0  0  0  0  0  0  0  0  0  0  0  0
   11.1031   11.7317   23.1659 C   0  0  0  0  0  0  0  0  0  0  0  0
    9.0222   11.7791   24.5145 N   0  0  0  0  0  0  0  0  0  0  0  0
    6.8993   11.3874   25.5857 N   0  0  0  0  0  0  0  0  0  0  0  0
   11.3247   13.8297   22.0099 N   0  0  0  0  0  0  0  0  0  0  0  0
    7.5851   13.4023   26.5482 O   0  0  0  0  0  0  0  0  0  0  0  0
   10.9519   13.8655   24.3015 O   0  0  0  0  0  0  0  0  0  0  0  0
    3.4134   12.1399   27.9342 O   0  0  0  0  0  0  0  0  0  0  0  0
    7.7506    9.6341   23.8332 S   0  0  0  0  0  0  0  0  0  0  0  0
   14.4497   16.6697   17.6498 H   0  0  0  0  0  0  0  0  0  0  0  0
   14.9893   17.4779   19.9313 H   0  0  0  0  0  0  0  0  0  0  0  0
   12.4912   15.2066   17.2813 H   0  0  0  0  0  0  0  0  0  0  0  0
   13.5695   16.8247   21.8479 H   0  0  0  0  0  0  0  0  0  0  0  0
    6.0786   13.6120   29.1712 H   0  0  0  0  0  0  0  0  0  0  0  0
    3.4460   13.0560   29.7898 H   0  0  0  0  0  0  0  0  0  0  0  0
    9.6809    9.2647   22.3542 H   0  0  0  0  0  0  0  0  0  0  0  0
   11.0246   13.2494   19.2125 H   0  0  0  0  0  0  0  0  0  0  0  0
    9.9322   14.5087   19.8388 H   0  0  0  0  0  0  0  0  0  0  0  0
   10.3186   14.4654   18.1195 H   0  0  0  0  0  0  0  0  0  0  0  0
    4.0090   10.1345   25.8691 H   0  0  0  0  0  0  0  0  0  0  0  0
    2.7723   11.3813   25.5737 H   0  0  0  0  0  0  0  0  0  0  0  0
    4.3651   11.5405   24.8357 H   0  0  0  0  0  0  0  0  0  0  0  0
   11.7603   15.7019   22.7447 H   0  0  0  0  0  0  0  0  0  0  0  0
   10.3419   15.6088   21.7002 H   0  0  0  0  0  0  0  0  0  0  0  0
   11.9055   11.3348   23.8007 H   0  0  0  0  0  0  0  0  0  0  0  0
   11.3452   11.4384   22.1365 H   0  0  0  0  0  0  0  0  0  0  0  0
    6.1203   10.7022   25.6036 H   0  0  0  0  0  0  0  0  0  0  0  0
   11.4483   13.2242   21.2014 H   0  0  0  0  0  0  0  0  0  0  0  0
  1  2  2  0  0  0  0
  1  3  1  0  0  0  0
  2  4  1  0  0  0  0
  3  9  2  0  0  0  0
  4 10  2  0  0  0  0
  5  6  2  0  0  0  0
  5  8  1  0  0  0  0
  6 25  1  0  0  0  0
  7 11  2  0  0  0  0
  7 26  1  0  0  0  0
  8 12  2  0  0  0  0
  8 14  1  0  0  0  0
  9 10  1  0  0  0  0
  9 16  1  0  0  0  0
 10 18  1  0  0  0  0
 11 19  1  0  0  0  0
 11 20  1  0  0  0  0
 12 17  1  0  0  0  0
 12 25  1  0  0  0  0
 13 20  2  0  0  0  0
 13 21  1  0  0  0  0
 13 26  1  0  0  0  0
 14 21  1  0  0  0  0
 14 23  2  0  0  0  0
 15 19  1  0  0  0  0
 15 22  1  0  0  0  0
 15 24  2  0  0  0  0
 18 22  1  0  0  0  0
  1 27  1  0  0  0  0
  2 28  1  0  0  0  0
  3 29  1  0  0  0  0
  4 30  1  0  0  0  0
  5 31  1  0  0  0  0
  6 32  1  0  0  0  0
  7 33  1  0  0  0  0
 16 34  1  0  0  0  0
 16 35  1  0  0  0  0
 16 36  1  0  0  0  0
 17 37  1  0  0  0  0
 17 38  1  0  0  0  0
 17 39  1  0  0  0  0
 18 40  1  0  0  0  0
 18 41  1  0  0  0  0
 19 42  1  0  0  0  0
 19 43  1  0  0  0  0
 21 44  1  0  0  0  0
 22 45  1  0  0  0  0
M  END
> <Catalog ID>
Z442455680

> <PlateID>
1041831-R-16

> <Well>
G09

> <MW (desalted)>
369.437

> <ClogP>
2.246

> <HBD>
2

> <TPSA>
84.230

> <RotBonds>
6

> <ROCS_ShapeQuery>
A71EV2A-x0451_0A_A71EV2A-x0310_0A_A71EV2A-x0416_0A_peptide

> <ROCS_TanimotoCombo>
0.522 

> <ROCS_ShapeTanimoto>
0.346 

> <ROCS_ColorTanimoto>
0.176 

> <ROCS_RefTversky>
0.311 

> <ROCS_RefColorTversky>
0.199 

> <ROCS_RefTverskyCombo>
0.510 

> <ROCS_FitTversky>
1.479 

> <ROCS_FitColorTversky>
0.601 

> <ROCS_FitTverskyCombo>
2.079 

> <ROCS_ColorScore>
-6.088

> <ROCS_Overlap>
2165.017

> <ROCS_Rank>
310                 

$$$$
untitled-dbase-1025_3322
  -OEChem-11132311063D

 49 51  0     0  0  0  0  0  0999 V2000
    6.7249   10.5877   25.2606 C   0  0  0  0  0  0  0  0  0  0  0  0
    5.9090   11.5756   25.8099 C   0  0  0  0  0  0  0  0  0  0  0  0
    7.4286   13.2813   25.0156 C   0  0  0  0  0  0  0  0  0  0  0  0
   13.9233   15.4342   18.8939 C   0  0  0  0  0  0  0  0  0  0  0  0
    7.8942   10.9555   24.5886 C   0  0  0  0  0  0  0  0  0  0  0  0
    8.2597   12.3037   24.4581 C   0  0  0  0  0  0  0  0  0  0  0  0
    6.2595   12.9195   25.6880 C   0  0  0  0  0  0  0  0  0  0  0  0
   14.0022   16.6808   19.5432 C   0  0  0  0  0  0  0  0  0  0  0  0
   12.6772   14.9563   19.2185 C   0  0  0  0  0  0  0  0  0  0  0  0
    8.7748    9.9243   23.9979 C   0  0  0  0  0  0  0  0  0  0  0  0
   10.1783   11.7768   23.2819 C   0  0  0  0  0  0  0  0  0  0  0  0
   11.5772   14.5973   22.6581 C   0  0  0  0  0  0  0  0  0  0  0  0
   15.1307   17.6269   19.5351 C   0  0  0  0  0  0  0  0  0  0  0  0
   11.9947   13.7024   18.8502 C   0  0  0  0  0  0  0  0  0  0  0  0
   12.1992   13.1142   25.5529 C   0  0  0  0  0  0  0  0  0  0  0  0
   11.4461   12.1150   22.5551 C   0  0  0  0  0  0  0  0  0  0  0  0
   10.5884   14.6387   21.5012 C   0  0  0  0  0  0  0  0  0  0  0  0
   10.7800   15.8681   20.6141 C   0  0  0  0  0  0  0  0  0  0  0  0
   12.9084   13.1570   24.2422 C   0  0  0  0  0  0  0  0  0  0  0  0
   12.8944   16.9765   20.2282 N   0  0  0  0  0  0  0  0  0  0  0  0
    9.4301   12.7056   23.7876 N   0  0  0  0  0  0  0  0  0  0  0  0
   12.1076   15.9088   20.0112 N   0  0  0  0  0  0  0  0  0  0  0  0
    9.8979   10.4285   23.3623 N   0  0  0  0  0  0  0  0  0  0  0  0
   11.9593   13.3239   23.1302 N   0  0  0  0  0  0  0  0  0  0  0  0
    8.5078    8.7312   24.0802 O   0  0  0  0  0  0  0  0  0  0  0  0
   12.0126   15.6438   23.1456 O   0  0  0  0  0  0  0  0  0  0  0  0
    5.2492   14.1348   26.3703 Cl  0  0  0  0  0  0  0  0  0  0  0  0
    6.4368    9.5454   25.3638 H   0  0  0  0  0  0  0  0  0  0  0  0
    5.0010   11.2828   26.3312 H   0  0  0  0  0  0  0  0  0  0  0  0
    7.7005   14.3309   24.9224 H   0  0  0  0  0  0  0  0  0  0  0  0
   14.6661   14.9488   18.2773 H   0  0  0  0  0  0  0  0  0  0  0  0
   15.0473   18.3431   18.6996 H   0  0  0  0  0  0  0  0  0  0  0  0
   15.1910   18.2125   20.4698 H   0  0  0  0  0  0  0  0  0  0  0  0
   16.1044   17.1141   19.4371 H   0  0  0  0  0  0  0  0  0  0  0  0
   12.2026   12.9049   19.5832 H   0  0  0  0  0  0  0  0  0  0  0  0
   10.8992   13.8267   18.7940 H   0  0  0  0  0  0  0  0  0  0  0  0
   12.3093   13.3341   17.8580 H   0  0  0  0  0  0  0  0  0  0  0  0
   11.4921   12.2716   25.5604 H   0  0  0  0  0  0  0  0  0  0  0  0
   12.9326   12.9845   26.3624 H   0  0  0  0  0  0  0  0  0  0  0  0
   11.6497   14.0552   25.7032 H   0  0  0  0  0  0  0  0  0  0  0  0
   11.2149   12.2534   21.5005 H   0  0  0  0  0  0  0  0  0  0  0  0
   12.1491   11.2939   22.6833 H   0  0  0  0  0  0  0  0  0  0  0  0
   10.7190   13.7324   20.8983 H   0  0  0  0  0  0  0  0  0  0  0  0
    9.5716   14.6416   21.9111 H   0  0  0  0  0  0  0  0  0  0  0  0
   10.6443   16.7934   21.1874 H   0  0  0  0  0  0  0  0  0  0  0  0
   10.0430   15.8883   19.8017 H   0  0  0  0  0  0  0  0  0  0  0  0
   13.6131   14.0016   24.2427 H   0  0  0  0  0  0  0  0  0  0  0  0
   13.4627   12.2171   24.1031 H   0  0  0  0  0  0  0  0  0  0  0  0
   10.5465    9.7734   22.9347 H   0  0  0  0  0  0  0  0  0  0  0  0
  1  2  1  0  0  0  0
  1  5  2  0  0  0  0
  2  7  2  0  0  0  0
  3  6  2  0  0  0  0
  3  7  1  0  0  0  0
  4  8  1  0  0  0  0
  4  9  2  0  0  0  0
  5  6  1  0  0  0  0
  5 10  1  0  0  0  0
  6 21  1  0  0  0  0
  7 27  1  0  0  0  0
  8 13  1  0  0  0  0
  8 20  2  0  0  0  0
  9 14  1  0  0  0  0
  9 22  1  0  0  0  0
 10 23  1  0  0  0  0
 10 25  2  0  0  0  0
 11 16  1  0  0  0  0
 11 21  2  0  0  0  0
 11 23  1  0  0  0  0
 12 17  1  0  0  0  0
 12 24  1  0  0  0  0
 12 26  2  0  0  0  0
 15 19  1  0  0  0  0
 16 24  1  0  0  0  0
 17 18  1  0  0  0  0
 18 22  1  0  0  0  0
 19 24  1  0  0  0  0
 20 22  1  0  0  0  0
  1 28  1  0  0  0  0
  2 29  1  0  0  0  0
  3 30  1  0  0  0  0
  4 31  1  0  0  0  0
 13 32  1  0  0  0  0
 13 33  1  0  0  0  0
 13 34  1  0  0  0  0
 14 35  1  0  0  0  0
 14 36  1  0  0  0  0
 14 37  1  0  0  0  0
 15 38  1  0  0  0  0
 15 39  1  0  0  0  0
 15 40  1  0  0  0  0
 16 41  1  0  0  0  0
 16 42  1  0  0  0  0
 17 43  1  0  0  0  0
 17 44  1  0  0  0  0
 18 45  1  0  0  0  0
 18 46  1  0  0  0  0
 19 47  1  0  0  0  0
 19 48  1  0  0  0  0
 23 49  1  0  0  0  0
M  END
> <Catalog ID>
Z278057688

> <PlateID>
1041831-R-13

> <Well>
G06

> <MW (desalted)>
387.863

> <ClogP>
1.606

> <HBD>
1

> <TPSA>
79.590

> <RotBonds>
6

> <ROCS_ShapeQuery>
A71EV2A-x0451_0A_A71EV2A-x0310_0A_A71EV2A-x0416_0A_peptide

> <ROCS_TanimotoCombo>
0.522 

> <ROCS_ShapeTanimoto>
0.394 

> <ROCS_ColorTanimoto>
0.128 

> <ROCS_RefTversky>
0.345 

> <ROCS_RefColorTversky>
0.147 

> <ROCS_RefTverskyCombo>
0.492 

> <ROCS_FitTversky>
1.574 

> <ROCS_FitColorTversky>
0.490 

> <ROCS_FitTverskyCombo>
2.064 

> <ROCS_ColorScore>
-4.500

> <ROCS_Overlap>
2397.319

> <ROCS_Rank>
311                 

$$$$
untitled-dbase-1660_410
  -OEChem-11132311063D

 45 48  0     1  0  0  0  0  0999 V2000
   10.9604   17.6925   19.5459 C   0  0  0  0  0  0  0  0  0  0  0  0
   10.6305   17.4735   20.8834 C   0  0  0  0  0  0  0  0  0  0  0  0
   10.6010   16.7561   18.5766 C   0  0  0  0  0  0  0  0  0  0  0  0
    9.9413   16.3181   21.2516 C   0  0  0  0  0  0  0  0  0  0  0  0
    9.9118   15.6006   18.9448 C   0  0  0  0  0  0  0  0  0  0  0  0
    9.7502   10.5872   23.4437 C   0  0  0  0  0  0  0  0  0  0  0  0
    8.1933   12.1080   24.4568 C   0  0  0  0  0  0  0  0  0  0  0  0
    7.7545    7.7581   24.0593 C   0  0  0  0  0  0  0  0  0  0  0  0
    9.4039   11.8889   23.8069 C   0  0  0  0  0  0  0  0  0  0  0  0
    9.5819   15.3816   20.2823 C   0  0  0  0  0  0  0  0  0  0  0  0
    8.8417    9.5697   23.7624 C   0  0  0  0  0  0  0  0  0  0  0  0
    7.6696    9.9295   24.4131 C   0  0  0  0  0  0  0  0  0  0  0  0
   10.3068   13.0113   23.5067 C   0  0  0  0  0  0  0  0  0  0  0  0
   12.9959   12.8256   21.7147 C   0  0  0  0  0  0  0  0  0  0  0  0
   13.4246   12.6110   23.1523 C   0  0  0  0  0  0  0  0  0  0  0  0
   12.4328   14.7169   22.9953 C   0  0  0  0  0  0  0  0  0  0  0  0
   11.9132   13.8713   21.8473 C   0  0  2  0  0  0  0  0  0  0  0  0
    8.8365   14.1313   20.6799 C   0  0  0  0  0  0  0  0  0  0  0  0
    9.7646   12.9703   21.0289 C   0  0  0  0  0  0  0  0  0  0  0  0
    7.2824   11.1602   24.7869 N   0  0  0  0  0  0  0  0  0  0  0  0
    8.8794    8.2131   23.5493 N   0  0  0  0  0  0  0  0  0  0  0  0
    6.9884    8.7591   24.5938 N   0  0  0  0  0  0  0  0  0  0  0  0
   10.6401   13.2719   22.1667 N   0  0  0  0  0  0  0  0  0  0  0  0
   10.7028   13.6645   24.4713 O   0  0  0  0  0  0  0  0  0  0  0  0
   13.1980   13.8464   23.8445 O   0  0  0  0  0  0  0  0  0  0  0  0
   11.4959   18.5929   19.2592 H   0  0  0  0  0  0  0  0  0  0  0  0
   10.9094   18.2031   21.6381 H   0  0  0  0  0  0  0  0  0  0  0  0
   10.8566   16.9267   17.5350 H   0  0  0  0  0  0  0  0  0  0  0  0
    9.6887   16.1557   22.2961 H   0  0  0  0  0  0  0  0  0  0  0  0
    9.6359   14.8765   18.1827 H   0  0  0  0  0  0  0  0  0  0  0  0
   10.6831   10.3668   22.9356 H   0  0  0  0  0  0  0  0  0  0  0  0
    7.9030   13.1148   24.7496 H   0  0  0  0  0  0  0  0  0  0  0  0
    7.4370    6.7251   24.0755 H   0  0  0  0  0  0  0  0  0  0  0  0
   13.8337   13.2429   21.1425 H   0  0  0  0  0  0  0  0  0  0  0  0
   12.6828   11.9028   21.2175 H   0  0  0  0  0  0  0  0  0  0  0  0
   12.8187   11.8387   23.6380 H   0  0  0  0  0  0  0  0  0  0  0  0
   14.4781   12.3297   23.2372 H   0  0  0  0  0  0  0  0  0  0  0  0
   13.1122   15.4938   22.6272 H   0  0  0  0  0  0  0  0  0  0  0  0
   11.6452   15.2047   23.5781 H   0  0  0  0  0  0  0  0  0  0  0  0
   11.7662   14.4567   20.9345 H   0  0  0  0  0  0  0  0  0  0  0  0
    8.1836   13.8362   19.8488 H   0  0  0  0  0  0  0  0  0  0  0  0
    8.1703   14.3492   21.5244 H   0  0  0  0  0  0  0  0  0  0  0  0
    9.1742   12.0922   21.3091 H   0  0  0  0  0  0  0  0  0  0  0  0
   10.4042   12.6961   20.1836 H   0  0  0  0  0  0  0  0  0  0  0  0
    6.0872    8.6518   25.0398 H   0  0  0  0  0  0  0  0  0  0  0  0
  1  2  2  0  0  0  0
  1  3  1  0  0  0  0
  2  4  1  0  0  0  0
  3  5  2  0  0  0  0
  4 10  2  0  0  0  0
  5 10  1  0  0  0  0
  6  9  1  0  0  0  0
  6 11  2  0  0  0  0
  7  9  2  0  0  0  0
  7 20  1  0  0  0  0
  8 21  2  0  0  0  0
  8 22  1  0  0  0  0
  9 13  1  0  0  0  0
 10 18  1  0  0  0  0
 11 12  1  0  0  0  0
 11 21  1  0  0  0  0
 12 20  2  0  0  0  0
 12 22  1  0  0  0  0
 13 23  1  0  0  0  0
 13 24  2  0  0  0  0
 14 15  1  0  0  0  0
 14 17  1  0  0  0  0
 15 25  1  0  0  0  0
 16 17  1  0  0  0  0
 16 25  1  0  0  0  0
 17 23  1  0  0  0  0
 18 19  1  0  0  0  0
 19 23  1  0  0  0  0
  1 26  1  0  0  0  0
  2 27  1  0  0  0  0
  3 28  1  0  0  0  0
  4 29  1  0  0  0  0
  5 30  1  0  0  0  0
  6 31  1  0  0  0  0
  7 32  1  0  0  0  0
  8 33  1  0  0  0  0
 14 34  1  0  0  0  0
 14 35  1  0  0  0  0
 15 36  1  0  0  0  0
 15 37  1  0  0  0  0
 16 38  1  0  0  0  0
 16 39  1  0  0  0  0
 17 40  1  0  0  0  0
 18 41  1  0  0  0  0
 18 42  1  0  0  0  0
 19 43  1  0  0  0  0
 19 44  1  0  0  0  0
 22 45  1  0  0  0  0
M  END
> <Catalog ID>
Z1548858917

> <PlateID>
1041831-R-21

> <Well>
F11

> <MW (desalted)>
336.388

> <ClogP>
1.842

> <HBD>
1

> <TPSA>
71.110

> <RotBonds>
5

> <ROCS_ShapeQuery>
A71EV2A-x0451_0A_A71EV2A-x0310_0A_A71EV2A-x0416_0A_peptide

> <ROCS_TanimotoCombo>
0.522 

> <ROCS_ShapeTanimoto>
0.326 

> <ROCS_ColorTanimoto>
0.196 

> <ROCS_RefTversky>
0.297 

> <ROCS_RefColorTversky>
0.223 

> <ROCS_RefTverskyCombo>
0.521 

> <ROCS_FitTversky>
1.416 

> <ROCS_FitColorTversky>
0.616 

> <ROCS_FitTverskyCombo>
2.031 

> <ROCS_ColorScore>
-6.839

> <ROCS_Overlap>
2067.901

> <ROCS_Rank>
312                 

$$$$
untitled-dbase-990_859
  -OEChem-11132311063D

 47 50  0     0  0  0  0  0  0999 V2000
   12.1726   15.0444   22.5055 C   0  0  0  0  0  0  0  0  0  0  0  0
   13.0657   15.9671   21.9501 C   0  0  0  0  0  0  0  0  0  0  0  0
   11.5276   14.2104   20.3025 C   0  0  0  0  0  0  0  0  0  0  0  0
    8.1127   12.1309   24.6401 C   0  0  0  0  0  0  0  0  0  0  0  0
    8.4070    9.9709   24.0765 C   0  0  0  0  0  0  0  0  0  0  0  0
   12.4183   15.1295   19.7297 C   0  0  0  0  0  0  0  0  0  0  0  0
   11.4177   14.1826   21.7003 C   0  0  0  0  0  0  0  0  0  0  0  0
   13.1469   15.9652   20.5631 C   0  0  0  0  0  0  0  0  0  0  0  0
    7.5377   10.8375   24.7014 C   0  0  0  0  0  0  0  0  0  0  0  0
    9.3158   12.0152   23.9793 C   0  0  0  0  0  0  0  0  0  0  0  0
   13.6302   16.3518   18.5109 C   0  0  0  0  0  0  0  0  0  0  0  0
   10.2498   13.0569   23.6789 C   0  0  0  0  0  0  0  0  0  0  0  0
    4.2858   13.1396   27.5066 C   0  0  0  0  0  0  0  0  0  0  0  0
    4.9417   12.4202   28.6689 C   0  0  0  0  0  0  0  0  0  0  0  0
    5.2449   12.8862   26.3512 C   0  0  0  0  0  0  0  0  0  0  0  0
    5.4504   11.1439   28.0175 C   0  0  0  0  0  0  0  0  0  0  0  0
   14.3416   17.0456   17.4268 C   0  0  0  0  0  0  0  0  0  0  0  0
   10.6172   10.1431   22.9339 C   0  0  0  0  0  0  0  0  0  0  0  0
   12.7388   15.3894   18.4193 N   0  0  0  0  0  0  0  0  0  0  0  0
    9.4841   10.6979   23.6412 N   0  0  0  0  0  0  0  0  0  0  0  0
    5.9013   11.5840   26.6686 N   0  0  0  0  0  0  0  0  0  0  0  0
   10.5251   13.2640   22.3080 N   0  0  0  0  0  0  0  0  0  0  0  0
   10.8213   13.7274   24.5675 O   0  0  0  0  0  0  0  0  0  0  0  0
    4.9528   10.6595   24.4570 O   0  0  0  0  0  0  0  0  0  0  0  0
    6.1364    9.0968   26.0396 O   0  0  0  0  0  0  0  0  0  0  0  0
   13.9324   16.7575   19.7758 O   0  0  0  0  0  0  0  0  0  0  0  0
    5.9900   10.4122   25.4424 S   0  0  0  0  0  0  0  0  0  0  0  0
   12.0712   15.0055   23.5885 H   0  0  0  0  0  0  0  0  0  0  0  0
   13.6538   16.6379   22.5639 H   0  0  0  0  0  0  0  0  0  0  0  0
   10.9426   13.5423   19.6778 H   0  0  0  0  0  0  0  0  0  0  0  0
    7.6948   13.0471   25.0354 H   0  0  0  0  0  0  0  0  0  0  0  0
    8.3497    8.9040   23.9054 H   0  0  0  0  0  0  0  0  0  0  0  0
    3.3097   12.6889   27.2896 H   0  0  0  0  0  0  0  0  0  0  0  0
    4.1336   14.2058   27.6964 H   0  0  0  0  0  0  0  0  0  0  0  0
    5.7802   13.0122   29.0549 H   0  0  0  0  0  0  0  0  0  0  0  0
    4.2498   12.2230   29.4922 H   0  0  0  0  0  0  0  0  0  0  0  0
    4.7145   12.8617   25.3949 H   0  0  0  0  0  0  0  0  0  0  0  0
    6.0202   13.6582   26.3050 H   0  0  0  0  0  0  0  0  0  0  0  0
    6.2789   10.7045   28.5790 H   0  0  0  0  0  0  0  0  0  0  0  0
    4.6402   10.4124   27.9236 H   0  0  0  0  0  0  0  0  0  0  0  0
   13.7848   17.9359   17.0849 H   0  0  0  0  0  0  0  0  0  0  0  0
   15.3481   17.3833   17.7347 H   0  0  0  0  0  0  0  0  0  0  0  0
   14.4995   16.3962   16.5461 H   0  0  0  0  0  0  0  0  0  0  0  0
   10.4000   10.1849   21.8633 H   0  0  0  0  0  0  0  0  0  0  0  0
   11.5124   10.7270   23.1654 H   0  0  0  0  0  0  0  0  0  0  0  0
   10.7717    9.1088   23.2537 H   0  0  0  0  0  0  0  0  0  0  0  0
   10.0087   12.6685   21.6653 H   0  0  0  0  0  0  0  0  0  0  0  0
  1  2  1  0  0  0  0
  1  7  2  0  0  0  0
  2  8  2  0  0  0  0
  3  6  2  0  0  0  0
  3  7  1  0  0  0  0
  4  9  1  0  0  0  0
  4 10  2  0  0  0  0
  5  9  2  0  0  0  0
  5 20  1  0  0  0  0
  6  8  1  0  0  0  0
  6 19  1  0  0  0  0
  7 22  1  0  0  0  0
  8 26  1  0  0  0  0
  9 27  1  0  0  0  0
 10 12  1  0  0  0  0
 10 20  1  0  0  0  0
 11 17  1  0  0  0  0
 11 19  2  0  0  0  0
 11 26  1  0  0  0  0
 12 22  1  0  0  0  0
 12 23  2  0  0  0  0
 13 14  1  0  0  0  0
 13 15  1  0  0  0  0
 14 16  1  0  0  0  0
 15 21  1  0  0  0  0
 16 21  1  0  0  0  0
 18 20  1  0  0  0  0
 21 27  1  0  0  0  0
 24 27  2  0  0  0  0
 25 27  2  0  0  0  0
  1 28  1  0  0  0  0
  2 29  1  0  0  0  0
  3 30  1  0  0  0  0
  4 31  1  0  0  0  0
  5 32  1  0  0  0  0
 13 33  1  0  0  0  0
 13 34  1  0  0  0  0
 14 35  1  0  0  0  0
 14 36  1  0  0  0  0
 15 37  1  0  0  0  0
 15 38  1  0  0  0  0
 16 39  1  0  0  0  0
 16 40  1  0  0  0  0
 17 41  1  0  0  0  0
 17 42  1  0  0  0  0
 17 43  1  0  0  0  0
 18 44  1  0  0  0  0
 18 45  1  0  0  0  0
 18 46  1  0  0  0  0
 22 47  1  0  0  0  0
M  END
> <Catalog ID>
Z167101934

> <PlateID>
1041831-R-13

> <Well>
C11

> <MW (desalted)>
388.441

> <ClogP>
2.259

> <HBD>
1

> <TPSA>
97.440

> <RotBonds>
3

> <ROCS_ShapeQuery>
A71EV2A-x0451_0A_A71EV2A-x0310_0A_A71EV2A-x0416_0A_peptide

> <ROCS_TanimotoCombo>
0.522 

> <ROCS_ShapeTanimoto>
0.360 

> <ROCS_ColorTanimoto>
0.162 

> <ROCS_RefTversky>
0.323 

> <ROCS_RefColorTversky>
0.186 

> <ROCS_RefTverskyCombo>
0.509 

> <ROCS_FitTversky>
1.465 

> <ROCS_FitColorTversky>
0.559 

> <ROCS_FitTverskyCombo>
2.024 

> <ROCS_ColorScore>
-5.678

> <ROCS_Overlap>
2246.908

> <ROCS_Rank>
313                 

$$$$
untitled-dbase-2361_928
  -OEChem-11132311063D

 54 58  0     1  0  0  0  0  0999 V2000
   14.7626   16.7034   18.5788 C   0  0  0  0  0  0  0  0  0  0  0  0
   14.4900   15.4177   18.9913 C   0  0  0  0  0  0  0  0  0  0  0  0
   12.7689   17.4060   19.4512 C   0  0  0  0  0  0  0  0  0  0  0  0
   12.4959   16.1202   19.8630 C   0  0  0  0  0  0  0  0  0  0  0  0
    9.3341    7.6900   23.4032 C   0  0  0  0  0  0  0  0  0  0  0  0
    8.2888    7.9036   22.3221 C   0  0  0  0  0  0  0  0  0  0  0  0
   12.0212   13.5239   22.3102 C   0  0  0  0  0  0  0  0  0  0  0  0
    9.5754   14.1644   22.2797 C   0  0  0  0  0  0  0  0  0  0  0  0
   12.4030   14.9903   22.5143 C   0  0  0  0  0  0  0  0  0  0  0  0
    9.9569   15.6315   22.4820 C   0  0  0  0  0  0  0  0  0  0  0  0
    9.9863    9.0619   23.5027 C   0  0  0  0  0  0  0  0  0  0  0  0
    7.7196    9.2983   22.5935 C   0  0  0  0  0  0  0  0  0  0  0  0
    7.8818   12.7291   25.2530 C   0  0  0  0  0  0  0  0  0  0  0  0
    6.5642   11.9967   25.0222 C   0  0  0  0  0  0  0  0  0  0  0  0
    8.9577   11.8115   24.6837 C   0  0  2  0  0  0  0  0  0  0  0  0
   10.6285   13.2218   22.8675 C   0  0  0  0  0  0  0  0  0  0  0  0
    8.9516   11.5438   23.1596 C   0  0  2  0  0  0  0  0  0  0  0  0
    8.3080   10.4273   24.8921 C   0  0  2  0  0  0  0  0  0  0  0  0
   11.3527   15.9439   21.9433 C   0  0  0  0  0  0  0  0  0  0  0  0
    8.7810   10.0174   23.4503 C   0  0  0  0  0  0  0  0  0  0  0  0
   13.9070   17.7207   18.8014 N   0  0  0  0  0  0  0  0  0  0  0  0
   13.3517   15.1030   19.6407 N   0  0  0  0  0  0  0  0  0  0  0  0
   10.2744   11.8443   22.6237 N   0  0  0  0  0  0  0  0  0  0  0  0
    6.8910   10.6080   25.1424 O   0  0  0  0  0  0  0  0  0  0  0  0
   11.3281   15.8398   20.5213 O   0  0  0  0  0  0  0  0  0  0  0  0
   15.6773   16.9550   18.0563 H   0  0  0  0  0  0  0  0  0  0  0  0
   15.1785   14.6013   18.8112 H   0  0  0  0  0  0  0  0  0  0  0  0
   12.0850   18.2276   19.6285 H   0  0  0  0  0  0  0  0  0  0  0  0
    8.8519    7.4218   24.3505 H   0  0  0  0  0  0  0  0  0  0  0  0
   10.0503    6.9055   23.1435 H   0  0  0  0  0  0  0  0  0  0  0  0
    8.7654    7.8860   21.3344 H   0  0  0  0  0  0  0  0  0  0  0  0
    7.5129    7.1325   22.3302 H   0  0  0  0  0  0  0  0  0  0  0  0
   12.0763   13.2727   21.2482 H   0  0  0  0  0  0  0  0  0  0  0  0
   12.7533   12.8945   22.8243 H   0  0  0  0  0  0  0  0  0  0  0  0
    8.6201   13.9798   22.7775 H   0  0  0  0  0  0  0  0  0  0  0  0
    9.4247   13.9659   21.2171 H   0  0  0  0  0  0  0  0  0  0  0  0
   12.5334   15.1920   23.5865 H   0  0  0  0  0  0  0  0  0  0  0  0
   13.3831   15.2003   22.0639 H   0  0  0  0  0  0  0  0  0  0  0  0
    9.2175   16.2885   22.0038 H   0  0  0  0  0  0  0  0  0  0  0  0
    9.9124   15.8799   23.5509 H   0  0  0  0  0  0  0  0  0  0  0  0
   10.5917    9.1688   24.4079 H   0  0  0  0  0  0  0  0  0  0  0  0
   10.6413    9.2072   22.6355 H   0  0  0  0  0  0  0  0  0  0  0  0
    7.5422    9.8168   21.6451 H   0  0  0  0  0  0  0  0  0  0  0  0
    6.7583    9.2156   23.1098 H   0  0  0  0  0  0  0  0  0  0  0  0
    7.8865   13.7239   24.7988 H   0  0  0  0  0  0  0  0  0  0  0  0
    8.0458   12.8494   26.3307 H   0  0  0  0  0  0  0  0  0  0  0  0
    5.8043   12.2690   25.7596 H   0  0  0  0  0  0  0  0  0  0  0  0
    6.1703   12.1726   24.0165 H   0  0  0  0  0  0  0  0  0  0  0  0
    9.9414   11.9232   25.1545 H   0  0  0  0  0  0  0  0  0  0  0  0
   10.6531   13.3651   23.9526 H   0  0  0  0  0  0  0  0  0  0  0  0
    8.1246   12.0132   22.6053 H   0  0  0  0  0  0  0  0  0  0  0  0
    8.7484    9.8449   25.7088 H   0  0  0  0  0  0  0  0  0  0  0  0
   11.6198   16.9790   22.1956 H   0  0  0  0  0  0  0  0  0  0  0  0
   10.2764   11.6697   21.6193 H   0  0  0  0  0  0  0  0  0  0  0  0
  1  2  1  0  0  0  0
  1 21  2  0  0  0  0
  2 22  2  0  0  0  0
  3  4  2  0  0  0  0
  3 21  1  0  0  0  0
  4 22  1  0  0  0  0
  4 25  1  0  0  0  0
  5  6  1  0  0  0  0
  5 11  1  0  0  0  0
  6 12  1  0  0  0  0
  7  9  1  0  0  0  0
  7 16  1  0  0  0  0
  8 10  1  0  0  0  0
  8 16  1  0  0  0  0
  9 19  1  0  0  0  0
 10 19  1  0  0  0  0
 11 20  1  0  0  0  0
 12 20  1  0  0  0  0
 13 14  1  0  0  0  0
 13 15  1  1  0  0  0
 14 24  1  0  0  0  0
 15 17  1  0  0  0  0
 15 18  1  0  0  0  0
 16 23  1  0  0  0  0
 17 20  1  0  0  0  0
 17 23  1  0  0  0  0
 18 20  1  0  0  0  0
 18 24  1  1  0  0  0
 19 25  1  0  0  0  0
  1 26  1  0  0  0  0
  2 27  1  0  0  0  0
  3 28  1  0  0  0  0
  5 29  1  0  0  0  0
  5 30  1  0  0  0  0
  6 31  1  0  0  0  0
  6 32  1  0  0  0  0
  7 33  1  0  0  0  0
  7 34  1  0  0  0  0
  8 35  1  0  0  0  0
  8 36  1  0  0  0  0
  9 37  1  0  0  0  0
  9 38  1  0  0  0  0
 10 39  1  0  0  0  0
 10 40  1  0  0  0  0
 11 41  1  0  0  0  0
 11 42  1  0  0  0  0
 12 43  1  0  0  0  0
 12 44  1  0  0  0  0
 13 45  1  0  0  0  0
 13 46  1  0  0  0  0
 14 47  1  0  0  0  0
 14 48  1  0  0  0  0
 15 49  1  0  0  0  0
 16 50  1  0  0  0  0
 17 51  1  0  0  0  0
 18 52  1  0  0  0  0
 19 53  1  0  0  0  0
 23 54  1  0  0  0  0
M  END
> <Catalog ID>
Z1904775249

> <PlateID>
1041831-R-30

> <Well>
E02

> <MW (desalted)>
343.463

> <ClogP>
2.817

> <HBD>
1

> <TPSA>
56.270

> <RotBonds>
4

> <ROCS_ShapeQuery>
A71EV2A-x0451_0A_A71EV2A-x0310_0A_A71EV2A-x0416_0A_peptide

> <ROCS_TanimotoCombo>
0.522 

> <ROCS_ShapeTanimoto>
0.355 

> <ROCS_ColorTanimoto>
0.166 

> <ROCS_RefTversky>
0.317 

> <ROCS_RefColorTversky>
0.213 

> <ROCS_RefTverskyCombo>
0.530 

> <ROCS_FitTversky>
1.529 

> <ROCS_FitColorTversky>
0.430 

> <ROCS_FitTverskyCombo>
1.959 

> <ROCS_ColorScore>
-6.581

> <ROCS_Overlap>
2200.922

> <ROCS_Rank>
314                 

$$$$
untitled-dbase-2617_645
  -OEChem-11132311063D

 46 48  0     0  0  0  0  0  0999 V2000
    8.4371    9.2743   22.7426 C   0  0  0  0  0  0  0  0  0  0  0  0
    9.3706   10.2331   22.3493 C   0  0  0  0  0  0  0  0  0  0  0  0
    7.6642    9.4809   23.8853 C   0  0  0  0  0  0  0  0  0  0  0  0
   12.1388   15.3413   19.8038 C   0  0  0  0  0  0  0  0  0  0  0  0
    5.8706   12.7326   24.8599 C   0  0  0  0  0  0  0  0  0  0  0  0
    6.5584   12.7240   27.1646 C   0  0  0  0  0  0  0  0  0  0  0  0
    8.7585   11.6052   24.2414 C   0  0  0  0  0  0  0  0  0  0  0  0
   12.7640   15.0462   18.6030 C   0  0  0  0  0  0  0  0  0  0  0  0
    5.3166   13.9823   25.0860 C   0  0  0  0  0  0  0  0  0  0  0  0
    5.9738   13.9742   27.2874 C   0  0  0  0  0  0  0  0  0  0  0  0
   14.4707   16.5251   19.0254 C   0  0  0  0  0  0  0  0  0  0  0  0
   12.7370   16.2816   20.6351 C   0  0  0  0  0  0  0  0  0  0  0  0
   13.9253   16.8896   20.2458 C   0  0  0  0  0  0  0  0  0  0  0  0
    9.5314   11.3986   23.0987 C   0  0  0  0  0  0  0  0  0  0  0  0
    7.8249   10.6464   24.6346 C   0  0  0  0  0  0  0  0  0  0  0  0
    6.5015   12.0982   25.9242 C   0  0  0  0  0  0  0  0  0  0  0  0
   10.7734   13.5868   23.3217 C   0  0  0  0  0  0  0  0  0  0  0  0
   14.6084   17.9021   21.0985 C   0  0  0  0  0  0  0  0  0  0  0  0
   12.0817   16.6244   21.9505 C   0  0  0  0  0  0  0  0  0  0  0  0
   12.2888   15.5513   23.0165 C   0  0  0  0  0  0  0  0  0  0  0  0
   13.9187   15.6159   18.1909 N   0  0  0  0  0  0  0  0  0  0  0  0
    5.3521   14.6218   26.2766 N   0  0  0  0  0  0  0  0  0  0  0  0
   10.4652   12.3576   22.7047 N   0  0  0  0  0  0  0  0  0  0  0  0
   11.7724   14.2633   22.6143 N   0  0  0  0  0  0  0  0  0  0  0  0
   10.2544   14.0324   24.3423 O   0  0  0  0  0  0  0  0  0  0  0  0
    7.0709   10.8480   25.7498 O   0  0  0  0  0  0  0  0  0  0  0  0
    8.3116    8.3675   22.1584 H   0  0  0  0  0  0  0  0  0  0  0  0
    9.9678   10.0612   21.4574 H   0  0  0  0  0  0  0  0  0  0  0  0
    6.9384    8.7304   24.1857 H   0  0  0  0  0  0  0  0  0  0  0  0
   11.2118   14.8497   20.0785 H   0  0  0  0  0  0  0  0  0  0  0  0
    5.8103   12.2683   23.8817 H   0  0  0  0  0  0  0  0  0  0  0  0
    7.0436   12.2530   28.0123 H   0  0  0  0  0  0  0  0  0  0  0  0
    8.8799   12.5126   24.8287 H   0  0  0  0  0  0  0  0  0  0  0  0
   12.3381   14.3197   17.9190 H   0  0  0  0  0  0  0  0  0  0  0  0
    4.8124   14.5189   24.2891 H   0  0  0  0  0  0  0  0  0  0  0  0
    5.9926   14.5055   28.2333 H   0  0  0  0  0  0  0  0  0  0  0  0
   15.3966   16.9646   18.6673 H   0  0  0  0  0  0  0  0  0  0  0  0
   14.2515   18.9113   20.8566 H   0  0  0  0  0  0  0  0  0  0  0  0
   14.4249   17.7163   22.1655 H   0  0  0  0  0  0  0  0  0  0  0  0
   15.6974   17.8762   20.9561 H   0  0  0  0  0  0  0  0  0  0  0  0
   11.0067   16.7619   21.7784 H   0  0  0  0  0  0  0  0  0  0  0  0
   12.4558   17.5915   22.3105 H   0  0  0  0  0  0  0  0  0  0  0  0
   13.3582   15.4169   23.2076 H   0  0  0  0  0  0  0  0  0  0  0  0
   11.8046   15.8211   23.9608 H   0  0  0  0  0  0  0  0  0  0  0  0
   11.0053   12.1538   21.8572 H   0  0  0  0  0  0  0  0  0  0  0  0
   12.1523   13.8291   21.7791 H   0  0  0  0  0  0  0  0  0  0  0  0
  1  2  1  0  0  0  0
  1  3  2  0  0  0  0
  2 14  2  0  0  0  0
  3 15  1  0  0  0  0
  4  8  1  0  0  0  0
  4 12  2  0  0  0  0
  5  9  1  0  0  0  0
  5 16  2  0  0  0  0
  6 10  2  0  0  0  0
  6 16  1  0  0  0  0
  7 14  1  0  0  0  0
  7 15  2  0  0  0  0
  8 21  2  0  0  0  0
  9 22  2  0  0  0  0
 10 22  1  0  0  0  0
 11 13  2  0  0  0  0
 11 21  1  0  0  0  0
 12 13  1  0  0  0  0
 12 19  1  0  0  0  0
 13 18  1  0  0  0  0
 14 23  1  0  0  0  0
 15 26  1  0  0  0  0
 16 26  1  0  0  0  0
 17 23  1  0  0  0  0
 17 24  1  0  0  0  0
 17 25  2  0  0  0  0
 19 20  1  0  0  0  0
 20 24  1  0  0  0  0
  1 27  1  0  0  0  0
  2 28  1  0  0  0  0
  3 29  1  0  0  0  0
  4 30  1  0  0  0  0
  5 31  1  0  0  0  0
  6 32  1  0  0  0  0
  7 33  1  0  0  0  0
  8 34  1  0  0  0  0
  9 35  1  0  0  0  0
 10 36  1  0  0  0  0
 11 37  1  0  0  0  0
 18 38  1  0  0  0  0
 18 39  1  0  0  0  0
 18 40  1  0  0  0  0
 19 41  1  0  0  0  0
 19 42  1  0  0  0  0
 20 43  1  0  0  0  0
 20 44  1  0  0  0  0
 23 45  1  0  0  0  0
 24 46  1  0  0  0  0
M  END
> <Catalog ID>
Z1514727783

> <PlateID>
1041831-R-33

> <Well>
F08

> <MW (desalted)>
348.398

> <ClogP>
2.751

> <HBD>
2

> <TPSA>
76.140

> <RotBonds>
6

> <ROCS_ShapeQuery>
A71EV2A-x0451_0A_A71EV2A-x0310_0A_A71EV2A-x0416_0A_peptide

> <ROCS_TanimotoCombo>
0.522 

> <ROCS_ShapeTanimoto>
0.344 

> <ROCS_ColorTanimoto>
0.178 

> <ROCS_RefTversky>
0.311 

> <ROCS_RefColorTversky>
0.201 

> <ROCS_RefTverskyCombo>
0.511 

> <ROCS_FitTversky>
1.458 

> <ROCS_FitColorTversky>
0.605 

> <ROCS_FitTverskyCombo>
2.063 

> <ROCS_ColorScore>
-6.138

> <ROCS_Overlap>
2160.604

> <ROCS_Rank>
315                 

$$$$
untitled-dbase-2377_183
  -OEChem-11132311063D

 47 50  0     1  0  0  0  0  0999 V2000
    5.8878   13.2438   26.6964 C   0  0  0  0  0  0  0  0  0  0  0  0
    4.7264   13.1939   27.4905 C   0  0  0  0  0  0  0  0  0  0  0  0
    5.9938   11.9823   26.1636 C   0  0  0  0  0  0  0  0  0  0  0  0
   10.1814   13.2098   23.7640 C   0  0  0  0  0  0  0  0  0  0  0  0
    9.8702   15.8282   21.1130 C   0  0  0  0  0  0  0  0  0  0  0  0
    9.3406   14.7065   21.9934 C   0  0  0  0  0  0  0  0  0  0  0  0
    9.2677    9.7496   24.0436 C   0  0  0  0  0  0  0  0  0  0  0  0
    8.4209   10.1904   22.8332 C   0  0  0  0  0  0  0  0  0  0  0  0
    8.4389   11.3277   25.8643 C   0  0  0  0  0  0  0  0  0  0  0  0
    7.0166   12.0667   23.8304 C   0  0  0  0  0  0  0  0  0  0  0  0
   10.9922   16.5943   21.8113 C   0  0  0  0  0  0  0  0  0  0  0  0
   11.8392   14.4496   22.3989 C   0  0  0  0  0  0  0  0  0  0  0  0
    7.0229   11.3797   25.2250 C   0  0  0  0  0  0  0  0  0  0  0  0
   10.4735   13.7587   22.3992 C   0  0  1  0  0  0  0  0  0  0  0  0
    9.5403   11.0396   24.8250 C   0  0  2  0  0  0  0  0  0  0  0  0
    8.2607   11.7075   22.9929 C   0  0  1  0  0  0  0  0  0  0  0  0
    4.6025    9.9008   26.3792 C   0  0  0  0  0  0  0  0  0  0  0  0
    4.1368   11.9957   27.4670 N   0  0  0  0  0  0  0  0  0  0  0  0
    4.9308   11.2809   26.6517 N   0  0  0  0  0  0  0  0  0  0  0  0
    9.4238   12.0570   23.7957 N   0  0  0  0  0  0  0  0  0  0  0  0
   10.6171   13.7763   24.7678 O   0  0  0  0  0  0  0  0  0  0  0  0
   11.6999   15.8167   22.7783 O   0  0  0  0  0  0  0  0  0  0  0  0
    6.5532   14.0793   26.5349 H   0  0  0  0  0  0  0  0  0  0  0  0
    4.2854   13.9809   28.0852 H   0  0  0  0  0  0  0  0  0  0  0  0
   10.2274   15.4268   20.1569 H   0  0  0  0  0  0  0  0  0  0  0  0
    9.0507   16.5236   20.8874 H   0  0  0  0  0  0  0  0  0  0  0  0
    8.8443   15.1232   22.8697 H   0  0  0  0  0  0  0  0  0  0  0  0
    8.5993   14.1358   21.4309 H   0  0  0  0  0  0  0  0  0  0  0  0
    8.7585    8.9875   24.6419 H   0  0  0  0  0  0  0  0  0  0  0  0
   10.2095    9.3171   23.6855 H   0  0  0  0  0  0  0  0  0  0  0  0
    8.9675    9.9624   21.9104 H   0  0  0  0  0  0  0  0  0  0  0  0
    7.4630    9.6622   22.7917 H   0  0  0  0  0  0  0  0  0  0  0  0
    8.6625   12.2819   26.3609 H   0  0  0  0  0  0  0  0  0  0  0  0
    8.4563   10.5610   26.6495 H   0  0  0  0  0  0  0  0  0  0  0  0
    6.1062   11.7813   23.2883 H   0  0  0  0  0  0  0  0  0  0  0  0
    6.9734   13.1579   23.9502 H   0  0  0  0  0  0  0  0  0  0  0  0
   11.7138   17.0026   21.0745 H   0  0  0  0  0  0  0  0  0  0  0  0
   10.5689   17.4708   22.3375 H   0  0  0  0  0  0  0  0  0  0  0  0
   12.5120   13.9755   23.1102 H   0  0  0  0  0  0  0  0  0  0  0  0
   12.2911   14.3980   21.4096 H   0  0  0  0  0  0  0  0  0  0  0  0
    6.6980   10.3235   25.0682 H   0  0  0  0  0  0  0  0  0  0  0  0
   10.4924   12.9017   21.7259 H   0  0  0  0  0  0  0  0  0  0  0  0
   10.5274   11.0458   25.2974 H   0  0  0  0  0  0  0  0  0  0  0  0
    8.2392   12.2238   22.0302 H   0  0  0  0  0  0  0  0  0  0  0  0
    5.0968    9.2815   27.1324 H   0  0  0  0  0  0  0  0  0  0  0  0
    3.5181    9.7682   26.4270 H   0  0  0  0  0  0  0  0  0  0  0  0
    4.9517    9.6374   25.3769 H   0  0  0  0  0  0  0  0  0  0  0  0
  1  2  1  0  0  0  0
  1  3  2  0  0  0  0
  2 18  2  0  0  0  0
  3 13  1  0  0  0  0
  3 19  1  0  0  0  0
  4 14  1  0  0  0  0
  4 20  1  0  0  0  0
  4 21  2  0  0  0  0
  5  6  1  0  0  0  0
  5 11  1  0  0  0  0
  6 14  1  0  0  0  0
  7  8  1  0  0  0  0
  7 15  1  0  0  0  0
  8 16  1  0  0  0  0
  9 13  1  0  0  0  0
  9 15  1  0  0  0  0
 10 13  1  0  0  0  0
 10 16  1  0  0  0  0
 11 22  1  0  0  0  0
 12 14  1  0  0  0  0
 12 22  1  0  0  0  0
 15 20  1  0  0  0  0
 16 20  1  0  0  0  0
 17 19  1  0  0  0  0
 18 19  1  0  0  0  0
  1 23  1  0  0  0  0
  2 24  1  0  0  0  0
  5 25  1  0  0  0  0
  5 26  1  0  0  0  0
  6 27  1  0  0  0  0
  6 28  1  0  0  0  0
  7 29  1  0  0  0  0
  7 30  1  0  0  0  0
  8 31  1  0  0  0  0
  8 32  1  0  0  0  0
  9 33  1  0  0  0  0
  9 34  1  0  0  0  0
 10 35  1  0  0  0  0
 10 36  1  0  0  0  0
 11 37  1  0  0  0  0
 11 38  1  0  0  0  0
 12 39  1  0  0  0  0
 12 40  1  0  0  0  0
 13 41  1  0  0  0  0
 14 42  1  0  0  0  0
 15 43  1  0  0  0  0
 16 44  1  0  0  0  0
 17 45  1  0  0  0  0
 17 46  1  0  0  0  0
 17 47  1  0  0  0  0
M  END
> <Catalog ID>
Z2017841021

> <PlateID>
1041831-R-30

> <Well>
F08

> <MW (desalted)>
303.399

> <ClogP>
0.451

> <HBD>
0

> <TPSA>
47.360

> <RotBonds>
2

> <ROCS_ShapeQuery>
A71EV2A-x0451_0A_A71EV2A-x0310_0A_A71EV2A-x0416_0A_peptide

> <ROCS_TanimotoCombo>
0.522 

> <ROCS_ShapeTanimoto>
0.304 

> <ROCS_ColorTanimoto>
0.218 

> <ROCS_RefTversky>
0.277 

> <ROCS_RefColorTversky>
0.249 

> <ROCS_RefTverskyCombo>
0.525 

> <ROCS_FitTversky>
1.465 

> <ROCS_FitColorTversky>
0.641 

> <ROCS_FitTverskyCombo>
2.106 

> <ROCS_ColorScore>
-7.620

> <ROCS_Overlap>
1923.292

> <ROCS_Rank>
316                 

$$$$
untitled-dbase-1376_1934
  -OEChem-11132311063D

 41 43  0     0  0  0  0  0  0999 V2000
   10.6385    7.2686   23.6276 C   0  0  0  0  0  0  0  0  0  0  0  0
   10.9585   16.3547   21.0587 C   0  0  0  0  0  0  0  0  0  0  0  0
   10.8837   14.9664   21.0754 C   0  0  0  0  0  0  0  0  0  0  0  0
   10.3211    8.2049   22.6437 C   0  0  0  0  0  0  0  0  0  0  0  0
   10.1960    7.4557   24.9372 C   0  0  0  0  0  0  0  0  0  0  0  0
   11.8021   16.9698   21.9697 C   0  0  0  0  0  0  0  0  0  0  0  0
    9.1187    9.5155   24.2789 C   0  0  0  0  0  0  0  0  0  0  0  0
    8.7196   12.0311   24.4222 C   0  0  0  0  0  0  0  0  0  0  0  0
   11.6441   14.2457   21.9896 C   0  0  0  0  0  0  0  0  0  0  0  0
    9.5612    9.3284   22.9693 C   0  0  0  0  0  0  0  0  0  0  0  0
    9.4361    8.5791   25.2628 C   0  0  0  0  0  0  0  0  0  0  0  0
    8.3366   10.6875   24.5759 C   0  0  0  0  0  0  0  0  0  0  0  0
    7.6217   12.7331   24.8442 C   0  0  0  0  0  0  0  0  0  0  0  0
   12.4572   14.9552   22.8588 C   0  0  0  0  0  0  0  0  0  0  0  0
    9.9468   12.5946   23.9454 C   0  0  0  0  0  0  0  0  0  0  0  0
    7.3063   14.1634   24.9607 C   0  0  0  0  0  0  0  0  0  0  0  0
   14.0322   15.0705   24.6369 C   0  0  0  0  0  0  0  0  0  0  0  0
   11.5707   12.7464   22.0174 C   0  0  0  0  0  0  0  0  0  0  0  0
   12.5561   16.3034   22.8725 N   0  0  0  0  0  0  0  0  0  0  0  0
    7.0960   10.5655   25.0564 N   0  0  0  0  0  0  0  0  0  0  0  0
   10.3505   12.2759   22.6326 N   0  0  0  0  0  0  0  0  0  0  0  0
   10.6543   13.3317   24.6746 O   0  0  0  0  0  0  0  0  0  0  0  0
    6.6460   11.8694   25.2252 O   0  0  0  0  0  0  0  0  0  0  0  0
   13.2209   14.2808   23.7758 O   0  0  0  0  0  0  0  0  0  0  0  0
    9.2656   10.2177   22.0095 F   0  0  0  0  0  0  0  0  0  0  0  0
    8.9154    8.7586   26.9027 Cl  0  0  0  0  0  0  0  0  0  0  0  0
   11.2304    6.3940   23.3739 H   0  0  0  0  0  0  0  0  0  0  0  0
   10.3749   16.9364   20.3543 H   0  0  0  0  0  0  0  0  0  0  0  0
   10.2300   14.4558   20.3738 H   0  0  0  0  0  0  0  0  0  0  0  0
   10.6654    8.0593   21.6241 H   0  0  0  0  0  0  0  0  0  0  0  0
   10.4526    6.7160   25.6914 H   0  0  0  0  0  0  0  0  0  0  0  0
   11.8958   18.0504   21.9971 H   0  0  0  0  0  0  0  0  0  0  0  0
    6.8487   14.5531   24.0338 H   0  0  0  0  0  0  0  0  0  0  0  0
    6.6034   14.3730   25.7884 H   0  0  0  0  0  0  0  0  0  0  0  0
    8.2034   14.7763   25.1681 H   0  0  0  0  0  0  0  0  0  0  0  0
   14.5872   14.4180   25.3154 H   0  0  0  0  0  0  0  0  0  0  0  0
   13.4001   15.7550   25.2081 H   0  0  0  0  0  0  0  0  0  0  0  0
   14.7363   15.6468   24.0321 H   0  0  0  0  0  0  0  0  0  0  0  0
   11.6152   12.3388   21.0016 H   0  0  0  0  0  0  0  0  0  0  0  0
   12.4121   12.3221   22.5753 H   0  0  0  0  0  0  0  0  0  0  0  0
    9.7841   11.6264   22.0967 H   0  0  0  0  0  0  0  0  0  0  0  0
  1  4  2  0  0  0  0
  1  5  1  0  0  0  0
  2  3  1  0  0  0  0
  2  6  2  0  0  0  0
  3  9  2  0  0  0  0
  4 10  1  0  0  0  0
  5 11  2  0  0  0  0
  6 19  1  0  0  0  0
  7 10  2  0  0  0  0
  7 11  1  0  0  0  0
  7 12  1  0  0  0  0
  8 12  1  0  0  0  0
  8 13  2  0  0  0  0
  8 15  1  0  0  0  0
  9 14  1  0  0  0  0
  9 18  1  0  0  0  0
 10 25  1  0  0  0  0
 11 26  1  0  0  0  0
 12 20  2  0  0  0  0
 13 16  1  0  0  0  0
 13 23  1  0  0  0  0
 14 19  2  0  0  0  0
 14 24  1  0  0  0  0
 15 21  1  0  0  0  0
 15 22  2  0  0  0  0
 17 24  1  0  0  0  0
 18 21  1  0  0  0  0
 20 23  1  0  0  0  0
  1 27  1  0  0  0  0
  2 28  1  0  0  0  0
  3 29  1  0  0  0  0
  4 30  1  0  0  0  0
  5 31  1  0  0  0  0
  6 32  1  0  0  0  0
 16 33  1  0  0  0  0
 16 34  1  0  0  0  0
 16 35  1  0  0  0  0
 17 36  1  0  0  0  0
 17 37  1  0  0  0  0
 17 38  1  0  0  0  0
 18 39  1  0  0  0  0
 18 40  1  0  0  0  0
 21 41  1  0  0  0  0
M  END
> <Catalog ID>
Z333667336

> <PlateID>
1041831-R-18

> <Well>
B07

> <MW (desalted)>
375.781

> <ClogP>
3.119

> <HBD>
1

> <TPSA>
77.250

> <RotBonds>
4

> <ROCS_ShapeQuery>
A71EV2A-x0451_0A_A71EV2A-x0310_0A_A71EV2A-x0416_0A_peptide

> <ROCS_TanimotoCombo>
0.522 

> <ROCS_ShapeTanimoto>
0.348 

> <ROCS_ColorTanimoto>
0.174 

> <ROCS_RefTversky>
0.313 

> <ROCS_RefColorTversky>
0.193 

> <ROCS_RefTverskyCombo>
0.506 

> <ROCS_FitTversky>
1.463 

> <ROCS_FitColorTversky>
0.640 

> <ROCS_FitTverskyCombo>
2.103 

> <ROCS_ColorScore>
-5.881

> <ROCS_Overlap>
2179.843

> <ROCS_Rank>
317                 

$$$$
untitled-dbase-983_3730
  -OEChem-11132311063D

 48 51  0     1  0  0  0  0  0999 V2000
    8.1527    9.4247   24.0099 C   0  0  0  0  0  0  0  0  0  0  0  0
   14.0443   16.1070   18.2357 C   0  0  0  0  0  0  0  0  0  0  0  0
    7.2566   10.0687   24.8630 C   0  0  0  0  0  0  0  0  0  0  0  0
    9.1414   10.1583   23.3542 C   0  0  0  0  0  0  0  0  0  0  0  0
   14.5348   16.0492   19.5651 C   0  0  0  0  0  0  0  0  0  0  0  0
    8.3377   12.1801   24.4046 C   0  0  0  0  0  0  0  0  0  0  0  0
   12.6694   16.0511   18.2991 C   0  0  0  0  0  0  0  0  0  0  0  0
    6.0381   13.4193   25.7543 C   0  0  0  0  0  0  0  0  0  0  0  0
    7.3491   11.4464   25.0604 C   0  0  0  0  0  0  0  0  0  0  0  0
    9.2339   11.5361   23.5515 C   0  0  0  0  0  0  0  0  0  0  0  0
    6.4257   12.1086   25.9387 C   0  0  0  0  0  0  0  0  0  0  0  0
   13.4464   15.9503   20.4122 C   0  0  0  0  0  0  0  0  0  0  0  0
    5.0689   12.2953   27.6517 C   0  0  0  0  0  0  0  0  0  0  0  0
   10.8645   13.4425   23.3256 C   0  0  0  0  0  0  0  0  0  0  0  0
   10.9738   15.8493   20.1357 C   0  0  0  0  0  0  0  0  0  0  0  0
   10.9196   16.0502   21.6534 C   0  0  0  0  0  0  0  0  0  0  0  0
   13.3279   15.8935   21.9146 C   0  0  2  0  0  0  0  0  0  0  0  0
    4.2951   11.9593   28.8662 C   0  0  0  0  0  0  0  0  0  0  0  0
   14.5164   15.1714   22.5609 C   0  0  0  0  0  0  0  0  0  0  0  0
   11.8811   13.9155   22.3047 C   0  0  0  0  0  0  0  0  0  0  0  0
    5.8713   11.4626   27.0265 N   0  0  0  0  0  0  0  0  0  0  0  0
   12.3240   15.9659   19.6178 N   0  0  0  0  0  0  0  0  0  0  0  0
   12.0140   15.3712   22.3712 N   0  0  2  0  0  0  0  0  0  0  0  0
   10.2368   12.2801   22.8856 N   0  0  0  0  0  0  0  0  0  0  0  0
   10.6727   14.0373   24.3815 O   0  0  0  0  0  0  0  0  0  0  0  0
    4.9333   13.8712   26.9859 S   0  0  0  0  0  0  0  0  0  0  0  0
    8.0805    8.3519   23.8566 H   0  0  0  0  0  0  0  0  0  0  0  0
   14.6300   16.1875   17.3304 H   0  0  0  0  0  0  0  0  0  0  0  0
    6.4921    9.4827   25.3681 H   0  0  0  0  0  0  0  0  0  0  0  0
    9.8341    9.6460   22.6911 H   0  0  0  0  0  0  0  0  0  0  0  0
   15.5719   16.0774   19.8689 H   0  0  0  0  0  0  0  0  0  0  0  0
    8.4141   13.2555   24.5557 H   0  0  0  0  0  0  0  0  0  0  0  0
   11.9200   16.0706   17.5191 H   0  0  0  0  0  0  0  0  0  0  0  0
    6.3350   14.1172   24.9836 H   0  0  0  0  0  0  0  0  0  0  0  0
   10.6143   14.8488   19.8565 H   0  0  0  0  0  0  0  0  0  0  0  0
   10.3495   16.5978   19.6295 H   0  0  0  0  0  0  0  0  0  0  0  0
   10.9221   17.1368   21.8897 H   0  0  0  0  0  0  0  0  0  0  0  0
    9.9374   15.6715   22.0044 H   0  0  0  0  0  0  0  0  0  0  0  0
   13.3830   16.9862   22.2421 H   0  0  0  0  0  0  0  0  0  0  0  0
    4.8723   12.1845   29.7767 H   0  0  0  0  0  0  0  0  0  0  0  0
    3.3484   12.5217   28.9192 H   0  0  0  0  0  0  0  0  0  0  0  0
    4.0202   10.8921   28.8963 H   0  0  0  0  0  0  0  0  0  0  0  0
   14.5004   14.1250   22.2731 H   0  0  0  0  0  0  0  0  0  0  0  0
   14.4424   15.2537   23.6406 H   0  0  0  0  0  0  0  0  0  0  0  0
   15.4411   15.6284   22.2229 H   0  0  0  0  0  0  0  0  0  0  0  0
   11.5599   13.6231   21.3000 H   0  0  0  0  0  0  0  0  0  0  0  0
   12.8456   13.4442   22.5182 H   0  0  0  0  0  0  0  0  0  0  0  0
   10.5230   11.9111   21.9813 H   0  0  0  0  0  0  0  0  0  0  0  0
  1  3  2  0  0  0  0
  1  4  1  0  0  0  0
  2  5  1  0  0  0  0
  2  7  2  0  0  0  0
  3  9  1  0  0  0  0
  4 10  2  0  0  0  0
  5 12  2  0  0  0  0
  6  9  2  0  0  0  0
  6 10  1  0  0  0  0
  7 22  1  0  0  0  0
  8 11  2  0  0  0  0
  8 26  1  0  0  0  0
  9 11  1  0  0  0  0
 10 24  1  0  0  0  0
 11 21  1  0  0  0  0
 12 17  1  0  0  0  0
 12 22  1  0  0  0  0
 13 18  1  0  0  0  0
 13 21  2  0  0  0  0
 13 26  1  0  0  0  0
 14 20  1  0  0  0  0
 14 24  1  0  0  0  0
 14 25  2  0  0  0  0
 15 16  1  0  0  0  0
 15 22  1  0  0  0  0
 16 23  1  0  0  0  0
 17 19  1  0  0  0  0
 17 23  1  0  0  0  0
 20 23  1  0  0  0  0
  1 27  1  0  0  0  0
  2 28  1  0  0  0  0
  3 29  1  0  0  0  0
  4 30  1  0  0  0  0
  5 31  1  0  0  0  0
  6 32  1  0  0  0  0
  7 33  1  0  0  0  0
  8 34  1  0  0  0  0
 15 35  1  0  0  0  0
 15 36  1  0  0  0  0
 16 37  1  0  0  0  0
 16 38  1  0  0  0  0
 17 39  1  0  0  0  0
 18 40  1  0  0  0  0
 18 41  1  0  0  0  0
 18 42  1  0  0  0  0
 19 43  1  0  0  0  0
 19 44  1  0  0  0  0
 19 45  1  0  0  0  0
 20 46  1  0  0  0  0
 20 47  1  0  0  0  0
 24 48  1  0  0  0  0
M  END
> <Catalog ID>
Z105311976

> <PlateID>
1041831-R-13

> <Well>
C04

> <MW (desalted)>
366.480

> <ClogP>
3.838

> <HBD>
1

> <TPSA>
50.160

> <RotBonds>
4

> <ROCS_ShapeQuery>
A71EV2A-x0451_0A_A71EV2A-x0310_0A_A71EV2A-x0416_0A_peptide

> <ROCS_TanimotoCombo>
0.522 

> <ROCS_ShapeTanimoto>
0.373 

> <ROCS_ColorTanimoto>
0.148 

> <ROCS_RefTversky>
0.330 

> <ROCS_RefColorTversky>
0.168 

> <ROCS_RefTverskyCombo>
0.498 

> <ROCS_FitTversky>
1.546 

> <ROCS_FitColorTversky>
0.558 

> <ROCS_FitTverskyCombo>
2.104 

> <ROCS_ColorScore>
-5.133

> <ROCS_Overlap>
2293.361

> <ROCS_Rank>
318                 

$$$$
untitled-dbase-590_674
  -OEChem-11132311063D

 40 42  0     1  0  0  0  0  0999 V2000
    7.1310   12.9259   26.0273 C   0  0  0  0  0  0  0  0  0  0  0  0
    6.1656   11.9342   25.9051 C   0  0  0  0  0  0  0  0  0  0  0  0
    8.3840   12.7536   25.4368 C   0  0  0  0  0  0  0  0  0  0  0  0
    6.4498   10.7798   25.1806 C   0  0  0  0  0  0  0  0  0  0  0  0
   12.8414   17.0779   22.5986 C   0  0  0  0  0  0  0  0  0  0  0  0
   12.5262   15.8629   20.7931 C   0  0  0  0  0  0  0  0  0  0  0  0
    8.7004   11.5904   24.7052 C   0  0  0  0  0  0  0  0  0  0  0  0
   13.2645   16.9206   21.2651 C   0  0  0  0  0  0  0  0  0  0  0  0
    7.6976   10.6152   24.5627 C   0  0  0  0  0  0  0  0  0  0  0  0
   10.6289   13.6975   23.1654 C   0  0  0  0  0  0  0  0  0  0  0  0
    9.9386    9.3723   22.6664 C   0  0  0  0  0  0  0  0  0  0  0  0
   10.6030   10.0541   23.8618 C   0  0  0  0  0  0  0  0  0  0  0  0
    8.4375    9.5962   22.5939 C   0  0  0  0  0  0  0  0  0  0  0  0
   10.1114   11.4773   24.1570 C   0  0  1  0  0  0  0  0  0  0  0  0
   14.2693   17.7119   20.5374 C   0  0  0  0  0  0  0  0  0  0  0  0
   10.7716   14.3714   21.8175 C   0  0  0  0  0  0  0  0  0  0  0  0
   11.9068   16.1912   22.9510 N   0  0  0  0  0  0  0  0  0  0  0  0
   11.7364   15.4666   21.8320 N   0  0  0  0  0  0  0  0  0  0  0  0
   10.3085   12.3562   23.0264 N   0  0  0  0  0  0  0  0  0  0  0  0
   10.7794   14.2833   24.2342 O   0  0  0  0  0  0  0  0  0  0  0  0
    7.8426    9.4342   23.8792 O   0  0  0  0  0  0  0  0  0  0  0  0
    6.9091   13.8382   26.5720 H   0  0  0  0  0  0  0  0  0  0  0  0
    5.1923   12.0596   26.3691 H   0  0  0  0  0  0  0  0  0  0  0  0
    9.1240   13.5479   25.5434 H   0  0  0  0  0  0  0  0  0  0  0  0
    5.6951    9.9960   25.1029 H   0  0  0  0  0  0  0  0  0  0  0  0
   13.1731   17.8014   23.3298 H   0  0  0  0  0  0  0  0  0  0  0  0
   12.4955   15.3716   19.8301 H   0  0  0  0  0  0  0  0  0  0  0  0
   10.4095    9.7257   21.7388 H   0  0  0  0  0  0  0  0  0  0  0  0
   10.1335    8.2932   22.7313 H   0  0  0  0  0  0  0  0  0  0  0  0
   10.4551    9.4320   24.7499 H   0  0  0  0  0  0  0  0  0  0  0  0
   11.6816   10.0846   23.6799 H   0  0  0  0  0  0  0  0  0  0  0  0
    8.2525   10.6334   22.2958 H   0  0  0  0  0  0  0  0  0  0  0  0
    7.9655    8.9621   21.8327 H   0  0  0  0  0  0  0  0  0  0  0  0
   10.8067   11.8844   24.9272 H   0  0  0  0  0  0  0  0  0  0  0  0
   15.2789   17.2792   20.6484 H   0  0  0  0  0  0  0  0  0  0  0  0
   14.0516   17.7714   19.4556 H   0  0  0  0  0  0  0  0  0  0  0  0
   14.3159   18.7574   20.8927 H   0  0  0  0  0  0  0  0  0  0  0  0
    9.8033   14.7747   21.5004 H   0  0  0  0  0  0  0  0  0  0  0  0
   11.0991   13.6407   21.0692 H   0  0  0  0  0  0  0  0  0  0  0  0
   10.1704   11.9686   22.0989 H   0  0  0  0  0  0  0  0  0  0  0  0
  1  2  2  0  0  0  0
  1  3  1  0  0  0  0
  2  4  1  0  0  0  0
  3  7  2  0  0  0  0
  4  9  2  0  0  0  0
  5  8  1  0  0  0  0
  5 17  2  0  0  0  0
  6  8  2  0  0  0  0
  6 18  1  0  0  0  0
  7  9  1  0  0  0  0
  7 14  1  0  0  0  0
  8 15  1  0  0  0  0
  9 21  1  0  0  0  0
 10 16  1  0  0  0  0
 10 19  1  0  0  0  0
 10 20  2  0  0  0  0
 11 12  1  0  0  0  0
 11 13  1  0  0  0  0
 12 14  1  0  0  0  0
 13 21  1  0  0  0  0
 14 19  1  0  0  0  0
 16 18  1  0  0  0  0
 17 18  1  0  0  0  0
  1 22  1  0  0  0  0
  2 23  1  0  0  0  0
  3 24  1  0  0  0  0
  4 25  1  0  0  0  0
  5 26  1  0  0  0  0
  6 27  1  0  0  0  0
 11 28  1  0  0  0  0
 11 29  1  0  0  0  0
 12 30  1  0  0  0  0
 12 31  1  0  0  0  0
 13 32  1  0  0  0  0
 13 33  1  0  0  0  0
 14 34  1  0  0  0  0
 15 35  1  0  0  0  0
 15 36  1  0  0  0  0
 15 37  1  0  0  0  0
 16 38  1  0  0  0  0
 16 39  1  0  0  0  0
 19 40  1  0  0  0  0
M  END
> <Catalog ID>
Z982663288

> <PlateID>
1041831-R-08

> <Well>
C11

> <MW (desalted)>
285.341

> <ClogP>
1.937

> <HBD>
1

> <TPSA>
56.150

> <RotBonds>
3

> <ROCS_ShapeQuery>
A71EV2A-x0451_0A_A71EV2A-x0310_0A_A71EV2A-x0416_0A_peptide

> <ROCS_TanimotoCombo>
0.522 

> <ROCS_ShapeTanimoto>
0.335 

> <ROCS_ColorTanimoto>
0.187 

> <ROCS_RefTversky>
0.297 

> <ROCS_RefColorTversky>
0.200 

> <ROCS_RefTverskyCombo>
0.496 

> <ROCS_FitTversky>
1.627 

> <ROCS_FitColorTversky>
0.739 

> <ROCS_FitTverskyCombo>
2.367 

> <ROCS_ColorScore>
-6.091

> <ROCS_Overlap>
2059.209

> <ROCS_Rank>
319                 

$$$$
untitled-dbase-1119_2119
  -OEChem-11132311063D

 45 48  0     1  0  0  0  0  0999 V2000
   14.1082   16.7008   17.5724 C   0  0  0  0  0  0  0  0  0  0  0  0
   15.0544   17.0376   18.5401 C   0  0  0  0  0  0  0  0  0  0  0  0
    5.9034   13.3714   28.3547 C   0  0  0  0  0  0  0  0  0  0  0  0
    6.7770   12.8865   27.3877 C   0  0  0  0  0  0  0  0  0  0  0  0
   12.8385   16.2667   17.9557 C   0  0  0  0  0  0  0  0  0  0  0  0
   14.7362   16.9373   19.8942 C   0  0  0  0  0  0  0  0  0  0  0  0
    4.5851   12.9476   28.3087 C   0  0  0  0  0  0  0  0  0  0  0  0
    4.9755   11.6422   26.4589 C   0  0  0  0  0  0  0  0  0  0  0  0
    7.0114   10.2451   24.8363 C   0  0  0  0  0  0  0  0  0  0  0  0
    6.3121   12.0050   26.4180 C   0  0  0  0  0  0  0  0  0  0  0  0
   12.5147   16.1501   19.3116 C   0  0  0  0  0  0  0  0  0  0  0  0
   13.4712   16.4851   20.2771 C   0  0  0  0  0  0  0  0  0  0  0  0
    7.1886   11.4881   25.4071 C   0  0  0  0  0  0  0  0  0  0  0  0
    8.8974   11.5099   24.0324 C   0  0  0  0  0  0  0  0  0  0  0  0
   11.9916   15.8322   22.1322 C   0  0  0  0  0  0  0  0  0  0  0  0
   10.7766   13.0606   23.3947 C   0  0  0  0  0  0  0  0  0  0  0  0
   11.1281   15.7715   19.7482 C   0  0  0  0  0  0  0  0  0  0  0  0
   11.1258   15.0916   21.1197 C   0  0  1  0  0  0  0  0  0  0  0  0
   11.9370   13.0585   22.4070 C   0  0  0  0  0  0  0  0  0  0  0  0
   11.5868   13.6348   21.0385 C   0  0  0  0  0  0  0  0  0  0  0  0
    4.0968   12.0924   27.3824 N   0  0  0  0  0  0  0  0  0  0  0  0
    8.2698   12.2146   24.9477 N   0  0  0  0  0  0  0  0  0  0  0  0
   13.1554   16.3935   21.6439 N   0  0  0  0  0  0  0  0  0  0  0  0
   10.0532   11.8748   23.3018 N   0  0  0  0  0  0  0  0  0  0  0  0
   11.7017   15.8414   23.3296 O   0  0  0  0  0  0  0  0  0  0  0  0
   10.5475   14.0154   24.1295 O   0  0  0  0  0  0  0  0  0  0  0  0
    8.2415    9.9650   23.6745 S   0  0  0  0  0  0  0  0  0  0  0  0
   14.3636   16.7655   16.5187 H   0  0  0  0  0  0  0  0  0  0  0  0
   16.0422   17.3737   18.2385 H   0  0  0  0  0  0  0  0  0  0  0  0
    6.2438   14.0598   29.1197 H   0  0  0  0  0  0  0  0  0  0  0  0
    7.8165   13.2043   27.4029 H   0  0  0  0  0  0  0  0  0  0  0  0
   12.1090   16.0123   17.1913 H   0  0  0  0  0  0  0  0  0  0  0  0
   15.4766   17.2185   20.6385 H   0  0  0  0  0  0  0  0  0  0  0  0
    3.8644   13.2973   29.0404 H   0  0  0  0  0  0  0  0  0  0  0  0
    4.5499   10.9580   25.7302 H   0  0  0  0  0  0  0  0  0  0  0  0
    6.2470    9.5057   25.0317 H   0  0  0  0  0  0  0  0  0  0  0  0
   10.4875   16.6673   19.7861 H   0  0  0  0  0  0  0  0  0  0  0  0
   10.7011   15.1005   18.9848 H   0  0  0  0  0  0  0  0  0  0  0  0
   10.1102   15.1017   21.5329 H   0  0  0  0  0  0  0  0  0  0  0  0
   12.7842   13.6024   22.8412 H   0  0  0  0  0  0  0  0  0  0  0  0
   12.2455   12.0135   22.2792 H   0  0  0  0  0  0  0  0  0  0  0  0
   12.4749   13.5931   20.3990 H   0  0  0  0  0  0  0  0  0  0  0  0
   10.8103   13.0365   20.5513 H   0  0  0  0  0  0  0  0  0  0  0  0
   13.8374   16.7474   22.3106 H   0  0  0  0  0  0  0  0  0  0  0  0
   10.3955   11.1906   22.6304 H   0  0  0  0  0  0  0  0  0  0  0  0
  1  2  2  0  0  0  0
  1  5  1  0  0  0  0
  2  6  1  0  0  0  0
  3  4  1  0  0  0  0
  3  7  2  0  0  0  0
  4 10  2  0  0  0  0
  5 11  2  0  0  0  0
  6 12  2  0  0  0  0
  7 21  1  0  0  0  0
  8 10  1  0  0  0  0
  8 21  2  0  0  0  0
  9 13  2  0  0  0  0
  9 27  1  0  0  0  0
 10 13  1  0  0  0  0
 11 12  1  0  0  0  0
 11 17  1  0  0  0  0
 12 23  1  0  0  0  0
 13 22  1  0  0  0  0
 14 22  2  0  0  0  0
 14 24  1  0  0  0  0
 14 27  1  0  0  0  0
 15 18  1  0  0  0  0
 15 23  1  0  0  0  0
 15 25  2  0  0  0  0
 16 19  1  0  0  0  0
 16 24  1  0  0  0  0
 16 26  2  0  0  0  0
 17 18  1  0  0  0  0
 18 20  1  0  0  0  0
 19 20  1  0  0  0  0
  1 28  1  0  0  0  0
  2 29  1  0  0  0  0
  3 30  1  0  0  0  0
  4 31  1  0  0  0  0
  5 32  1  0  0  0  0
  6 33  1  0  0  0  0
  7 34  1  0  0  0  0
  8 35  1  0  0  0  0
  9 36  1  0  0  0  0
 17 37  1  0  0  0  0
 17 38  1  0  0  0  0
 18 39  1  0  0  0  0
 19 40  1  0  0  0  0
 19 41  1  0  0  0  0
 20 42  1  0  0  0  0
 20 43  1  0  0  0  0
 23 44  1  0  0  0  0
 24 45  1  0  0  0  0
M  END
> <Catalog ID>
Z229598218

> <PlateID>
1041831-R-14

> <Well>
H10

> <MW (desalted)>
378.448

> <ClogP>
2.679

> <HBD>
2

> <TPSA>
83.980

> <RotBonds>
5

> <ROCS_ShapeQuery>
A71EV2A-x0451_0A_A71EV2A-x0310_0A_A71EV2A-x0416_0A_peptide

> <ROCS_TanimotoCombo>
0.522 

> <ROCS_ShapeTanimoto>
0.337 

> <ROCS_ColorTanimoto>
0.185 

> <ROCS_RefTversky>
0.307 

> <ROCS_RefColorTversky>
0.213 

> <ROCS_RefTverskyCombo>
0.520 

> <ROCS_FitTversky>
1.398 

> <ROCS_FitColorTversky>
0.587 

> <ROCS_FitTverskyCombo>
1.985 

> <ROCS_ColorScore>
-6.508

> <ROCS_Overlap>
2137.393

> <ROCS_Rank>
320                 

$$$$
untitled-dbase-2783_303
  -OEChem-11132311063D

 46 49  0     1  0  0  0  0  0999 V2000
   12.4584   15.9237   18.4547 C   0  0  0  0  0  0  0  0  0  0  0  0
   13.6659   16.6207   18.4532 C   0  0  0  0  0  0  0  0  0  0  0  0
   13.9953   16.0552   20.7795 C   0  0  0  0  0  0  0  0  0  0  0  0
   12.7820   15.3569   20.7890 C   0  0  0  0  0  0  0  0  0  0  0  0
   12.0133   15.2977   19.6219 C   0  0  0  0  0  0  0  0  0  0  0  0
   14.4332   16.6874   19.6146 C   0  0  0  0  0  0  0  0  0  0  0  0
   12.3251   14.6769   21.9933 C   0  0  0  0  0  0  0  0  0  0  0  0
   11.1138   14.1173   21.9576 C   0  0  0  0  0  0  0  0  0  0  0  0
   10.6367   13.4393   23.1644 C   0  0  0  0  0  0  0  0  0  0  0  0
   10.2279   14.1548   20.7534 C   0  0  0  0  0  0  0  0  0  0  0  0
    7.0004   12.3943   25.5873 C   0  0  0  0  0  0  0  0  0  0  0  0
    8.0987   11.3398   25.8753 C   0  0  0  0  0  0  0  0  0  0  0  0
    7.7834   12.7830   24.3075 C   0  0  0  0  0  0  0  0  0  0  0  0
    9.4507    9.8283   23.4675 C   0  0  0  0  0  0  0  0  0  0  0  0
    9.8856   11.2248   23.9940 C   0  0  2  0  0  0  0  0  0  0  0  0
    7.9768   10.3212   23.4685 C   0  0  2  0  0  0  0  0  0  0  0  0
    8.4439   11.4267   24.3995 C   0  0  0  0  0  0  0  0  0  0  0  0
    6.6678    8.5548   21.7476 C   0  0  0  0  0  0  0  0  0  0  0  0
    7.0040    8.2014   23.1807 C   0  0  0  0  0  0  0  0  0  0  0  0
   10.3717   12.1121   22.9393 N   0  0  0  0  0  0  0  0  0  0  0  0
   10.5156   14.0526   24.2191 O   0  0  0  0  0  0  0  0  0  0  0  0
   10.8278   14.6204   19.5338 O   0  0  0  0  0  0  0  0  0  0  0  0
    7.0042    9.3834   23.9592 O   0  0  0  0  0  0  0  0  0  0  0  0
   15.5945   17.3550   19.6121 F   0  0  0  0  0  0  0  0  0  0  0  0
   11.8684   15.8732   17.5434 H   0  0  0  0  0  0  0  0  0  0  0  0
   14.0095   17.1097   17.5464 H   0  0  0  0  0  0  0  0  0  0  0  0
   14.6110   16.1134   21.6740 H   0  0  0  0  0  0  0  0  0  0  0  0
   12.9648   14.6546   22.8681 H   0  0  0  0  0  0  0  0  0  0  0  0
    9.8502   13.1473   20.5455 H   0  0  0  0  0  0  0  0  0  0  0  0
    9.3599   14.7932   20.9549 H   0  0  0  0  0  0  0  0  0  0  0  0
    6.0149   11.9598   25.3844 H   0  0  0  0  0  0  0  0  0  0  0  0
    6.8938   13.1846   26.3348 H   0  0  0  0  0  0  0  0  0  0  0  0
    8.8835   11.7108   26.5451 H   0  0  0  0  0  0  0  0  0  0  0  0
    7.7415   10.3806   26.2582 H   0  0  0  0  0  0  0  0  0  0  0  0
    7.1679   12.9758   23.4248 H   0  0  0  0  0  0  0  0  0  0  0  0
    8.4600   13.6316   24.4608 H   0  0  0  0  0  0  0  0  0  0  0  0
    9.8428    9.5387   22.4877 H   0  0  0  0  0  0  0  0  0  0  0  0
    9.6478    9.0130   24.1740 H   0  0  0  0  0  0  0  0  0  0  0  0
   10.6054   11.1786   24.8180 H   0  0  0  0  0  0  0  0  0  0  0  0
    7.6733   10.6903   22.4799 H   0  0  0  0  0  0  0  0  0  0  0  0
    5.6787    9.0164   21.6813 H   0  0  0  0  0  0  0  0  0  0  0  0
    7.4095    9.2476   21.3367 H   0  0  0  0  0  0  0  0  0  0  0  0
    6.6833    7.6605   21.1159 H   0  0  0  0  0  0  0  0  0  0  0  0
    7.9944    7.7402   23.2400 H   0  0  0  0  0  0  0  0  0  0  0  0
    6.2616    7.5098   23.5900 H   0  0  0  0  0  0  0  0  0  0  0  0
   10.5171   11.7361   22.0147 H   0  0  0  0  0  0  0  0  0  0  0  0
  1  2  1  0  0  0  0
  1  5  2  0  0  0  0
  2  6  2  0  0  0  0
  3  4  2  0  0  0  0
  3  6  1  0  0  0  0
  4  5  1  0  0  0  0
  4  7  1  0  0  0  0
  5 22  1  0  0  0  0
  6 24  1  0  0  0  0
  7  8  2  0  0  0  0
  8  9  1  0  0  0  0
  8 10  1  0  0  0  0
  9 20  1  0  0  0  0
  9 21  2  0  0  0  0
 10 22  1  0  0  0  0
 11 12  1  0  0  0  0
 11 13  1  0  0  0  0
 12 17  1  0  0  0  0
 13 17  1  0  0  0  0
 14 15  1  0  0  0  0
 14 16  1  0  0  0  0
 15 17  1  0  0  0  0
 15 20  1  0  0  0  0
 16 17  1  0  0  0  0
 16 23  1  0  0  0  0
 18 19  1  0  0  0  0
 19 23  1  0  0  0  0
  1 25  1  0  0  0  0
  2 26  1  0  0  0  0
  3 27  1  0  0  0  0
  7 28  1  0  0  0  0
 10 29  1  0  0  0  0
 10 30  1  0  0  0  0
 11 31  1  0  0  0  0
 11 32  1  0  0  0  0
 12 33  1  0  0  0  0
 12 34  1  0  0  0  0
 13 35  1  0  0  0  0
 13 36  1  0  0  0  0
 14 37  1  0  0  0  0
 14 38  1  0  0  0  0
 15 39  1  0  0  0  0
 16 40  1  0  0  0  0
 18 41  1  0  0  0  0
 18 42  1  0  0  0  0
 18 43  1  0  0  0  0
 19 44  1  0  0  0  0
 19 45  1  0  0  0  0
 20 46  1  0  0  0  0
M  END
> <Catalog ID>
Z1537601982

> <PlateID>
1041831-R-35

> <Well>
G04

> <MW (desalted)>
331.381

> <ClogP>
4.116

> <HBD>
1

> <TPSA>
47.560

> <RotBonds>
4

> <ROCS_ShapeQuery>
A71EV2A-x0451_0A_A71EV2A-x0310_0A_A71EV2A-x0416_0A_peptide

> <ROCS_TanimotoCombo>
0.521 

> <ROCS_ShapeTanimoto>
0.339 

> <ROCS_ColorTanimoto>
0.183 

> <ROCS_RefTversky>
0.304 

> <ROCS_RefColorTversky>
0.201 

> <ROCS_RefTverskyCombo>
0.505 

> <ROCS_FitTversky>
1.512 

> <ROCS_FitColorTversky>
0.667 

> <ROCS_FitTverskyCombo>
2.179 

> <ROCS_ColorScore>
-6.143

> <ROCS_Overlap>
2111.159

> <ROCS_Rank>
321                 

$$$$
untitled-dbase-896_2989
  -OEChem-11132311063D

 52 54  0     1  0  0  0  0  0999 V2000
    6.0566   12.0856   25.5853 C   0  0  0  0  0  0  0  0  0  0  0  0
    5.7914   10.7188   25.5280 C   0  0  0  0  0  0  0  0  0  0  0  0
    7.2796   12.5974   25.1367 C   0  0  0  0  0  0  0  0  0  0  0  0
    6.7365    9.8218   25.0221 C   0  0  0  0  0  0  0  0  0  0  0  0
   10.0279   10.6298   23.7452 C   0  0  0  0  0  0  0  0  0  0  0  0
    8.2480   11.7122   24.6226 C   0  0  0  0  0  0  0  0  0  0  0  0
    9.5592   11.8753   24.0943 C   0  0  0  0  0  0  0  0  0  0  0  0
    7.9547   10.3476   24.5773 C   0  0  0  0  0  0  0  0  0  0  0  0
   13.1370   12.7963   22.8395 C   0  0  0  0  0  0  0  0  0  0  0  0
   11.0836   14.9108   22.3012 C   0  0  0  0  0  0  0  0  0  0  0  0
   14.4687   15.0213   19.3043 C   0  0  0  0  0  0  0  0  0  0  0  0
   13.9116   15.8504   18.1546 C   0  0  0  0  0  0  0  0  0  0  0  0
   14.5367   15.7214   20.6577 C   0  0  0  0  0  0  0  0  0  0  0  0
   12.3858   15.8414   18.1071 C   0  0  0  0  0  0  0  0  0  0  0  0
   13.4786   16.7739   20.9827 C   0  0  0  0  0  0  0  0  0  0  0  0
   11.7041   16.7381   19.1351 C   0  0  0  0  0  0  0  0  0  0  0  0
   12.0266   16.4685   20.6077 C   0  0  0  0  0  0  0  0  0  0  0  0
   14.2289   11.9280   22.3085 C   0  0  0  0  0  0  0  0  0  0  0  0
   10.3113   13.1748   23.9410 C   0  0  0  0  0  0  0  0  0  0  0  0
   10.7582   13.4344   22.4978 C   0  0  2  0  0  0  0  0  0  0  0  0
    9.0530    9.7149   24.0401 N   0  0  0  0  0  0  0  0  0  0  0  0
   11.5927   15.1636   21.0368 N   0  0  0  0  0  0  0  0  0  0  0  0
   11.9411   12.6873   22.1514 N   0  0  0  0  0  0  0  0  0  0  0  0
   13.3544   13.5170   23.8065 O   0  0  0  0  0  0  0  0  0  0  0  0
   10.9445   15.7504   23.1880 O   0  0  0  0  0  0  0  0  0  0  0  0
    5.3057   12.7634   25.9823 H   0  0  0  0  0  0  0  0  0  0  0  0
    4.8348   10.3430   25.8819 H   0  0  0  0  0  0  0  0  0  0  0  0
    7.4708   13.6655   25.1872 H   0  0  0  0  0  0  0  0  0  0  0  0
    6.5296    8.7579   24.9788 H   0  0  0  0  0  0  0  0  0  0  0  0
   10.9663   10.3117   23.3123 H   0  0  0  0  0  0  0  0  0  0  0  0
   13.8848   14.0935   19.3980 H   0  0  0  0  0  0  0  0  0  0  0  0
   15.4855   14.7043   19.0283 H   0  0  0  0  0  0  0  0  0  0  0  0
   14.2734   16.8709   18.2313 H   0  0  0  0  0  0  0  0  0  0  0  0
   14.2897   15.4368   17.2238 H   0  0  0  0  0  0  0  0  0  0  0  0
   14.4574   14.9215   21.4395 H   0  0  0  0  0  0  0  0  0  0  0  0
   15.5666   16.1387   20.8279 H   0  0  0  0  0  0  0  0  0  0  0  0
   12.0915   16.2024   17.1025 H   0  0  0  0  0  0  0  0  0  0  0  0
   12.0000   14.8047   18.1622 H   0  0  0  0  0  0  0  0  0  0  0  0
   13.5476   17.0285   22.0622 H   0  0  0  0  0  0  0  0  0  0  0  0
   13.7633   17.7153   20.4670 H   0  0  0  0  0  0  0  0  0  0  0  0
   11.9321   17.7959   18.9077 H   0  0  0  0  0  0  0  0  0  0  0  0
   10.6090   16.6671   18.9957 H   0  0  0  0  0  0  0  0  0  0  0  0
   11.3870   17.1850   21.1819 H   0  0  0  0  0  0  0  0  0  0  0  0
   14.8281   12.4325   21.5335 H   0  0  0  0  0  0  0  0  0  0  0  0
   14.9497   11.6344   23.0885 H   0  0  0  0  0  0  0  0  0  0  0  0
   13.8982   10.9826   21.8494 H   0  0  0  0  0  0  0  0  0  0  0  0
    9.6905   14.0058   24.3024 H   0  0  0  0  0  0  0  0  0  0  0  0
   11.1795   13.1507   24.6129 H   0  0  0  0  0  0  0  0  0  0  0  0
    9.9818   13.1397   21.7820 H   0  0  0  0  0  0  0  0  0  0  0  0
    9.1280    8.7188   23.8860 H   0  0  0  0  0  0  0  0  0  0  0  0
   11.6630   14.3922   20.3819 H   0  0  0  0  0  0  0  0  0  0  0  0
   11.8946   12.0477   21.3615 H   0  0  0  0  0  0  0  0  0  0  0  0
  1  2  2  0  0  0  0
  1  3  1  0  0  0  0
  2  4  1  0  0  0  0
  3  6  2  0  0  0  0
  4  8  2  0  0  0  0
  5  7  2  0  0  0  0
  5 21  1  0  0  0  0
  6  7  1  0  0  0  0
  6  8  1  0  0  0  0
  7 19  1  0  0  0  0
  8 21  1  0  0  0  0
  9 18  1  0  0  0  0
  9 23  1  0  0  0  0
  9 24  2  0  0  0  0
 10 20  1  0  0  0  0
 10 22  1  0  0  0  0
 10 25  2  0  0  0  0
 11 12  1  0  0  0  0
 11 13  1  0  0  0  0
 12 14  1  0  0  0  0
 13 15  1  0  0  0  0
 14 16  1  0  0  0  0
 15 17  1  0  0  0  0
 16 17  1  0  0  0  0
 17 22  1  0  0  0  0
 19 20  1  0  0  0  0
 20 23  1  1  0  0  0
  1 26  1  0  0  0  0
  2 27  1  0  0  0  0
  3 28  1  0  0  0  0
  4 29  1  0  0  0  0
  5 30  1  0  0  0  0
 11 31  1  0  0  0  0
 11 32  1  0  0  0  0
 12 33  1  0  0  0  0
 12 34  1  0  0  0  0
 13 35  1  0  0  0  0
 13 36  1  0  0  0  0
 14 37  1  0  0  0  0
 14 38  1  0  0  0  0
 15 39  1  0  0  0  0
 15 40  1  0  0  0  0
 16 41  1  0  0  0  0
 16 42  1  0  0  0  0
 17 43  1  0  0  0  0
 18 44  1  0  0  0  0
 18 45  1  0  0  0  0
 18 46  1  0  0  0  0
 19 47  1  0  0  0  0
 19 48  1  0  0  0  0
 20 49  1  0  0  0  0
 21 50  1  0  0  0  0
 22 51  1  0  0  0  0
 23 52  1  0  0  0  0
M  END
> <Catalog ID>
Z99133449

> <PlateID>
1041831-R-12

> <Well>
B07

> <MW (desalted)>
341.447

> <ClogP>
2.662

> <HBD>
3

> <TPSA>
73.990

> <RotBonds>
5

> <ROCS_ShapeQuery>
A71EV2A-x0451_0A_A71EV2A-x0310_0A_A71EV2A-x0416_0A_peptide

> <ROCS_TanimotoCombo>
0.521 

> <ROCS_ShapeTanimoto>
0.348 

> <ROCS_ColorTanimoto>
0.173 

> <ROCS_RefTversky>
0.311 

> <ROCS_RefColorTversky>
0.192 

> <ROCS_RefTverskyCombo>
0.503 

> <ROCS_FitTversky>
1.533 

> <ROCS_FitColorTversky>
0.637 

> <ROCS_FitTverskyCombo>
2.170 

> <ROCS_ColorScore>
-5.859

> <ROCS_Overlap>
2160.003

> <ROCS_Rank>
322                 

$$$$
untitled-dbase-3326_12235
  -OEChem-11132311063D

 42 44  0     0  0  0  0  0  0999 V2000
   14.1277   16.8404   19.7896 C   0  0  0  0  0  0  0  0  0  0  0  0
   13.8374   16.3928   18.5009 C   0  0  0  0  0  0  0  0  0  0  0  0
   13.3164   16.4611   20.8590 C   0  0  0  0  0  0  0  0  0  0  0  0
   12.7357   15.5659   18.2815 C   0  0  0  0  0  0  0  0  0  0  0  0
    5.3506   13.0870   28.5722 C   0  0  0  0  0  0  0  0  0  0  0  0
    4.0453   12.8313   28.9224 C   0  0  0  0  0  0  0  0  0  0  0  0
    9.2642    9.9379   23.0924 C   0  0  0  0  0  0  0  0  0  0  0  0
    5.5322   12.5174   27.2893 C   0  0  0  0  0  0  0  0  0  0  0  0
   12.2147   15.6343   20.6396 C   0  0  0  0  0  0  0  0  0  0  0  0
   11.9243   15.1867   19.3508 C   0  0  0  0  0  0  0  0  0  0  0  0
    9.7880   11.1186   23.5760 C   0  0  0  0  0  0  0  0  0  0  0  0
    4.3249   11.9540   26.9471 C   0  0  0  0  0  0  0  0  0  0  0  0
    7.9248   11.0863   24.7325 C   0  0  0  0  0  0  0  0  0  0  0  0
    6.7476   12.5075   26.4573 C   0  0  0  0  0  0  0  0  0  0  0  0
   11.1113   13.2448   23.2514 C   0  0  0  0  0  0  0  0  0  0  0  0
    3.8499   11.2186   25.7651 C   0  0  0  0  0  0  0  0  0  0  0  0
   11.3693   15.2524   21.8117 C   0  0  0  0  0  0  0  0  0  0  0  0
   11.1016   11.7306   23.1670 C   0  0  0  0  0  0  0  0  0  0  0  0
    9.0211   11.7787   24.5162 N   0  0  0  0  0  0  0  0  0  0  0  0
    6.8991   11.3871   25.5890 N   0  0  0  0  0  0  0  0  0  0  0  0
   11.3206   13.8268   22.0065 N   0  0  0  0  0  0  0  0  0  0  0  0
    7.5831   13.4047   26.5471 O   0  0  0  0  0  0  0  0  0  0  0  0
   10.9486   13.8666   24.2982 O   0  0  0  0  0  0  0  0  0  0  0  0
    3.4132   12.1409   27.9373 O   0  0  0  0  0  0  0  0  0  0  0  0
    7.7514    9.6310   23.8398 S   0  0  0  0  0  0  0  0  0  0  0  0
   10.5700   14.1625   19.0407 Cl  0  0  0  0  0  0  0  0  0  0  0  0
   14.9862   17.4837   19.9605 H   0  0  0  0  0  0  0  0  0  0  0  0
   14.4701   16.6874   17.6687 H   0  0  0  0  0  0  0  0  0  0  0  0
   13.5518   16.8152   21.8593 H   0  0  0  0  0  0  0  0  0  0  0  0
   12.5238   15.2248   17.2713 H   0  0  0  0  0  0  0  0  0  0  0  0
    6.0774   13.6183   29.1702 H   0  0  0  0  0  0  0  0  0  0  0  0
    3.4455   13.0609   29.7909 H   0  0  0  0  0  0  0  0  0  0  0  0
    9.6816    9.2605   22.3609 H   0  0  0  0  0  0  0  0  0  0  0  0
    4.0101   10.1318   25.8761 H   0  0  0  0  0  0  0  0  0  0  0  0
    2.7720   11.3767   25.5786 H   0  0  0  0  0  0  0  0  0  0  0  0
    4.3644   11.5361   24.8396 H   0  0  0  0  0  0  0  0  0  0  0  0
   11.7544   15.7013   22.7366 H   0  0  0  0  0  0  0  0  0  0  0  0
   10.3368   15.6044   21.6913 H   0  0  0  0  0  0  0  0  0  0  0  0
   11.9046   11.3358   23.8023 H   0  0  0  0  0  0  0  0  0  0  0  0
   11.3436   11.4354   22.1381 H   0  0  0  0  0  0  0  0  0  0  0  0
    6.1207   10.7011   25.6086 H   0  0  0  0  0  0  0  0  0  0  0  0
   11.4446   13.2197   21.1989 H   0  0  0  0  0  0  0  0  0  0  0  0
  1  2  2  0  0  0  0
  1  3  1  0  0  0  0
  2  4  1  0  0  0  0
  3  9  2  0  0  0  0
  4 10  2  0  0  0  0
  5  6  2  0  0  0  0
  5  8  1  0  0  0  0
  6 24  1  0  0  0  0
  7 11  2  0  0  0  0
  7 25  1  0  0  0  0
  8 12  2  0  0  0  0
  8 14  1  0  0  0  0
  9 10  1  0  0  0  0
  9 17  1  0  0  0  0
 10 26  1  0  0  0  0
 11 18  1  0  0  0  0
 11 19  1  0  0  0  0
 12 16  1  0  0  0  0
 12 24  1  0  0  0  0
 13 19  2  0  0  0  0
 13 20  1  0  0  0  0
 13 25  1  0  0  0  0
 14 20  1  0  0  0  0
 14 22  2  0  0  0  0
 15 18  1  0  0  0  0
 15 21  1  0  0  0  0
 15 23  2  0  0  0  0
 17 21  1  0  0  0  0
  1 27  1  0  0  0  0
  2 28  1  0  0  0  0
  3 29  1  0  0  0  0
  4 30  1  0  0  0  0
  5 31  1  0  0  0  0
  6 32  1  0  0  0  0
  7 33  1  0  0  0  0
 16 34  1  0  0  0  0
 16 35  1  0  0  0  0
 16 36  1  0  0  0  0
 17 37  1  0  0  0  0
 17 38  1  0  0  0  0
 18 39  1  0  0  0  0
 18 40  1  0  0  0  0
 20 41  1  0  0  0  0
 21 42  1  0  0  0  0
M  END
> <Catalog ID>
Z441697100

> <PlateID>
1041831-R-42

> <Well>
E07

> <MW (desalted)>
389.856

> <ClogP>
2.510

> <HBD>
2

> <TPSA>
84.230

> <RotBonds>
6

> <ROCS_ShapeQuery>
A71EV2A-x0451_0A_A71EV2A-x0310_0A_A71EV2A-x0416_0A_peptide

> <ROCS_TanimotoCombo>
0.521 

> <ROCS_ShapeTanimoto>
0.345 

> <ROCS_ColorTanimoto>
0.176 

> <ROCS_RefTversky>
0.311 

> <ROCS_RefColorTversky>
0.199 

> <ROCS_RefTverskyCombo>
0.510 

> <ROCS_FitTversky>
1.481 

> <ROCS_FitColorTversky>
0.601 

> <ROCS_FitTverskyCombo>
2.082 

> <ROCS_ColorScore>
-6.090

> <ROCS_Overlap>
2160.062

> <ROCS_Rank>
323                 

$$$$
untitled-dbase-1382_15
  -OEChem-11132311063D

 44 47  0     1  0  0  0  0  0999 V2000
   10.0447   11.1051   22.8278 C   0  0  0  0  0  0  0  0  0  0  0  0
    9.2941    9.9354   22.9484 C   0  0  0  0  0  0  0  0  0  0  0  0
    8.6478   12.1800   24.4832 C   0  0  0  0  0  0  0  0  0  0  0  0
    9.7218   12.2259   23.5936 C   0  0  0  0  0  0  0  0  0  0  0  0
    8.2273    9.8887   23.8480 C   0  0  0  0  0  0  0  0  0  0  0  0
    7.9060   11.0060   24.6170 C   0  0  0  0  0  0  0  0  0  0  0  0
    6.4437    8.6141   24.8765 C   0  0  0  0  0  0  0  0  0  0  0  0
   10.5171   13.4731   23.4546 C   0  0  0  0  0  0  0  0  0  0  0  0
    6.3904    9.7551   25.8778 C   0  0  0  0  0  0  0  0  0  0  0  0
   12.5056   15.3354   18.1293 C   0  0  0  0  0  0  0  0  0  0  0  0
   13.7143   16.2514   18.3480 C   0  0  0  0  0  0  0  0  0  0  0  0
   11.6812   15.1842   19.4110 C   0  0  0  0  0  0  0  0  0  0  0  0
   13.1765   14.9190   22.8806 C   0  0  0  0  0  0  0  0  0  0  0  0
   14.5353   15.8463   19.5792 C   0  0  0  0  0  0  0  0  0  0  0  0
   14.3212   15.4179   21.9912 C   0  0  0  0  0  0  0  0  0  0  0  0
   12.5941   14.7813   20.5633 C   0  0  2  0  0  0  0  0  0  0  0  0
   11.9646   14.8120   21.9486 C   0  0  1  0  0  0  0  0  0  0  0  0
    7.4505    8.7298   23.9462 N   0  0  0  0  0  0  0  0  0  0  0  0
   13.6581   15.7762   20.7409 N   0  0  2  0  0  0  0  0  0  0  0  0
   11.1429   13.6691   22.2275 N   0  0  0  0  0  0  0  0  0  0  0  0
    5.6925    7.6443   24.9558 O   0  0  0  0  0  0  0  0  0  0  0  0
   10.5999   14.2414   24.4092 O   0  0  0  0  0  0  0  0  0  0  0  0
    6.8371   11.0333   25.4679 O   0  0  0  0  0  0  0  0  0  0  0  0
   10.8764   11.1346   22.1283 H   0  0  0  0  0  0  0  0  0  0  0  0
    9.5477    9.0725   22.3384 H   0  0  0  0  0  0  0  0  0  0  0  0
    8.3863   13.0564   25.0719 H   0  0  0  0  0  0  0  0  0  0  0  0
    5.3467    9.8669   26.1918 H   0  0  0  0  0  0  0  0  0  0  0  0
    6.9659    9.4519   26.7611 H   0  0  0  0  0  0  0  0  0  0  0  0
   11.8768   15.7316   17.3243 H   0  0  0  0  0  0  0  0  0  0  0  0
   12.8566   14.3475   17.8063 H   0  0  0  0  0  0  0  0  0  0  0  0
   14.3530   16.2364   17.4576 H   0  0  0  0  0  0  0  0  0  0  0  0
   13.3627   17.2840   18.4703 H   0  0  0  0  0  0  0  0  0  0  0  0
   11.1770   16.1338   19.6320 H   0  0  0  0  0  0  0  0  0  0  0  0
   10.8981   14.4321   19.2634 H   0  0  0  0  0  0  0  0  0  0  0  0
   13.4435   13.9509   23.3207 H   0  0  0  0  0  0  0  0  0  0  0  0
   12.9687   15.6171   23.6990 H   0  0  0  0  0  0  0  0  0  0  0  0
   15.0319   14.8851   19.3950 H   0  0  0  0  0  0  0  0  0  0  0  0
   15.3182   16.5955   19.7439 H   0  0  0  0  0  0  0  0  0  0  0  0
   14.8319   16.2766   22.4380 H   0  0  0  0  0  0  0  0  0  0  0  0
   15.0533   14.6131   21.8500 H   0  0  0  0  0  0  0  0  0  0  0  0
   13.0272   13.7893   20.3630 H   0  0  0  0  0  0  0  0  0  0  0  0
   11.3290   15.6985   22.0716 H   0  0  0  0  0  0  0  0  0  0  0  0
    7.6274    7.9645   23.3021 H   0  0  0  0  0  0  0  0  0  0  0  0
   11.0742   12.9504   21.5077 H   0  0  0  0  0  0  0  0  0  0  0  0
  1  2  1  0  0  0  0
  1  4  2  0  0  0  0
  2  5  2  0  0  0  0
  3  4  1  0  0  0  0
  3  6  2  0  0  0  0
  4  8  1  0  0  0  0
  5  6  1  0  0  0  0
  5 18  1  0  0  0  0
  6 23  1  0  0  0  0
  7  9  1  0  0  0  0
  7 18  1  0  0  0  0
  7 21  2  0  0  0  0
  8 20  1  0  0  0  0
  8 22  2  0  0  0  0
  9 23  1  0  0  0  0
 10 11  1  0  0  0  0
 10 12  1  0  0  0  0
 11 14  1  0  0  0  0
 12 16  1  0  0  0  0
 13 15  1  0  0  0  0
 13 17  1  0  0  0  0
 14 19  1  0  0  0  0
 15 19  1  0  0  0  0
 16 17  1  0  0  0  0
 16 19  1  0  0  0  0
 17 20  1  0  0  0  0
  1 24  1  0  0  0  0
  2 25  1  0  0  0  0
  3 26  1  0  0  0  0
  9 27  1  0  0  0  0
  9 28  1  0  0  0  0
 10 29  1  0  0  0  0
 10 30  1  0  0  0  0
 11 31  1  0  0  0  0
 11 32  1  0  0  0  0
 12 33  1  0  0  0  0
 12 34  1  0  0  0  0
 13 35  1  0  0  0  0
 13 36  1  0  0  0  0
 14 37  1  0  0  0  0
 14 38  1  0  0  0  0
 15 39  1  0  0  0  0
 15 40  1  0  0  0  0
 16 41  1  0  0  0  0
 17 42  1  0  0  0  0
 18 43  1  0  0  0  0
 20 44  1  0  0  0  0
M  END
> <Catalog ID>
Z423019650

> <PlateID>
1041831-R-18

> <Well>
C03

> <MW (desalted)>
315.367

> <ClogP>
1.072

> <HBD>
2

> <TPSA>
70.670

> <RotBonds>
2

> <ROCS_ShapeQuery>
A71EV2A-x0451_0A_A71EV2A-x0310_0A_A71EV2A-x0416_0A_peptide

> <ROCS_TanimotoCombo>
0.521 

> <ROCS_ShapeTanimoto>
0.337 

> <ROCS_ColorTanimoto>
0.184 

> <ROCS_RefTversky>
0.301 

> <ROCS_RefColorTversky>
0.212 

> <ROCS_RefTverskyCombo>
0.514 

> <ROCS_FitTversky>
1.536 

> <ROCS_FitColorTversky>
0.585 

> <ROCS_FitTverskyCombo>
2.121 

> <ROCS_ColorScore>
-6.498

> <ROCS_Overlap>
2094.716

> <ROCS_Rank>
324                 

$$$$
untitled-dbase-247_5172
  -OEChem-11132311063D

 49 52  0     1  0  0  0  0  0999 V2000
    8.5376    7.5322   22.8595 C   0  0  0  0  0  0  0  0  0  0  0  0
    7.9989    7.6015   24.1446 C   0  0  0  0  0  0  0  0  0  0  0  0
    4.4915   12.7141   26.2449 C   0  0  0  0  0  0  0  0  0  0  0  0
    9.1779    8.6416   22.3062 C   0  0  0  0  0  0  0  0  0  0  0  0
    8.0975    8.7803   24.8834 C   0  0  0  0  0  0  0  0  0  0  0  0
    5.3119   13.6229   25.5347 C   0  0  0  0  0  0  0  0  0  0  0  0
    5.1646   11.5146   26.2488 C   0  0  0  0  0  0  0  0  0  0  0  0
    9.2677    9.8313   23.0340 C   0  0  0  0  0  0  0  0  0  0  0  0
    8.7280    9.8973   24.3298 C   0  0  0  0  0  0  0  0  0  0  0  0
   12.6764   15.1681   20.8535 C   0  0  0  0  0  0  0  0  0  0  0  0
    6.4280   12.9139   25.1555 C   0  0  0  0  0  0  0  0  0  0  0  0
   13.8383   15.1252   20.0636 C   0  0  0  0  0  0  0  0  0  0  0  0
   11.8152   15.9443   20.1240 C   0  0  0  0  0  0  0  0  0  0  0  0
    7.6136   13.3065   24.4060 C   0  0  0  0  0  0  0  0  0  0  0  0
   10.4842   13.3677   23.2188 C   0  0  0  0  0  0  0  0  0  0  0  0
   10.0006   11.0332   22.4969 C   0  0  0  0  0  0  0  0  0  0  0  0
    8.8752   11.1879   25.0851 C   0  0  0  0  0  0  0  0  0  0  0  0
    9.3921   12.3759   22.9462 C   0  0  1  0  0  0  0  0  0  0  0  0
   15.1047   14.4297   20.3486 C   0  0  0  0  0  0  0  0  0  0  0  0
   10.4371   16.4086   20.3303 C   0  0  0  0  0  0  0  0  0  0  0  0
   12.4307   14.5183   22.1844 C   0  0  0  0  0  0  0  0  0  0  0  0
   13.7077   15.8215   18.9310 N   0  0  0  0  0  0  0  0  0  0  0  0
    8.5961   12.3171   24.1828 N   0  0  0  0  0  0  0  0  0  0  0  0
   11.3163   13.5990   22.1401 N   0  0  0  0  0  0  0  0  0  0  0  0
    7.7321   14.4612   23.9920 O   0  0  0  0  0  0  0  0  0  0  0  0
   10.5662   13.8871   24.3257 O   0  0  0  0  0  0  0  0  0  0  0  0
    6.3460   11.6280   25.5869 O   0  0  0  0  0  0  0  0  0  0  0  0
   12.4192   16.3403   18.9745 O   0  0  0  0  0  0  0  0  0  0  0  0
    8.4566    6.6115   22.2871 H   0  0  0  0  0  0  0  0  0  0  0  0
    7.4988    6.7344   24.5684 H   0  0  0  0  0  0  0  0  0  0  0  0
    3.5296   12.9088   26.6966 H   0  0  0  0  0  0  0  0  0  0  0  0
    9.6029    8.5690   21.3115 H   0  0  0  0  0  0  0  0  0  0  0  0
    7.6809    8.8188   25.8821 H   0  0  0  0  0  0  0  0  0  0  0  0
    5.1107   14.6642   25.3272 H   0  0  0  0  0  0  0  0  0  0  0  0
    4.9493   10.5378   26.6567 H   0  0  0  0  0  0  0  0  0  0  0  0
   11.0491   10.9939   22.8148 H   0  0  0  0  0  0  0  0  0  0  0  0
    9.9801   10.9821   21.4020 H   0  0  0  0  0  0  0  0  0  0  0  0
    8.1803   11.2001   25.9000 H   0  0  0  0  0  0  0  0  0  0  0  0
    9.8881   11.2953   25.4248 H   0  0  0  0  0  0  0  0  0  0  0  0
    8.8121   12.7920   22.1305 H   0  0  0  0  0  0  0  0  0  0  0  0
   15.0950   13.4005   19.9506 H   0  0  0  0  0  0  0  0  0  0  0  0
   15.9742   14.9485   19.9069 H   0  0  0  0  0  0  0  0  0  0  0  0
   15.3104   14.3651   21.4322 H   0  0  0  0  0  0  0  0  0  0  0  0
   10.4117   17.3765   20.8627 H   0  0  0  0  0  0  0  0  0  0  0  0
    9.8910   16.5428   19.3778 H   0  0  0  0  0  0  0  0  0  0  0  0
    9.8354   15.6924   20.9208 H   0  0  0  0  0  0  0  0  0  0  0  0
   13.3152   13.9604   22.5109 H   0  0  0  0  0  0  0  0  0  0  0  0
   12.2164   15.2674   22.9539 H   0  0  0  0  0  0  0  0  0  0  0  0
   11.1361   13.0991   21.2746 H   0  0  0  0  0  0  0  0  0  0  0  0
  1  2  2  0  0  0  0
  1  4  1  0  0  0  0
  2  5  1  0  0  0  0
  3  6  1  0  0  0  0
  3  7  2  0  0  0  0
  4  8  2  0  0  0  0
  5  9  2  0  0  0  0
  6 11  2  0  0  0  0
  7 27  1  0  0  0  0
  8  9  1  0  0  0  0
  8 16  1  0  0  0  0
  9 17  1  0  0  0  0
 10 12  1  0  0  0  0
 10 13  2  0  0  0  0
 10 21  1  0  0  0  0
 11 14  1  0  0  0  0
 11 27  1  0  0  0  0
 12 19  1  0  0  0  0
 12 22  2  0  0  0  0
 13 20  1  0  0  0  0
 13 28  1  0  0  0  0
 14 23  1  0  0  0  0
 14 25  2  0  0  0  0
 15 18  1  0  0  0  0
 15 24  1  0  0  0  0
 15 26  2  0  0  0  0
 16 18  1  0  0  0  0
 17 23  1  0  0  0  0
 18 23  1  0  0  0  0
 21 24  1  0  0  0  0
 22 28  1  0  0  0  0
  1 29  1  0  0  0  0
  2 30  1  0  0  0  0
  3 31  1  0  0  0  0
  4 32  1  0  0  0  0
  5 33  1  0  0  0  0
  6 34  1  0  0  0  0
  7 35  1  0  0  0  0
 16 36  1  0  0  0  0
 16 37  1  0  0  0  0
 17 38  1  0  0  0  0
 17 39  1  0  0  0  0
 18 40  1  0  0  0  0
 19 41  1  0  0  0  0
 19 42  1  0  0  0  0
 19 43  1  0  0  0  0
 20 44  1  0  0  0  0
 20 45  1  0  0  0  0
 20 46  1  0  0  0  0
 21 47  1  0  0  0  0
 21 48  1  0  0  0  0
 24 49  1  0  0  0  0
M  END
> <Catalog ID>
Z828690328

> <PlateID>
1041831-R-04

> <Well>
A08

> <MW (desalted)>
379.409

> <ClogP>
1.574

> <HBD>
1

> <TPSA>
88.580

> <RotBonds>
4

> <ROCS_ShapeQuery>
A71EV2A-x0451_0A_A71EV2A-x0310_0A_A71EV2A-x0416_0A_peptide

> <ROCS_TanimotoCombo>
0.521 

> <ROCS_ShapeTanimoto>
0.375 

> <ROCS_ColorTanimoto>
0.146 

> <ROCS_RefTversky>
0.335 

> <ROCS_RefColorTversky>
0.170 

> <ROCS_RefTverskyCombo>
0.505 

> <ROCS_FitTversky>
1.466 

> <ROCS_FitColorTversky>
0.512 

> <ROCS_FitTverskyCombo>
1.978 

> <ROCS_ColorScore>
-5.188

> <ROCS_Overlap>
2334.031

> <ROCS_Rank>
325                 

$$$$
untitled-dbase-244_742
  -OEChem-11132311063D

 38 40  0     1  0  0  0  0  0999 V2000
    7.9804   12.7572   24.9872 C   0  0  0  0  0  0  0  0  0  0  0  0
    6.8969   12.6073   25.8604 C   0  0  0  0  0  0  0  0  0  0  0  0
    6.9488   10.1924   25.5956 C   0  0  0  0  0  0  0  0  0  0  0  0
    9.7420   10.0377   23.2955 C   0  0  0  0  0  0  0  0  0  0  0  0
   13.4014   16.3440   19.0208 C   0  0  0  0  0  0  0  0  0  0  0  0
    8.5596   11.6109   24.4076 C   0  0  0  0  0  0  0  0  0  0  0  0
    9.6380   11.3935   23.5049 C   0  0  0  0  0  0  0  0  0  0  0  0
    8.0316   10.3575   24.7245 C   0  0  0  0  0  0  0  0  0  0  0  0
    6.3907   11.3437   26.1585 C   0  0  0  0  0  0  0  0  0  0  0  0
   12.8622   15.0540   20.9214 C   0  0  0  0  0  0  0  0  0  0  0  0
   10.3714   15.1150   24.3595 C   0  0  0  0  0  0  0  0  0  0  0  0
   12.6703   13.7315   23.0566 C   0  0  0  0  0  0  0  0  0  0  0  0
    9.8728   15.9611   25.4838 C   0  0  0  0  0  0  0  0  0  0  0  0
   10.4970   12.4293   22.8959 C   0  0  0  0  0  0  0  0  0  0  0  0
   11.5773   13.0031   23.8419 C   0  0  2  0  0  0  0  0  0  0  0  0
   14.4356   16.1997   19.8218 N   0  0  0  0  0  0  0  0  0  0  0  0
   14.1196   15.4422   20.9361 N   0  0  0  0  0  0  0  0  0  0  0  0
    8.7687    9.4212   24.0351 N   0  0  0  0  0  0  0  0  0  0  0  0
   12.1700   14.2717   21.8754 N   0  0  0  0  0  0  0  0  0  0  0  0
   11.0198   13.9622   24.7643 N   0  0  0  0  0  0  0  0  0  0  0  0
   10.1838   15.4749   23.2033 O   0  0  0  0  0  0  0  0  0  0  0  0
   13.8139   13.8350   23.4921 O   0  0  0  0  0  0  0  0  0  0  0  0
    5.3522   11.2294   26.9981 F   0  0  0  0  0  0  0  0  0  0  0  0
   11.9645   15.5754   19.5562 S   0  0  0  0  0  0  0  0  0  0  0  0
    8.3629   13.7492   24.7643 H   0  0  0  0  0  0  0  0  0  0  0  0
    6.4466   13.4878   26.3108 H   0  0  0  0  0  0  0  0  0  0  0  0
    6.5541    9.2093   25.8287 H   0  0  0  0  0  0  0  0  0  0  0  0
   10.4201    9.4550   22.6875 H   0  0  0  0  0  0  0  0  0  0  0  0
   13.4510   16.9034   18.0974 H   0  0  0  0  0  0  0  0  0  0  0  0
   10.6178   16.7025   25.8146 H   0  0  0  0  0  0  0  0  0  0  0  0
    8.9823   16.5474   25.2059 H   0  0  0  0  0  0  0  0  0  0  0  0
    9.5855   15.4125   26.3950 H   0  0  0  0  0  0  0  0  0  0  0  0
    9.8703   13.2676   22.5297 H   0  0  0  0  0  0  0  0  0  0  0  0
   10.9943   12.0499   21.9795 H   0  0  0  0  0  0  0  0  0  0  0  0
   12.0186   12.2099   24.4558 H   0  0  0  0  0  0  0  0  0  0  0  0
    8.6136    8.4232   24.0705 H   0  0  0  0  0  0  0  0  0  0  0  0
   11.1885   14.1046   21.6650 H   0  0  0  0  0  0  0  0  0  0  0  0
   11.1079   13.7818   25.7611 H   0  0  0  0  0  0  0  0  0  0  0  0
  1  2  1  0  0  0  0
  1  6  2  0  0  0  0
  2  9  2  0  0  0  0
  3  8  2  0  0  0  0
  3  9  1  0  0  0  0
  4  7  2  0  0  0  0
  4 18  1  0  0  0  0
  5 16  2  0  0  0  0
  5 24  1  0  0  0  0
  6  7  1  0  0  0  0
  6  8  1  0  0  0  0
  7 14  1  0  0  0  0
  8 18  1  0  0  0  0
  9 23  1  0  0  0  0
 10 17  2  0  0  0  0
 10 19  1  0  0  0  0
 10 24  1  0  0  0  0
 11 13  1  0  0  0  0
 11 20  1  0  0  0  0
 11 21  2  0  0  0  0
 12 15  1  0  0  0  0
 12 19  1  0  0  0  0
 12 22  2  0  0  0  0
 14 15  1  0  0  0  0
 15 20  1  0  0  0  0
 16 17  1  0  0  0  0
  1 25  1  0  0  0  0
  2 26  1  0  0  0  0
  3 27  1  0  0  0  0
  4 28  1  0  0  0  0
  5 29  1  0  0  0  0
 13 30  1  0  0  0  0
 13 31  1  0  0  0  0
 13 32  1  0  0  0  0
 14 33  1  0  0  0  0
 14 34  1  0  0  0  0
 15 35  1  0  0  0  0
 18 36  1  0  0  0  0
 19 37  1  0  0  0  0
 20 38  1  0  0  0  0
M  END
> <Catalog ID>
Z1343793784

> <PlateID>
1041831-R-04

> <Well>
A05

> <MW (desalted)>
347.367

> <ClogP>
0.757

> <HBD>
3

> <TPSA>
99.770

> <RotBonds>
5

> <ROCS_ShapeQuery>
A71EV2A-x0451_0A_A71EV2A-x0310_0A_A71EV2A-x0416_0A_peptide

> <ROCS_TanimotoCombo>
0.521 

> <ROCS_ShapeTanimoto>
0.364 

> <ROCS_ColorTanimoto>
0.157 

> <ROCS_RefTversky>
0.320 

> <ROCS_RefColorTversky>
0.186 

> <ROCS_RefTverskyCombo>
0.506 

> <ROCS_FitTversky>
1.602 

> <ROCS_FitColorTversky>
0.501 

> <ROCS_FitTverskyCombo>
2.103 

> <ROCS_ColorScore>
-5.708

> <ROCS_Overlap>
2224.789

> <ROCS_Rank>
326                 

$$$$
untitled-dbase-977_437
  -OEChem-11132311063D

 46 49  0     1  0  0  0  0  0999 V2000
    5.6588   11.5459   25.6075 C   0  0  0  0  0  0  0  0  0  0  0  0
    6.2550   12.8014   25.7297 C   0  0  0  0  0  0  0  0  0  0  0  0
    6.3541   10.4967   25.0060 C   0  0  0  0  0  0  0  0  0  0  0  0
    7.5441   13.0143   25.2409 C   0  0  0  0  0  0  0  0  0  0  0  0
    7.6486   10.7053   24.5293 C   0  0  0  0  0  0  0  0  0  0  0  0
    8.2347   11.9691   24.6270 C   0  0  0  0  0  0  0  0  0  0  0  0
   12.2900   13.0137   21.2354 C   0  0  0  0  0  0  0  0  0  0  0  0
   11.3340   13.9592   23.0678 C   0  0  0  0  0  0  0  0  0  0  0  0
   13.8854   16.4916   18.8556 C   0  0  0  0  0  0  0  0  0  0  0  0
   12.6607   17.1684   19.4670 C   0  0  0  0  0  0  0  0  0  0  0  0
   14.3848   15.2143   19.5447 C   0  0  0  0  0  0  0  0  0  0  0  0
   11.3751   16.3487   19.4286 C   0  0  0  0  0  0  0  0  0  0  0  0
   13.8389   14.9706   20.9520 C   0  0  0  0  0  0  0  0  0  0  0  0
   11.5033   14.8651   19.7671 C   0  0  0  0  0  0  0  0  0  0  0  0
    9.6954    9.8554   23.8374 C   0  0  0  0  0  0  0  0  0  0  0  0
    9.9565   11.2341   23.2454 C   0  0  2  0  0  0  0  0  0  0  0  0
   12.3617   14.5329   20.9955 C   0  0  0  0  0  0  0  0  0  0  0  0
   11.4430   11.4672   23.0189 C   0  0  0  0  0  0  0  0  0  0  0  0
   11.7280   14.9913   22.2184 N   0  0  0  0  0  0  0  0  0  0  0  0
   11.6861   12.7780   22.4500 N   0  0  0  0  0  0  0  0  0  0  0  0
   12.7159   12.1778   20.4471 O   0  0  0  0  0  0  0  0  0  0  0  0
   10.7813   14.0986   24.1512 O   0  0  0  0  0  0  0  0  0  0  0  0
    8.2879    9.6316   23.9677 O   0  0  0  0  0  0  0  0  0  0  0  0
    9.4886   12.2450   24.1489 O   0  0  0  0  0  0  0  0  0  0  0  0
    4.6532   11.3842   25.9848 H   0  0  0  0  0  0  0  0  0  0  0  0
    5.7127   13.6156   26.2018 H   0  0  0  0  0  0  0  0  0  0  0  0
    5.8851    9.5201   24.9228 H   0  0  0  0  0  0  0  0  0  0  0  0
    7.9972   13.9977   25.3324 H   0  0  0  0  0  0  0  0  0  0  0  0
   13.6417   16.2400   17.8093 H   0  0  0  0  0  0  0  0  0  0  0  0
   14.7109   17.2209   18.7923 H   0  0  0  0  0  0  0  0  0  0  0  0
   12.8923   17.3997   20.5150 H   0  0  0  0  0  0  0  0  0  0  0  0
   12.4976   18.1354   18.9736 H   0  0  0  0  0  0  0  0  0  0  0  0
   14.2212   14.3341   18.8934 H   0  0  0  0  0  0  0  0  0  0  0  0
   15.4850   15.3062   19.6276 H   0  0  0  0  0  0  0  0  0  0  0  0
   10.5894   16.8309   20.0548 H   0  0  0  0  0  0  0  0  0  0  0  0
   10.9766   16.4198   18.3918 H   0  0  0  0  0  0  0  0  0  0  0  0
   14.4544   14.1994   21.4236 H   0  0  0  0  0  0  0  0  0  0  0  0
   13.9761   15.8785   21.5445 H   0  0  0  0  0  0  0  0  0  0  0  0
   10.4891   14.4572   19.9251 H   0  0  0  0  0  0  0  0  0  0  0  0
   11.8719   14.3163   18.8837 H   0  0  0  0  0  0  0  0  0  0  0  0
   10.0928    9.0719   23.1838 H   0  0  0  0  0  0  0  0  0  0  0  0
   10.1576    9.7395   24.8261 H   0  0  0  0  0  0  0  0  0  0  0  0
    9.4332   11.3573   22.2906 H   0  0  0  0  0  0  0  0  0  0  0  0
   11.9692   11.3905   23.9818 H   0  0  0  0  0  0  0  0  0  0  0  0
   11.8258   10.7001   22.3297 H   0  0  0  0  0  0  0  0  0  0  0  0
   11.5800   15.9721   22.4377 H   0  0  0  0  0  0  0  0  0  0  0  0
  1  2  2  0  0  0  0
  1  3  1  0  0  0  0
  2  4  1  0  0  0  0
  3  5  2  0  0  0  0
  4  6  2  0  0  0  0
  5  6  1  0  0  0  0
  5 23  1  0  0  0  0
  6 24  1  0  0  0  0
  7 17  1  0  0  0  0
  7 20  1  0  0  0  0
  7 21  2  0  0  0  0
  8 19  1  0  0  0  0
  8 20  1  0  0  0  0
  8 22  2  0  0  0  0
  9 10  1  0  0  0  0
  9 11  1  0  0  0  0
 10 12  1  0  0  0  0
 11 13  1  0  0  0  0
 12 14  1  0  0  0  0
 13 17  1  0  0  0  0
 14 17  1  0  0  0  0
 15 16  1  0  0  0  0
 15 23  1  0  0  0  0
 16 18  1  0  0  0  0
 16 24  1  0  0  0  0
 17 19  1  0  0  0  0
 18 20  1  0  0  0  0
  1 25  1  0  0  0  0
  2 26  1  0  0  0  0
  3 27  1  0  0  0  0
  4 28  1  0  0  0  0
  9 29  1  0  0  0  0
  9 30  1  0  0  0  0
 10 31  1  0  0  0  0
 10 32  1  0  0  0  0
 11 33  1  0  0  0  0
 11 34  1  0  0  0  0
 12 35  1  0  0  0  0
 12 36  1  0  0  0  0
 13 37  1  0  0  0  0
 13 38  1  0  0  0  0
 14 39  1  0  0  0  0
 14 40  1  0  0  0  0
 15 41  1  0  0  0  0
 15 42  1  0  0  0  0
 16 43  1  0  0  0  0
 18 44  1  0  0  0  0
 18 45  1  0  0  0  0
 19 46  1  0  0  0  0
M  END
> <Catalog ID>
Z13872767

> <PlateID>
1041831-R-13

> <Well>
B08

> <MW (desalted)>
330.378

> <ClogP>
3.300

> <HBD>
1

> <TPSA>
67.870

> <RotBonds>
2

> <ROCS_ShapeQuery>
A71EV2A-x0451_0A_A71EV2A-x0310_0A_A71EV2A-x0416_0A_peptide

> <ROCS_TanimotoCombo>
0.521 

> <ROCS_ShapeTanimoto>
0.358 

> <ROCS_ColorTanimoto>
0.163 

> <ROCS_RefTversky>
0.317 

> <ROCS_RefColorTversky>
0.187 

> <ROCS_RefTverskyCombo>
0.504 

> <ROCS_FitTversky>
1.561 

> <ROCS_FitColorTversky>
0.564 

> <ROCS_FitTverskyCombo>
2.125 

> <ROCS_ColorScore>
-5.718

> <ROCS_Overlap>
2203.060

> <ROCS_Rank>
327                 

$$$$
untitled-dbase-1552_2943
  -OEChem-11132311063D

 48 51  0     1  0  0  0  0  0999 V2000
    6.9525   12.8856   25.4756 C   0  0  0  0  0  0  0  0  0  0  0  0
    6.5972   11.7696   26.2307 C   0  0  0  0  0  0  0  0  0  0  0  0
   14.0934   17.0872   19.5179 C   0  0  0  0  0  0  0  0  0  0  0  0
    7.8609   12.7744   24.4167 C   0  0  0  0  0  0  0  0  0  0  0  0
    7.1364   10.5102   25.9531 C   0  0  0  0  0  0  0  0  0  0  0  0
   13.6355   16.7263   20.8181 C   0  0  0  0  0  0  0  0  0  0  0  0
    9.5096    9.6942   23.3420 C   0  0  0  0  0  0  0  0  0  0  0  0
   13.4685   16.3599   18.5289 C   0  0  0  0  0  0  0  0  0  0  0  0
    8.4176   11.5148   24.1182 C   0  0  0  0  0  0  0  0  0  0  0  0
    9.3430   11.0455   23.1443 C   0  0  0  0  0  0  0  0  0  0  0  0
    8.0432   10.4140   24.8917 C   0  0  0  0  0  0  0  0  0  0  0  0
   12.6778   15.7370   20.7732 C   0  0  0  0  0  0  0  0  0  0  0  0
   11.9545   15.0890   21.8974 C   0  0  0  0  0  0  0  0  0  0  0  0
   11.9143   12.4788   23.5820 C   0  0  0  0  0  0  0  0  0  0  0  0
   12.9253   12.4911   25.8386 C   0  0  0  0  0  0  0  0  0  0  0  0
   10.9333   13.9034   25.4304 C   0  0  0  0  0  0  0  0  0  0  0  0
   12.3507   12.4586   27.2477 C   0  0  0  0  0  0  0  0  0  0  0  0
   11.5009   14.6279   26.6438 C   0  0  0  0  0  0  0  0  0  0  0  0
   10.0263   11.8715   22.0823 C   0  0  0  0  0  0  0  0  0  0  0  0
   10.8336   13.0175   22.6776 C   0  0  2  0  0  0  0  0  0  0  0  0
    8.7214    9.3225   24.3979 N   0  0  0  0  0  0  0  0  0  0  0  0
   11.9114   12.9534   24.8919 N   0  0  0  0  0  0  0  0  0  0  0  0
   11.5609   13.7694   21.6961 N   0  0  0  0  0  0  0  0  0  0  0  0
   11.7255   15.7360   22.9159 O   0  0  0  0  0  0  0  0  0  0  0  0
   12.7340   11.6699   23.1413 O   0  0  0  0  0  0  0  0  0  0  0  0
   11.8842   13.7350   27.6910 O   0  0  0  0  0  0  0  0  0  0  0  0
   12.3347   15.2473   19.1686 S   0  0  0  0  0  0  0  0  0  0  0  0
    6.5195   13.8543   25.7102 H   0  0  0  0  0  0  0  0  0  0  0  0
    5.8899   11.8789   27.0487 H   0  0  0  0  0  0  0  0  0  0  0  0
   14.8438   17.8410   19.3184 H   0  0  0  0  0  0  0  0  0  0  0  0
    8.1270   13.6536   23.8369 H   0  0  0  0  0  0  0  0  0  0  0  0
    6.8600    9.6423   26.5422 H   0  0  0  0  0  0  0  0  0  0  0  0
   13.9940   17.1736   21.7367 H   0  0  0  0  0  0  0  0  0  0  0  0
   10.1165    8.9630   22.8259 H   0  0  0  0  0  0  0  0  0  0  0  0
   13.6243   16.4283   17.4615 H   0  0  0  0  0  0  0  0  0  0  0  0
   13.8171   13.1220   25.8040 H   0  0  0  0  0  0  0  0  0  0  0  0
   13.2083   11.4812   25.5223 H   0  0  0  0  0  0  0  0  0  0  0  0
   10.0568   13.3098   25.7219 H   0  0  0  0  0  0  0  0  0  0  0  0
   10.6084   14.6308   24.6821 H   0  0  0  0  0  0  0  0  0  0  0  0
   11.4910   11.7636   27.2832 H   0  0  0  0  0  0  0  0  0  0  0  0
   13.0910   12.0667   27.9747 H   0  0  0  0  0  0  0  0  0  0  0  0
   12.3666   15.2590   26.3652 H   0  0  0  0  0  0  0  0  0  0  0  0
   10.7397   15.3126   27.0573 H   0  0  0  0  0  0  0  0  0  0  0  0
   10.6788   11.2122   21.4940 H   0  0  0  0  0  0  0  0  0  0  0  0
    9.2788   12.2483   21.3707 H   0  0  0  0  0  0  0  0  0  0  0  0
   10.2223   13.7098   23.2572 H   0  0  0  0  0  0  0  0  0  0  0  0
    8.6476    8.3829   24.7629 H   0  0  0  0  0  0  0  0  0  0  0  0
   11.7361   13.3250   20.7952 H   0  0  0  0  0  0  0  0  0  0  0  0
  1  2  2  0  0  0  0
  1  4  1  0  0  0  0
  2  5  1  0  0  0  0
  3  6  1  0  0  0  0
  3  8  2  0  0  0  0
  4  9  2  0  0  0  0
  5 11  2  0  0  0  0
  6 12  2  0  0  0  0
  7 10  2  0  0  0  0
  7 21  1  0  0  0  0
  8 27  1  0  0  0  0
  9 10  1  0  0  0  0
  9 11  1  0  0  0  0
 10 19  1  0  0  0  0
 11 21  1  0  0  0  0
 12 13  1  0  0  0  0
 12 27  1  0  0  0  0
 13 23  1  0  0  0  0
 13 24  2  0  0  0  0
 14 20  1  0  0  0  0
 14 22  1  0  0  0  0
 14 25  2  0  0  0  0
 15 17  1  0  0  0  0
 15 22  1  0  0  0  0
 16 18  1  0  0  0  0
 16 22  1  0  0  0  0
 17 26  1  0  0  0  0
 18 26  1  0  0  0  0
 19 20  1  0  0  0  0
 20 23  1  0  0  0  0
  1 28  1  0  0  0  0
  2 29  1  0  0  0  0
  3 30  1  0  0  0  0
  4 31  1  0  0  0  0
  5 32  1  0  0  0  0
  6 33  1  0  0  0  0
  7 34  1  0  0  0  0
  8 35  1  0  0  0  0
 15 36  1  0  0  0  0
 15 37  1  0  0  0  0
 16 38  1  0  0  0  0
 16 39  1  0  0  0  0
 17 40  1  0  0  0  0
 17 41  1  0  0  0  0
 18 42  1  0  0  0  0
 18 43  1  0  0  0  0
 19 44  1  0  0  0  0
 19 45  1  0  0  0  0
 20 46  1  0  0  0  0
 21 47  1  0  0  0  0
 23 48  1  0  0  0  0
M  END
> <Catalog ID>
Z31721948

> <PlateID>
1041831-R-20

> <Well>
D03

> <MW (desalted)>
383.464

> <ClogP>
2.111

> <HBD>
2

> <TPSA>
74.430

> <RotBonds>
5

> <ROCS_ShapeQuery>
A71EV2A-x0451_0A_A71EV2A-x0310_0A_A71EV2A-x0416_0A_peptide

> <ROCS_TanimotoCombo>
0.521 

> <ROCS_ShapeTanimoto>
0.374 

> <ROCS_ColorTanimoto>
0.147 

> <ROCS_RefTversky>
0.332 

> <ROCS_RefColorTversky>
0.171 

> <ROCS_RefTverskyCombo>
0.502 

> <ROCS_FitTversky>
1.517 

> <ROCS_FitColorTversky>
0.514 

> <ROCS_FitTverskyCombo>
2.031 

> <ROCS_ColorScore>
-5.219

> <ROCS_Overlap>
2308.043

> <ROCS_Rank>
328                 

$$$$
untitled-dbase-2276_84
  -OEChem-11132311063D

 51 54  0     1  0  0  0  0  0999 V2000
   10.3536   11.3910   22.9710 C   0  0  0  0  0  0  0  0  0  0  0  0
    8.5638   12.4091   24.2702 C   0  0  0  0  0  0  0  0  0  0  0  0
    9.7609   12.5197   23.5432 C   0  0  0  0  0  0  0  0  0  0  0  0
    9.7227   10.1708   23.1303 C   0  0  0  0  0  0  0  0  0  0  0  0
    8.5400   10.0696   23.8467 C   0  0  0  0  0  0  0  0  0  0  0  0
    7.9428   11.1693   24.4317 C   0  0  0  0  0  0  0  0  0  0  0  0
   10.4009   13.8328   23.3929 C   0  0  0  0  0  0  0  0  0  0  0  0
   10.1497    8.8245   22.6892 C   0  0  0  0  0  0  0  0  0  0  0  0
   13.7789   15.8140   18.2567 C   0  0  0  0  0  0  0  0  0  0  0  0
   14.1581   16.6343   19.4871 C   0  0  0  0  0  0  0  0  0  0  0  0
   13.1493   14.4745   18.6358 C   0  0  0  0  0  0  0  0  0  0  0  0
   12.9763   16.8155   20.4384 C   0  0  0  0  0  0  0  0  0  0  0  0
   11.3276   13.3252   19.9771 C   0  0  0  0  0  0  0  0  0  0  0  0
   10.1669   13.5310   20.9502 C   0  0  0  0  0  0  0  0  0  0  0  0
   11.1636   15.6407   21.7635 C   0  0  0  0  0  0  0  0  0  0  0  0
   11.9518   14.6694   19.5728 C   0  0  1  0  0  0  0  0  0  0  0  0
   12.3664   15.4652   20.8293 C   0  0  1  0  0  0  0  0  0  0  0  0
    8.8447    8.0560   22.9500 C   0  0  1  0  0  0  0  0  0  0  0  0
    9.0909    6.6500   23.4721 C   0  0  0  0  0  0  0  0  0  0  0  0
    6.2520   12.2551   25.7037 C   0  0  0  0  0  0  0  0  0  0  0  0
   10.5907   14.3292   22.1011 N   0  0  0  0  0  0  0  0  0  0  0  0
   10.7136   14.4071   24.4348 O   0  0  0  0  0  0  0  0  0  0  0  0
    8.0567    8.7888   23.9251 O   0  0  0  0  0  0  0  0  0  0  0  0
    6.7900   11.0585   25.1375 O   0  0  0  0  0  0  0  0  0  0  0  0
   11.2868   11.4641   22.4214 H   0  0  0  0  0  0  0  0  0  0  0  0
    8.1162   13.2952   24.7154 H   0  0  0  0  0  0  0  0  0  0  0  0
   10.4370    8.7836   21.6348 H   0  0  0  0  0  0  0  0  0  0  0  0
   10.9753    8.4680   23.3142 H   0  0  0  0  0  0  0  0  0  0  0  0
   13.0728   16.3864   17.6424 H   0  0  0  0  0  0  0  0  0  0  0  0
   14.6689   15.6409   17.6414 H   0  0  0  0  0  0  0  0  0  0  0  0
   14.9782   16.1349   20.0177 H   0  0  0  0  0  0  0  0  0  0  0  0
   14.5323   17.6157   19.1746 H   0  0  0  0  0  0  0  0  0  0  0  0
   12.8320   13.9524   17.7255 H   0  0  0  0  0  0  0  0  0  0  0  0
   13.9048   13.8420   19.1191 H   0  0  0  0  0  0  0  0  0  0  0  0
   13.3124   17.3490   21.3353 H   0  0  0  0  0  0  0  0  0  0  0  0
   12.2170   17.4457   19.9583 H   0  0  0  0  0  0  0  0  0  0  0  0
   12.0846   12.6815   20.4427 H   0  0  0  0  0  0  0  0  0  0  0  0
   10.9647   12.7997   19.0860 H   0  0  0  0  0  0  0  0  0  0  0  0
    9.3458   14.0687   20.4616 H   0  0  0  0  0  0  0  0  0  0  0  0
    9.7778   12.5605   21.2744 H   0  0  0  0  0  0  0  0  0  0  0  0
   11.4664   16.1854   22.6617 H   0  0  0  0  0  0  0  0  0  0  0  0
   10.3721   16.2266   21.2803 H   0  0  0  0  0  0  0  0  0  0  0  0
   11.1881   15.2454   19.0299 H   0  0  0  0  0  0  0  0  0  0  0  0
   13.1344   14.8941   21.3712 H   0  0  0  0  0  0  0  0  0  0  0  0
    8.2480    8.0013   22.0294 H   0  0  0  0  0  0  0  0  0  0  0  0
    9.6834    6.6867   24.3879 H   0  0  0  0  0  0  0  0  0  0  0  0
    9.6309    6.0614   22.7286 H   0  0  0  0  0  0  0  0  0  0  0  0
    8.1416    6.1569   23.6881 H   0  0  0  0  0  0  0  0  0  0  0  0
    5.3295   12.0221   26.2411 H   0  0  0  0  0  0  0  0  0  0  0  0
    6.0505   12.9770   24.9082 H   0  0  0  0  0  0  0  0  0  0  0  0
    6.9801   12.6774   26.4003 H   0  0  0  0  0  0  0  0  0  0  0  0
  1  3  2  0  0  0  0
  1  4  1  0  0  0  0
  2  3  1  0  0  0  0
  2  6  2  0  0  0  0
  3  7  1  0  0  0  0
  4  5  2  0  0  0  0
  4  8  1  0  0  0  0
  5  6  1  0  0  0  0
  5 23  1  0  0  0  0
  6 24  1  0  0  0  0
  7 21  1  0  0  0  0
  7 22  2  0  0  0  0
  8 18  1  0  0  0  0
  9 10  1  0  0  0  0
  9 11  1  0  0  0  0
 10 12  1  0  0  0  0
 11 16  1  0  0  0  0
 12 17  1  0  0  0  0
 13 14  1  0  0  0  0
 13 16  1  0  0  0  0
 14 21  1  0  0  0  0
 15 17  1  0  0  0  0
 15 21  1  0  0  0  0
 16 17  1  0  0  0  0
 18 19  1  0  0  0  0
 18 23  1  0  0  0  0
 20 24  1  0  0  0  0
  1 25  1  0  0  0  0
  2 26  1  0  0  0  0
  8 27  1  0  0  0  0
  8 28  1  0  0  0  0
  9 29  1  0  0  0  0
  9 30  1  0  0  0  0
 10 31  1  0  0  0  0
 10 32  1  0  0  0  0
 11 33  1  0  0  0  0
 11 34  1  0  0  0  0
 12 35  1  0  0  0  0
 12 36  1  0  0  0  0
 13 37  1  0  0  0  0
 13 38  1  0  0  0  0
 14 39  1  0  0  0  0
 14 40  1  0  0  0  0
 15 41  1  0  0  0  0
 15 42  1  0  0  0  0
 16 43  1  0  0  0  0
 17 44  1  0  0  0  0
 18 45  1  0  0  0  0
 19 46  1  0  0  0  0
 19 47  1  0  0  0  0
 19 48  1  0  0  0  0
 20 49  1  0  0  0  0
 20 50  1  0  0  0  0
 20 51  1  0  0  0  0
M  END
> <Catalog ID>
Z168327216

> <PlateID>
1041831-R-29

> <Well>
D07

> <MW (desalted)>
329.433

> <ClogP>
4.134

> <HBD>
0

> <TPSA>
38.770

> <RotBonds>
2

> <ROCS_ShapeQuery>
A71EV2A-x0451_0A_A71EV2A-x0310_0A_A71EV2A-x0416_0A_peptide

> <ROCS_TanimotoCombo>
0.521 

> <ROCS_ShapeTanimoto>
0.364 

> <ROCS_ColorTanimoto>
0.157 

> <ROCS_RefTversky>
0.320 

> <ROCS_RefColorTversky>
0.172 

> <ROCS_RefTverskyCombo>
0.493 

> <ROCS_FitTversky>
1.601 

> <ROCS_FitColorTversky>
0.635 

> <ROCS_FitTverskyCombo>
2.236 

> <ROCS_ColorScore>
-5.246

> <ROCS_Overlap>
2227.430

> <ROCS_Rank>
329                 

$$$$
untitled-dbase-1648_412
  -OEChem-11132311063D

 42 45  0     1  0  0  0  0  0999 V2000
    6.6054   11.1684   26.5690 C   0  0  0  0  0  0  0  0  0  0  0  0
    6.7275   12.5121   26.2242 C   0  0  0  0  0  0  0  0  0  0  0  0
    7.2315   10.1916   25.7974 C   0  0  0  0  0  0  0  0  0  0  0  0
    7.4718   12.8820   25.1029 C   0  0  0  0  0  0  0  0  0  0  0  0
    7.9925   10.5581   24.6800 C   0  0  0  0  0  0  0  0  0  0  0  0
    8.1106   11.9173   24.3092 C   0  0  0  0  0  0  0  0  0  0  0  0
   11.0615   14.9172   22.7482 C   0  0  0  0  0  0  0  0  0  0  0  0
    8.6581    9.5020   23.8248 C   0  0  0  0  0  0  0  0  0  0  0  0
   10.0128    9.9743   23.2843 C   0  0  0  0  0  0  0  0  0  0  0  0
   14.1831   15.7917   19.5212 C   0  0  0  0  0  0  0  0  0  0  0  0
   13.7412   14.7598   20.5533 C   0  0  0  0  0  0  0  0  0  0  0  0
   13.2480   15.6362   18.3333 C   0  0  0  0  0  0  0  0  0  0  0  0
    8.9030   12.3019   23.0825 C   0  0  2  0  0  0  0  0  0  0  0  0
    9.8858   11.2802   22.5508 C   0  0  1  0  0  0  0  0  0  0  0  0
   10.3878   12.5567   23.1817 C   0  0  1  0  0  0  0  0  0  0  0  0
   11.7890   15.7475   21.7217 C   0  0  0  0  0  0  0  0  0  0  0  0
   12.2484   14.8755   20.6102 N   0  0  1  0  0  0  0  0  0  0  0  0
   11.0101   13.5620   22.3949 N   0  0  0  0  0  0  0  0  0  0  0  0
   10.5756   15.3850   23.7746 O   0  0  0  0  0  0  0  0  0  0  0  0
   11.1644   14.0441   18.3855 O   0  0  0  0  0  0  0  0  0  0  0  0
   10.8430   16.4699   19.0521 O   0  0  0  0  0  0  0  0  0  0  0  0
   11.6385   15.2604   19.0149 S   0  0  0  0  0  0  0  0  0  0  0  0
    6.0207   10.8817   27.4381 H   0  0  0  0  0  0  0  0  0  0  0  0
    6.2390   13.2734   26.8255 H   0  0  0  0  0  0  0  0  0  0  0  0
    7.1255    9.1458   26.0733 H   0  0  0  0  0  0  0  0  0  0  0  0
    7.5505   13.9351   24.8430 H   0  0  0  0  0  0  0  0  0  0  0  0
    8.8115    8.5843   24.4045 H   0  0  0  0  0  0  0  0  0  0  0  0
    7.9841    9.2608   22.9934 H   0  0  0  0  0  0  0  0  0  0  0  0
   10.7259   10.0755   24.1122 H   0  0  0  0  0  0  0  0  0  0  0  0
   10.4215    9.2137   22.6092 H   0  0  0  0  0  0  0  0  0  0  0  0
   14.0738   16.7999   19.9426 H   0  0  0  0  0  0  0  0  0  0  0  0
   15.2322   15.6622   19.2353 H   0  0  0  0  0  0  0  0  0  0  0  0
   14.0276   13.7472   20.2478 H   0  0  0  0  0  0  0  0  0  0  0  0
   14.1725   14.9789   21.5347 H   0  0  0  0  0  0  0  0  0  0  0  0
   13.1867   16.5444   17.7245 H   0  0  0  0  0  0  0  0  0  0  0  0
   13.5516   14.7897   17.7051 H   0  0  0  0  0  0  0  0  0  0  0  0
    8.3595   12.8670   22.3286 H   0  0  0  0  0  0  0  0  0  0  0  0
    9.9453   11.1642   21.4755 H   0  0  0  0  0  0  0  0  0  0  0  0
   10.8406   12.4848   24.1652 H   0  0  0  0  0  0  0  0  0  0  0  0
   11.1171   16.5138   21.3242 H   0  0  0  0  0  0  0  0  0  0  0  0
   12.6564   16.2297   22.1819 H   0  0  0  0  0  0  0  0  0  0  0  0
   11.4503   13.2779   21.5108 H   0  0  0  0  0  0  0  0  0  0  0  0
  1  2  2  0  0  0  0
  1  3  1  0  0  0  0
  2  4  1  0  0  0  0
  3  5  2  0  0  0  0
  4  6  2  0  0  0  0
  5  6  1  0  0  0  0
  5  8  1  0  0  0  0
  6 13  1  0  0  0  0
  7 16  1  0  0  0  0
  7 18  1  0  0  0  0
  7 19  2  0  0  0  0
  8  9  1  0  0  0  0
  9 14  1  0  0  0  0
 10 11  1  0  0  0  0
 10 12  1  0  0  0  0
 11 17  1  0  0  0  0
 12 22  1  0  0  0  0
 13 14  1  0  0  0  0
 13 15  1  0  0  0  0
 14 15  1  0  0  0  0
 15 18  1  0  0  0  0
 16 17  1  0  0  0  0
 17 22  1  0  0  0  0
 20 22  2  0  0  0  0
 21 22  2  0  0  0  0
  1 23  1  0  0  0  0
  2 24  1  0  0  0  0
  3 25  1  0  0  0  0
  4 26  1  0  0  0  0
  8 27  1  0  0  0  0
  8 28  1  0  0  0  0
  9 29  1  0  0  0  0
  9 30  1  0  0  0  0
 10 31  1  0  0  0  0
 10 32  1  0  0  0  0
 11 33  1  0  0  0  0
 11 34  1  0  0  0  0
 12 35  1  0  0  0  0
 12 36  1  0  0  0  0
 13 37  1  0  0  0  0
 14 38  1  0  0  0  0
 15 39  1  0  0  0  0
 16 40  1  0  0  0  0
 16 41  1  0  0  0  0
 18 42  1  0  0  0  0
M  END
> <Catalog ID>
Z1472861934

> <PlateID>
1041831-R-21

> <Well>
E09

> <MW (desalted)>
320.407

> <ClogP>
1.515

> <HBD>
1

> <TPSA>
66.480

> <RotBonds>
3

> <ROCS_ShapeQuery>
A71EV2A-x0451_0A_A71EV2A-x0310_0A_A71EV2A-x0416_0A_peptide

> <ROCS_TanimotoCombo>
0.521 

> <ROCS_ShapeTanimoto>
0.336 

> <ROCS_ColorTanimoto>
0.185 

> <ROCS_RefTversky>
0.298 

> <ROCS_RefColorTversky>
0.211 

> <ROCS_RefTverskyCombo>
0.509 

> <ROCS_FitTversky>
1.619 

> <ROCS_FitColorTversky>
0.593 

> <ROCS_FitTverskyCombo>
2.212 

> <ROCS_ColorScore>
-6.474

> <ROCS_Overlap>
2068.983

> <ROCS_Rank>
330                 

$$$$
untitled-dbase-2646_4624
  -OEChem-11132311063D

 46 50  0     0  0  0  0  0  0999 V2000
   10.5349   12.7063   23.6461 C   0  0  0  0  0  0  0  0  0  0  0  0
   11.9174   14.2378   23.4957 C   0  0  0  0  0  0  0  0  0  0  0  0
   13.7469   15.4594   18.7355 C   0  0  0  0  0  0  0  0  0  0  0  0
   12.4826   16.0228   20.6463 C   0  0  0  0  0  0  0  0  0  0  0  0
    6.5774   11.7808   25.1857 C   0  0  0  0  0  0  0  0  0  0  0  0
    8.0918    9.9230   25.9205 C   0  0  0  0  0  0  0  0  0  0  0  0
    7.1883    9.9533   23.5828 C   0  0  0  0  0  0  0  0  0  0  0  0
    9.0104   12.2300   25.5834 C   0  0  0  0  0  0  0  0  0  0  0  0
    8.0956   12.2683   23.2497 C   0  0  0  0  0  0  0  0  0  0  0  0
    9.6240   10.3933   23.9914 C   0  0  0  0  0  0  0  0  0  0  0  0
    7.7895   11.4220   26.0567 C   0  0  0  0  0  0  0  0  0  0  0  0
    6.8767   11.4530   23.7162 C   0  0  0  0  0  0  0  0  0  0  0  0
    8.3995    9.5849   24.4551 C   0  0  0  0  0  0  0  0  0  0  0  0
    9.3576   11.9241   24.0948 C   0  0  0  0  0  0  0  0  0  0  0  0
   14.2809   14.8791   17.4868 C   0  0  0  0  0  0  0  0  0  0  0  0
   12.7550   15.4419   23.5792 C   0  0  0  0  0  0  0  0  0  0  0  0
   11.4621   16.1295   21.7411 C   0  0  0  0  0  0  0  0  0  0  0  0
   10.8335   13.9332   24.1634 N   0  0  0  0  0  0  0  0  0  0  0  0
   11.3716   12.2519   22.7084 N   0  0  0  0  0  0  0  0  0  0  0  0
   14.3186   16.4175   19.4335 N   0  0  0  0  0  0  0  0  0  0  0  0
   13.5775   16.7472   20.5549 N   0  0  0  0  0  0  0  0  0  0  0  0
   12.3081   13.2883   22.6056 O   0  0  0  0  0  0  0  0  0  0  0  0
   12.1060   16.5415   22.9355 O   0  0  0  0  0  0  0  0  0  0  0  0
   12.2656   14.8848   19.3816 S   0  0  0  0  0  0  0  0  0  0  0  0
    5.6950   11.2232   25.5227 H   0  0  0  0  0  0  0  0  0  0  0  0
    6.3402   12.8465   25.2921 H   0  0  0  0  0  0  0  0  0  0  0  0
    8.9441    9.6522   26.5557 H   0  0  0  0  0  0  0  0  0  0  0  0
    7.2347    9.3343   26.2699 H   0  0  0  0  0  0  0  0  0  0  0  0
    6.3156    9.3621   23.8864 H   0  0  0  0  0  0  0  0  0  0  0  0
    7.3916    9.7043   22.5340 H   0  0  0  0  0  0  0  0  0  0  0  0
    8.8128   13.3033   25.7097 H   0  0  0  0  0  0  0  0  0  0  0  0
    9.8732   12.0024   26.2243 H   0  0  0  0  0  0  0  0  0  0  0  0
    8.2895   12.0642   22.1880 H   0  0  0  0  0  0  0  0  0  0  0  0
    7.8730   13.3415   23.3211 H   0  0  0  0  0  0  0  0  0  0  0  0
   10.4995   10.1194   24.5956 H   0  0  0  0  0  0  0  0  0  0  0  0
    9.8698   10.1256   22.9549 H   0  0  0  0  0  0  0  0  0  0  0  0
    7.5744   11.6610   27.1043 H   0  0  0  0  0  0  0  0  0  0  0  0
    6.0077   11.7049   23.0978 H   0  0  0  0  0  0  0  0  0  0  0  0
    8.6092    8.5136   24.3602 H   0  0  0  0  0  0  0  0  0  0  0  0
   14.9370   14.0192   17.6981 H   0  0  0  0  0  0  0  0  0  0  0  0
   13.4770   14.5314   16.8162 H   0  0  0  0  0  0  0  0  0  0  0  0
   14.8657   15.6134   16.9073 H   0  0  0  0  0  0  0  0  0  0  0  0
   12.9631   15.7409   24.6245 H   0  0  0  0  0  0  0  0  0  0  0  0
   13.7403   15.3014   23.0950 H   0  0  0  0  0  0  0  0  0  0  0  0
   10.6863   16.8587   21.4839 H   0  0  0  0  0  0  0  0  0  0  0  0
   10.9734   15.1641   21.9111 H   0  0  0  0  0  0  0  0  0  0  0  0
  1 14  1  0  0  0  0
  1 18  1  0  0  0  0
  1 19  2  0  0  0  0
  2 16  1  0  0  0  0
  2 18  2  0  0  0  0
  2 22  1  0  0  0  0
  3 15  1  0  0  0  0
  3 20  2  0  0  0  0
  3 24  1  0  0  0  0
  4 17  1  0  0  0  0
  4 21  2  0  0  0  0
  4 24  1  0  0  0  0
  5 11  1  0  0  0  0
  5 12  1  0  0  0  0
  6 11  1  0  0  0  0
  6 13  1  0  0  0  0
  7 12  1  0  0  0  0
  7 13  1  0  0  0  0
  8 11  1  0  0  0  0
  8 14  1  0  0  0  0
  9 12  1  0  0  0  0
  9 14  1  0  0  0  0
 10 13  1  0  0  0  0
 10 14  1  0  0  0  0
 16 23  1  0  0  0  0
 17 23  1  0  0  0  0
 19 22  1  0  0  0  0
 20 21  1  0  0  0  0
  5 25  1  0  0  0  0
  5 26  1  0  0  0  0
  6 27  1  0  0  0  0
  6 28  1  0  0  0  0
  7 29  1  0  0  0  0
  7 30  1  0  0  0  0
  8 31  1  0  0  0  0
  8 32  1  0  0  0  0
  9 33  1  0  0  0  0
  9 34  1  0  0  0  0
 10 35  1  0  0  0  0
 10 36  1  0  0  0  0
 11 37  1  0  0  0  0
 12 38  1  0  0  0  0
 13 39  1  0  0  0  0
 15 40  1  0  0  0  0
 15 41  1  0  0  0  0
 15 42  1  0  0  0  0
 16 43  1  0  0  0  0
 16 44  1  0  0  0  0
 17 45  1  0  0  0  0
 17 46  1  0  0  0  0
M  END
> <Catalog ID>
Z2065554701

> <PlateID>
1041831-R-34

> <Well>
A07

> <MW (desalted)>
346.447

> <ClogP>
2.691

> <HBD>
0

> <TPSA>
73.930

> <RotBonds>
5

> <ROCS_ShapeQuery>
A71EV2A-x0451_0A_A71EV2A-x0310_0A_A71EV2A-x0416_0A_peptide

> <ROCS_TanimotoCombo>
0.521 

> <ROCS_ShapeTanimoto>
0.328 

> <ROCS_ColorTanimoto>
0.193 

> <ROCS_RefTversky>
0.297 

> <ROCS_RefColorTversky>
0.239 

> <ROCS_RefTverskyCombo>
0.536 

> <ROCS_FitTversky>
1.471 

> <ROCS_FitColorTversky>
0.502 

> <ROCS_FitTverskyCombo>
1.972 

> <ROCS_ColorScore>
-7.359

> <ROCS_Overlap>
2062.277

> <ROCS_Rank>
331                 

$$$$
untitled-dbase-1148_43
  -OEChem-11132311063D

 43 45  0     1  0  0  0  0  0999 V2000
   10.0687   10.8763   22.9419 C   0  0  0  0  0  0  0  0  0  0  0  0
    9.7425   12.0422   23.6006 C   0  0  0  0  0  0  0  0  0  0  0  0
    8.5910   11.8880   24.4299 C   0  0  0  0  0  0  0  0  0  0  0  0
    8.0944   10.6003   24.3670 C   0  0  0  0  0  0  0  0  0  0  0  0
   13.0829   14.6348   22.9505 C   0  0  0  0  0  0  0  0  0  0  0  0
   10.5124   13.2488   23.4391 C   0  0  0  0  0  0  0  0  0  0  0  0
    7.9729   12.9383   25.2981 C   0  0  0  0  0  0  0  0  0  0  0  0
    6.8808   10.1078   25.0931 C   0  0  0  0  0  0  0  0  0  0  0  0
    6.5541   12.5493   25.7435 C   0  0  0  0  0  0  0  0  0  0  0  0
   12.9438   15.8260   19.8753 C   0  0  0  0  0  0  0  0  0  0  0  0
   14.0931   16.5336   20.5900 C   0  0  0  0  0  0  0  0  0  0  0  0
   12.5473   14.4805   20.4819 C   0  0  0  0  0  0  0  0  0  0  0  0
   13.7811   16.8863   22.0381 C   0  0  0  0  0  0  0  0  0  0  0  0
   11.9812   14.5942   21.8979 C   0  0  1  0  0  0  0  0  0  0  0  0
    6.4894   11.0836   26.2261 C   0  0  1  0  0  0  0  0  0  0  0  0
    5.0985   10.7496   26.7609 C   0  0  0  0  0  0  0  0  0  0  0  0
   13.9007   15.7438   22.9255 N   0  0  0  0  0  0  0  0  0  0  0  0
   11.1561   13.4480   22.2049 N   0  0  0  0  0  0  0  0  0  0  0  0
   13.2518   13.7324   23.7729 O   0  0  0  0  0  0  0  0  0  0  0  0
   10.6188   14.0760   24.3714 O   0  0  0  0  0  0  0  0  0  0  0  0
    8.9923    9.6000   23.3218 S   0  0  0  0  0  0  0  0  0  0  0  0
   10.8867   10.7066   22.2549 H   0  0  0  0  0  0  0  0  0  0  0  0
    8.6048   13.0746   26.1844 H   0  0  0  0  0  0  0  0  0  0  0  0
    7.9347   13.8989   24.7719 H   0  0  0  0  0  0  0  0  0  0  0  0
    6.0563   10.0178   24.3741 H   0  0  0  0  0  0  0  0  0  0  0  0
    7.0593    9.1116   25.5157 H   0  0  0  0  0  0  0  0  0  0  0  0
    6.2294   13.2295   26.5399 H   0  0  0  0  0  0  0  0  0  0  0  0
    5.8591   12.6868   24.9042 H   0  0  0  0  0  0  0  0  0  0  0  0
   12.0682   16.4866   19.8473 H   0  0  0  0  0  0  0  0  0  0  0  0
   13.2383   15.6613   18.8313 H   0  0  0  0  0  0  0  0  0  0  0  0
   15.0062   15.9287   20.5324 H   0  0  0  0  0  0  0  0  0  0  0  0
   14.3051   17.4633   20.0473 H   0  0  0  0  0  0  0  0  0  0  0  0
   11.7864   14.0448   19.8211 H   0  0  0  0  0  0  0  0  0  0  0  0
   13.4096   13.8021   20.4633 H   0  0  0  0  0  0  0  0  0  0  0  0
   14.5029   17.6284   22.3959 H   0  0  0  0  0  0  0  0  0  0  0  0
   12.7801   17.3175   22.1427 H   0  0  0  0  0  0  0  0  0  0  0  0
   11.3330   15.4700   22.0052 H   0  0  0  0  0  0  0  0  0  0  0  0
    7.2067   10.9658   27.0502 H   0  0  0  0  0  0  0  0  0  0  0  0
    4.3618   10.8569   25.9664 H   0  0  0  0  0  0  0  0  0  0  0  0
    4.8445   11.4250   27.5763 H   0  0  0  0  0  0  0  0  0  0  0  0
    5.0804    9.7246   27.1280 H   0  0  0  0  0  0  0  0  0  0  0  0
   14.6411   15.7786   23.6196 H   0  0  0  0  0  0  0  0  0  0  0  0
   11.0945   12.7213   21.4993 H   0  0  0  0  0  0  0  0  0  0  0  0
  1  2  2  0  0  0  0
  1 21  1  0  0  0  0
  2  3  1  0  0  0  0
  2  6  1  0  0  0  0
  3  4  2  0  0  0  0
  3  7  1  0  0  0  0
  4  8  1  0  0  0  0
  4 21  1  0  0  0  0
  5 14  1  0  0  0  0
  5 17  1  0  0  0  0
  5 19  2  0  0  0  0
  6 18  1  0  0  0  0
  6 20  2  0  0  0  0
  7  9  1  0  0  0  0
  8 15  1  0  0  0  0
  9 15  1  0  0  0  0
 10 11  1  0  0  0  0
 10 12  1  0  0  0  0
 11 13  1  0  0  0  0
 12 14  1  0  0  0  0
 13 17  1  0  0  0  0
 14 18  1  0  0  0  0
 15 16  1  0  0  0  0
  1 22  1  0  0  0  0
  7 23  1  0  0  0  0
  7 24  1  0  0  0  0
  8 25  1  0  0  0  0
  8 26  1  0  0  0  0
  9 27  1  0  0  0  0
  9 28  1  0  0  0  0
 10 29  1  0  0  0  0
 10 30  1  0  0  0  0
 11 31  1  0  0  0  0
 11 32  1  0  0  0  0
 12 33  1  0  0  0  0
 12 34  1  0  0  0  0
 13 35  1  0  0  0  0
 13 36  1  0  0  0  0
 14 37  1  0  0  0  0
 15 38  1  0  0  0  0
 16 39  1  0  0  0  0
 16 40  1  0  0  0  0
 16 41  1  0  0  0  0
 17 42  1  0  0  0  0
 18 43  1  0  0  0  0
M  END
> <Catalog ID>
Z403316452

> <PlateID>
1041831-R-15

> <Well>
C09

> <MW (desalted)>
306.423

> <ClogP>
3.010

> <HBD>
2

> <TPSA>
58.200

> <RotBonds>
2

> <ROCS_ShapeQuery>
A71EV2A-x0451_0A_A71EV2A-x0310_0A_A71EV2A-x0416_0A_peptide

> <ROCS_TanimotoCombo>
0.521 

> <ROCS_ShapeTanimoto>
0.331 

> <ROCS_ColorTanimoto>
0.190 

> <ROCS_RefTversky>
0.292 

> <ROCS_RefColorTversky>
0.203 

> <ROCS_RefTverskyCombo>
0.496 

> <ROCS_FitTversky>
1.654 

> <ROCS_FitColorTversky>
0.750 

> <ROCS_FitTverskyCombo>
2.404 

> <ROCS_ColorScore>
-6.186

> <ROCS_Overlap>
2030.355

> <ROCS_Rank>
332                 

$$$$
untitled-dbase-3178_625
  -OEChem-11132311063D

 49 52  0     1  0  0  0  0  0999 V2000
   13.9638   16.0817   18.3738 C   0  0  0  0  0  0  0  0  0  0  0  0
   14.5568   16.4204   19.5899 C   0  0  0  0  0  0  0  0  0  0  0  0
   12.6964   15.4993   18.3540 C   0  0  0  0  0  0  0  0  0  0  0  0
   13.8826   16.1766   20.7865 C   0  0  0  0  0  0  0  0  0  0  0  0
   12.0222   15.2555   19.5506 C   0  0  0  0  0  0  0  0  0  0  0  0
   12.6153   15.5941   20.7668 C   0  0  0  0  0  0  0  0  0  0  0  0
    7.4574   11.9494   24.6179 C   0  0  0  0  0  0  0  0  0  0  0  0
   10.0279   16.7735   22.4647 C   0  0  0  0  0  0  0  0  0  0  0  0
    6.9299   10.6067   24.1223 C   0  0  0  0  0  0  0  0  0  0  0  0
   11.0829   16.9708   23.5291 C   0  0  0  0  0  0  0  0  0  0  0  0
   11.8827   15.3289   22.0658 C   0  0  2  0  0  0  0  0  0  0  0  0
    8.9535   11.9262   24.3308 C   0  0  2  0  0  0  0  0  0  0  0  0
   10.3569   15.4006   21.9097 C   0  0  1  0  0  0  0  0  0  0  0  0
    9.4262   11.9087   22.8535 C   0  0  2  0  0  0  0  0  0  0  0  0
    9.2511   10.4155   24.4192 C   0  0  2  0  0  0  0  0  0  0  0  0
   10.1205   10.5351   23.1299 C   0  0  0  0  0  0  0  0  0  0  0  0
    9.8374    9.4879   22.0542 C   0  0  0  0  0  0  0  0  0  0  0  0
   11.6172   10.5788   23.4607 C   0  0  0  0  0  0  0  0  0  0  0  0
    9.6642   14.2932   22.7066 C   0  0  0  0  0  0  0  0  0  0  0  0
   10.3151   13.0078   22.4950 N   0  0  0  0  0  0  0  0  0  0  0  0
   12.2580   16.2957   23.0671 O   0  0  0  0  0  0  0  0  0  0  0  0
    8.0015    9.6838   24.3499 O   0  0  0  0  0  0  0  0  0  0  0  0
   14.4883   16.2728   17.4421 H   0  0  0  0  0  0  0  0  0  0  0  0
   15.5431   16.8749   19.6054 H   0  0  0  0  0  0  0  0  0  0  0  0
   12.2339   15.2365   17.4073 H   0  0  0  0  0  0  0  0  0  0  0  0
   14.3526   16.4436   21.7294 H   0  0  0  0  0  0  0  0  0  0  0  0
   11.0352   14.8012   19.5255 H   0  0  0  0  0  0  0  0  0  0  0  0
    6.9460   12.7939   24.1472 H   0  0  0  0  0  0  0  0  0  0  0  0
    7.3002   12.0213   25.7010 H   0  0  0  0  0  0  0  0  0  0  0  0
    9.0275   16.7731   22.9258 H   0  0  0  0  0  0  0  0  0  0  0  0
   10.0412   17.5665   21.7042 H   0  0  0  0  0  0  0  0  0  0  0  0
    6.0369   10.2863   24.6652 H   0  0  0  0  0  0  0  0  0  0  0  0
    6.7129   10.6264   23.0498 H   0  0  0  0  0  0  0  0  0  0  0  0
   11.3303   18.0307   23.6517 H   0  0  0  0  0  0  0  0  0  0  0  0
   10.7821   16.5673   24.4998 H   0  0  0  0  0  0  0  0  0  0  0  0
   12.1995   14.3315   22.4378 H   0  0  0  0  0  0  0  0  0  0  0  0
    9.5458   12.5421   25.0181 H   0  0  0  0  0  0  0  0  0  0  0  0
   10.0509   15.3268   20.8825 H   0  0  0  0  0  0  0  0  0  0  0  0
    8.5474   11.8195   22.1181 H   0  0  0  0  0  0  0  0  0  0  0  0
    9.7989   10.1198   25.3209 H   0  0  0  0  0  0  0  0  0  0  0  0
   10.3464    8.5596   22.3040 H   0  0  0  0  0  0  0  0  0  0  0  0
   10.1957    9.8460   21.0916 H   0  0  0  0  0  0  0  0  0  0  0  0
    8.7668    9.3054   21.9937 H   0  0  0  0  0  0  0  0  0  0  0  0
   11.9790    9.5690   23.6307 H   0  0  0  0  0  0  0  0  0  0  0  0
   11.7717   11.1751   24.3552 H   0  0  0  0  0  0  0  0  0  0  0  0
   12.1576   11.0232   22.6301 H   0  0  0  0  0  0  0  0  0  0  0  0
    9.7029   14.5433   23.7771 H   0  0  0  0  0  0  0  0  0  0  0  0
    8.6149   14.2217   22.3844 H   0  0  0  0  0  0  0  0  0  0  0  0
   10.5761   12.9205   21.5135 H   0  0  0  0  0  0  0  0  0  0  0  0
  1  2  2  0  0  0  0
  1  3  1  0  0  0  0
  2  4  1  0  0  0  0
  3  5  2  0  0  0  0
  4  6  2  0  0  0  0
  5  6  1  0  0  0  0
  6 11  1  6  0  0  0
  7  9  1  0  0  0  0
  7 12  1  0  0  0  0
  8 10  1  0  0  0  0
  8 13  1  0  0  0  0
  9 22  1  0  0  0  0
 10 21  1  0  0  0  0
 11 13  1  0  0  0  0
 11 21  1  0  0  0  0
 12 14  1  0  0  0  0
 12 15  1  0  0  0  0
 13 19  1  1  0  0  0
 14 16  1  0  0  0  0
 14 20  1  0  0  0  0
 15 16  1  0  0  0  0
 15 22  1  0  0  0  0
 16 17  1  0  0  0  0
 16 18  1  0  0  0  0
 19 20  1  0  0  0  0
  1 23  1  0  0  0  0
  2 24  1  0  0  0  0
  3 25  1  0  0  0  0
  4 26  1  0  0  0  0
  5 27  1  0  0  0  0
  7 28  1  0  0  0  0
  7 29  1  0  0  0  0
  8 30  1  0  0  0  0
  8 31  1  0  0  0  0
  9 32  1  0  0  0  0
  9 33  1  0  0  0  0
 10 34  1  0  0  0  0
 10 35  1  0  0  0  0
 11 36  1  0  0  0  0
 12 37  1  0  0  0  0
 13 38  1  0  0  0  0
 14 39  1  0  0  0  0
 15 40  1  0  0  0  0
 17 41  1  0  0  0  0
 17 42  1  0  0  0  0
 17 43  1  0  0  0  0
 18 44  1  0  0  0  0
 18 45  1  0  0  0  0
 18 46  1  0  0  0  0
 19 47  1  0  0  0  0
 19 48  1  0  0  0  0
 20 49  1  0  0  0  0
M  END
> <Catalog ID>
Z1757794530

> <PlateID>
1041831-R-40

> <Well>
F09

> <MW (desalted)>
301.423

> <ClogP>
1.872

> <HBD>
1

> <TPSA>
30.490

> <RotBonds>
4

> <ROCS_ShapeQuery>
A71EV2A-x0451_0A_A71EV2A-x0310_0A_A71EV2A-x0416_0A_peptide

> <ROCS_TanimotoCombo>
0.521 

> <ROCS_ShapeTanimoto>
0.300 

> <ROCS_ColorTanimoto>
0.221 

> <ROCS_RefTversky>
0.274 

> <ROCS_RefColorTversky>
0.260 

> <ROCS_RefTverskyCombo>
0.533 

> <ROCS_FitTversky>
1.470 

> <ROCS_FitColorTversky>
0.596 

> <ROCS_FitTverskyCombo>
2.066 

> <ROCS_ColorScore>
-7.981

> <ROCS_Overlap>
1901.390

> <ROCS_Rank>
333                 

$$$$
untitled-dbase-1729_1033
  -OEChem-11132311063D

 37 39  0     0  0  0  0  0  0999 V2000
    7.2964   11.6810   25.1790 C   0  0  0  0  0  0  0  0  0  0  0  0
   12.4401   15.4688   18.4453 C   0  0  0  0  0  0  0  0  0  0  0  0
   12.1280   14.9734   19.7064 C   0  0  0  0  0  0  0  0  0  0  0  0
    8.2857   12.3036   24.4179 C   0  0  0  0  0  0  0  0  0  0  0  0
    7.1460   10.2952   25.1281 C   0  0  0  0  0  0  0  0  0  0  0  0
   11.5436    8.7071   21.6053 C   0  0  0  0  0  0  0  0  0  0  0  0
   13.4740   16.3859   18.3463 C   0  0  0  0  0  0  0  0  0  0  0  0
   10.4450    7.8330   21.5014 C   0  0  0  0  0  0  0  0  0  0  0  0
   13.8649   16.3240   20.6094 C   0  0  0  0  0  0  0  0  0  0  0  0
   11.1008    9.7198   22.4207 C   0  0  0  0  0  0  0  0  0  0  0  0
   12.8492   15.4042   20.8144 C   0  0  0  0  0  0  0  0  0  0  0  0
    8.9740   10.1546   23.5547 C   0  0  0  0  0  0  0  0  0  0  0  0
    9.1244   11.5404   23.6057 C   0  0  0  0  0  0  0  0  0  0  0  0
    7.9847    9.5320   24.3159 C   0  0  0  0  0  0  0  0  0  0  0  0
   10.7867   13.3891   23.1588 C   0  0  0  0  0  0  0  0  0  0  0  0
   12.5369   14.8876   22.1891 C   0  0  0  0  0  0  0  0  0  0  0  0
   14.1970   16.8279   19.3996 N   0  0  0  0  0  0  0  0  0  0  0  0
    9.3841    8.2536   22.1953 N   0  0  0  0  0  0  0  0  0  0  0  0
    9.8140    9.4029   22.7432 N   0  0  0  0  0  0  0  0  0  0  0  0
   10.1064   12.1955   22.8547 N   0  0  0  0  0  0  0  0  0  0  0  0
   11.6967   13.7129   22.1473 N   0  0  0  0  0  0  0  0  0  0  0  0
   10.6282   14.0767   24.1647 O   0  0  0  0  0  0  0  0  0  0  0  0
    7.7537    7.8179   24.2905 Cl  0  0  0  0  0  0  0  0  0  0  0  0
    6.6430   12.2754   25.8110 H   0  0  0  0  0  0  0  0  0  0  0  0
   11.8915   15.1470   17.5674 H   0  0  0  0  0  0  0  0  0  0  0  0
   11.3223   14.2527   19.8162 H   0  0  0  0  0  0  0  0  0  0  0  0
    8.3922   13.3844   24.4667 H   0  0  0  0  0  0  0  0  0  0  0  0
    6.3699    9.8265   25.7276 H   0  0  0  0  0  0  0  0  0  0  0  0
   12.5202    8.6157   21.1533 H   0  0  0  0  0  0  0  0  0  0  0  0
   13.7560   16.8024   17.3848 H   0  0  0  0  0  0  0  0  0  0  0  0
   10.3728    6.9070   20.9490 H   0  0  0  0  0  0  0  0  0  0  0  0
   14.4620   16.6966   21.4360 H   0  0  0  0  0  0  0  0  0  0  0  0
   11.5876   10.6140   22.7869 H   0  0  0  0  0  0  0  0  0  0  0  0
   13.4578   14.6248   22.7212 H   0  0  0  0  0  0  0  0  0  0  0  0
   12.0215   15.6468   22.7865 H   0  0  0  0  0  0  0  0  0  0  0  0
   10.3716   11.7575   21.9682 H   0  0  0  0  0  0  0  0  0  0  0  0
   11.7703   13.0937   21.3463 H   0  0  0  0  0  0  0  0  0  0  0  0
  1  4  2  0  0  0  0
  1  5  1  0  0  0  0
  2  3  1  0  0  0  0
  2  7  2  0  0  0  0
  3 11  2  0  0  0  0
  4 13  1  0  0  0  0
  5 14  2  0  0  0  0
  6  8  1  0  0  0  0
  6 10  2  0  0  0  0
  7 17  1  0  0  0  0
  8 18  2  0  0  0  0
  9 11  1  0  0  0  0
  9 17  2  0  0  0  0
 10 19  1  0  0  0  0
 11 16  1  0  0  0  0
 12 13  2  0  0  0  0
 12 14  1  0  0  0  0
 12 19  1  0  0  0  0
 13 20  1  0  0  0  0
 14 23  1  0  0  0  0
 15 20  1  0  0  0  0
 15 21  1  0  0  0  0
 15 22  2  0  0  0  0
 16 21  1  0  0  0  0
 18 19  1  0  0  0  0
  1 24  1  0  0  0  0
  2 25  1  0  0  0  0
  3 26  1  0  0  0  0
  4 27  1  0  0  0  0
  5 28  1  0  0  0  0
  6 29  1  0  0  0  0
  7 30  1  0  0  0  0
  8 31  1  0  0  0  0
  9 32  1  0  0  0  0
 10 33  1  0  0  0  0
 16 34  1  0  0  0  0
 16 35  1  0  0  0  0
 20 36  1  0  0  0  0
 21 37  1  0  0  0  0
M  END
> <Catalog ID>
Z595692204

> <PlateID>
1041831-R-22

> <Well>
E10

> <MW (desalted)>
327.768

> <ClogP>
2.706

> <HBD>
2

> <TPSA>
71.840

> <RotBonds>
4

> <ROCS_ShapeQuery>
A71EV2A-x0451_0A_A71EV2A-x0310_0A_A71EV2A-x0416_0A_peptide

> <ROCS_TanimotoCombo>
0.521 

> <ROCS_ShapeTanimoto>
0.350 

> <ROCS_ColorTanimoto>
0.171 

> <ROCS_RefTversky>
0.310 

> <ROCS_RefColorTversky>
0.190 

> <ROCS_RefTverskyCombo>
0.500 

> <ROCS_FitTversky>
1.582 

> <ROCS_FitColorTversky>
0.629 

> <ROCS_FitTverskyCombo>
2.211 

> <ROCS_ColorScore>
-5.786

> <ROCS_Overlap>
2155.844

> <ROCS_Rank>
334                 

$$$$
untitled-dbase-251_844
  -OEChem-11132311063D

 42 45  0     1  0  0  0  0  0999 V2000
    6.5810   13.3038   25.3522 C   0  0  0  0  0  0  0  0  0  0  0  0
    5.9388   12.0805   25.5084 C   0  0  0  0  0  0  0  0  0  0  0  0
    7.8367   13.3484   24.7544 C   0  0  0  0  0  0  0  0  0  0  0  0
    6.5528   10.9049   25.0666 C   0  0  0  0  0  0  0  0  0  0  0  0
   13.6869   15.5009   20.4230 C   0  0  0  0  0  0  0  0  0  0  0  0
   11.5565   15.5661   19.8826 C   0  0  0  0  0  0  0  0  0  0  0  0
    8.4474   12.1618   24.3127 C   0  0  0  0  0  0  0  0  0  0  0  0
   12.3968   15.2235   20.9135 C   0  0  0  0  0  0  0  0  0  0  0  0
    7.8087   10.9203   24.4648 C   0  0  0  0  0  0  0  0  0  0  0  0
    9.7006   12.1370   23.7071 C   0  0  0  0  0  0  0  0  0  0  0  0
    9.6003    9.8879   23.4746 C   0  0  0  0  0  0  0  0  0  0  0  0
   10.7649   14.1725   24.6588 C   0  0  0  0  0  0  0  0  0  0  0  0
   10.7393   13.8184   22.1863 C   0  0  0  0  0  0  0  0  0  0  0  0
   10.9183   15.6145   24.1884 C   0  0  0  0  0  0  0  0  0  0  0  0
   12.0183   14.6695   22.2705 C   0  0  2  0  0  0  0  0  0  0  0  0
   11.9349   16.4827   17.5814 C   0  0  0  0  0  0  0  0  0  0  0  0
   10.2317    8.6184   23.0126 C   0  0  0  0  0  0  0  0  0  0  0  0
   13.6723   15.9824   19.1772 N   0  0  0  0  0  0  0  0  0  0  0  0
    8.3836    9.7794   24.0458 N   0  0  0  0  0  0  0  0  0  0  0  0
   10.3049   11.0136   23.2765 N   0  0  0  0  0  0  0  0  0  0  0  0
   12.3629   16.0102   18.8762 N   0  0  0  0  0  0  0  0  0  0  0  0
   10.3925   13.3289   23.5224 N   0  0  3  0  0  0  0  0  0  0  0  0
   11.9249   15.7603   23.1924 O   0  0  0  0  0  0  0  0  0  0  0  0
    9.4342    7.5531   23.2883 F   0  0  0  0  0  0  0  0  0  0  0  0
   11.4055    8.3987   23.6614 F   0  0  0  0  0  0  0  0  0  0  0  0
    6.1057   14.2180   25.6945 H   0  0  0  0  0  0  0  0  0  0  0  0
    4.9581   12.0362   25.9734 H   0  0  0  0  0  0  0  0  0  0  0  0
    8.3188   14.3163   24.6442 H   0  0  0  0  0  0  0  0  0  0  0  0
    6.0292    9.9602   25.2025 H   0  0  0  0  0  0  0  0  0  0  0  0
   14.6385   15.3723   20.9191 H   0  0  0  0  0  0  0  0  0  0  0  0
   10.4802   15.5312   19.7813 H   0  0  0  0  0  0  0  0  0  0  0  0
   11.7042   13.8334   25.1145 H   0  0  0  0  0  0  0  0  0  0  0  0
    9.9771   14.1170   25.4229 H   0  0  0  0  0  0  0  0  0  0  0  0
    9.9062   14.4252   21.7981 H   0  0  0  0  0  0  0  0  0  0  0  0
   10.8910   12.9825   21.4872 H   0  0  0  0  0  0  0  0  0  0  0  0
    9.9676   15.9633   23.7533 H   0  0  0  0  0  0  0  0  0  0  0  0
   11.1372   16.2889   25.0355 H   0  0  0  0  0  0  0  0  0  0  0  0
   12.8766   14.0320   22.5738 H   0  0  0  0  0  0  0  0  0  0  0  0
   11.7695   17.5609   17.6535 H   0  0  0  0  0  0  0  0  0  0  0  0
   12.7082   16.2633   16.8399 H   0  0  0  0  0  0  0  0  0  0  0  0
   11.0110   15.9712   17.2974 H   0  0  0  0  0  0  0  0  0  0  0  0
   10.4353    8.6172   21.9401 H   0  0  0  0  0  0  0  0  0  0  0  0
  1  2  2  0  0  0  0
  1  3  1  0  0  0  0
  2  4  1  0  0  0  0
  3  7  2  0  0  0  0
  4  9  2  0  0  0  0
  5  8  1  0  0  0  0
  5 18  2  0  0  0  0
  6  8  2  0  0  0  0
  6 21  1  0  0  0  0
  7  9  1  0  0  0  0
  7 10  1  0  0  0  0
  8 15  1  0  0  0  0
  9 19  1  0  0  0  0
 10 20  2  0  0  0  0
 10 22  1  0  0  0  0
 11 17  1  0  0  0  0
 11 19  2  0  0  0  0
 11 20  1  0  0  0  0
 12 14  1  0  0  0  0
 12 22  1  0  0  0  0
 13 15  1  0  0  0  0
 13 22  1  0  0  0  0
 14 23  1  0  0  0  0
 15 23  1  0  0  0  0
 16 21  1  0  0  0  0
 17 24  1  0  0  0  0
 17 25  1  0  0  0  0
 18 21  1  0  0  0  0
  1 26  1  0  0  0  0
  2 27  1  0  0  0  0
  3 28  1  0  0  0  0
  4 29  1  0  0  0  0
  5 30  1  0  0  0  0
  6 31  1  0  0  0  0
 12 32  1  0  0  0  0
 12 33  1  0  0  0  0
 13 34  1  0  0  0  0
 13 35  1  0  0  0  0
 14 36  1  0  0  0  0
 14 37  1  0  0  0  0
 15 38  1  0  0  0  0
 16 39  1  0  0  0  0
 16 40  1  0  0  0  0
 16 41  1  0  0  0  0
 17 42  1  0  0  0  0
M  END
> <Catalog ID>
Z1359571971

> <PlateID>
1041831-R-04

> <Well>
B02

> <MW (desalted)>
345.347

> <ClogP>
1.137

> <HBD>
0

> <TPSA>
56.070

> <RotBonds>
3

> <ROCS_ShapeQuery>
A71EV2A-x0451_0A_A71EV2A-x0310_0A_A71EV2A-x0416_0A_peptide

> <ROCS_TanimotoCombo>
0.521 

> <ROCS_ShapeTanimoto>
0.392 

> <ROCS_ColorTanimoto>
0.129 

> <ROCS_RefTversky>
0.341 

> <ROCS_RefColorTversky>
0.149 

> <ROCS_RefTverskyCombo>
0.490 

> <ROCS_FitTversky>
1.608 

> <ROCS_FitColorTversky>
0.494 

> <ROCS_FitTverskyCombo>
2.102 

> <ROCS_ColorScore>
-4.541

> <ROCS_Overlap>
2372.462

> <ROCS_Rank>
335                 

$$$$
untitled-dbase-2494_623
  -OEChem-11132311063D

 55 59  0     1  0  0  0  0  0999 V2000
   12.7556   15.8200   20.4804 C   0  0  0  0  0  0  0  0  0  0  0  0
   13.9681   15.7739   21.1683 C   0  0  0  0  0  0  0  0  0  0  0  0
   11.6316   15.1815   21.0046 C   0  0  0  0  0  0  0  0  0  0  0  0
   14.0568   15.0894   22.3804 C   0  0  0  0  0  0  0  0  0  0  0  0
   11.7202   14.4970   22.2167 C   0  0  0  0  0  0  0  0  0  0  0  0
   12.9328   14.4509   22.9046 C   0  0  0  0  0  0  0  0  0  0  0  0
    9.0033    7.8876   22.7659 C   0  0  0  0  0  0  0  0  0  0  0  0
   10.3456    8.0036   23.4920 C   0  0  0  0  0  0  0  0  0  0  0  0
    8.5998    9.3065   22.3711 C   0  0  0  0  0  0  0  0  0  0  0  0
   10.7041    9.4888   23.5026 C   0  0  0  0  0  0  0  0  0  0  0  0
    7.7239   12.5968   25.0467 C   0  0  0  0  0  0  0  0  0  0  0  0
   13.4072   12.3548   24.1489 C   0  0  0  0  0  0  0  0  0  0  0  0
   13.2296   14.4624   25.3911 C   0  0  0  0  0  0  0  0  0  0  0  0
    6.6223   11.6203   24.6473 C   0  0  0  0  0  0  0  0  0  0  0  0
   14.8531   12.2499   24.6360 C   0  0  0  0  0  0  0  0  0  0  0  0
   14.6824   14.2936   25.8221 C   0  0  0  0  0  0  0  0  0  0  0  0
    9.0268   11.9258   24.6313 C   0  0  2  0  0  0  0  0  0  0  0  0
    9.3098   11.7204   23.1191 C   0  0  2  0  0  0  0  0  0  0  0  0
    8.6468   10.4372   24.7442 C   0  0  2  0  0  0  0  0  0  0  0  0
    9.3459   10.1833   23.3724 C   0  0  0  0  0  0  0  0  0  0  0  0
   10.4947   13.8189   22.7574 C   0  0  0  0  0  0  0  0  0  0  0  0
   13.0393   13.7740   24.1126 N   0  0  0  0  0  0  0  0  0  0  0  0
   10.5491   12.3736   22.5822 N   0  0  0  0  0  0  0  0  0  0  0  0
   15.0083   12.9008   25.9021 O   0  0  0  0  0  0  0  0  0  0  0  0
    7.2038   10.3226   24.8170 O   0  0  0  0  0  0  0  0  0  0  0  0
   12.6867   16.3530   19.5366 H   0  0  0  0  0  0  0  0  0  0  0  0
   14.8432   16.2711   20.7600 H   0  0  0  0  0  0  0  0  0  0  0  0
   10.6915   15.2234   20.4608 H   0  0  0  0  0  0  0  0  0  0  0  0
   15.0070   15.0603   22.9075 H   0  0  0  0  0  0  0  0  0  0  0  0
    9.0611    7.2143   21.8921 H   0  0  0  0  0  0  0  0  0  0  0  0
    8.2476    7.4558   23.4493 H   0  0  0  0  0  0  0  0  0  0  0  0
   10.2994    7.5813   24.5160 H   0  0  0  0  0  0  0  0  0  0  0  0
   11.1201    7.4243   22.9471 H   0  0  0  0  0  0  0  0  0  0  0  0
    8.9373    9.5013   21.3500 H   0  0  0  0  0  0  0  0  0  0  0  0
    7.5171    9.4264   22.4039 H   0  0  0  0  0  0  0  0  0  0  0  0
   11.1602    9.7228   24.4727 H   0  0  0  0  0  0  0  0  0  0  0  0
   11.4401    9.7423   22.7369 H   0  0  0  0  0  0  0  0  0  0  0  0
    7.5881   13.5820   24.5917 H   0  0  0  0  0  0  0  0  0  0  0  0
    7.7166   12.7249   26.1359 H   0  0  0  0  0  0  0  0  0  0  0  0
   13.3195   11.8967   23.1611 H   0  0  0  0  0  0  0  0  0  0  0  0
   12.7469   11.8272   24.8431 H   0  0  0  0  0  0  0  0  0  0  0  0
   12.5673   14.0181   26.1431 H   0  0  0  0  0  0  0  0  0  0  0  0
   12.9920   15.5277   25.3069 H   0  0  0  0  0  0  0  0  0  0  0  0
    5.7335   11.7187   25.2752 H   0  0  0  0  0  0  0  0  0  0  0  0
    6.3383   11.7351   23.5971 H   0  0  0  0  0  0  0  0  0  0  0  0
   15.1221   11.1973   24.7692 H   0  0  0  0  0  0  0  0  0  0  0  0
   15.5535   12.6797   23.9102 H   0  0  0  0  0  0  0  0  0  0  0  0
   15.3688   14.7955   25.1346 H   0  0  0  0  0  0  0  0  0  0  0  0
   14.8268   14.7244   26.8148 H   0  0  0  0  0  0  0  0  0  0  0  0
    9.8916   12.2157   25.2451 H   0  0  0  0  0  0  0  0  0  0  0  0
    8.3974   12.0297   22.4701 H   0  0  0  0  0  0  0  0  0  0  0  0
    9.0979    9.9237   25.5980 H   0  0  0  0  0  0  0  0  0  0  0  0
   10.3797   14.0249   23.8272 H   0  0  0  0  0  0  0  0  0  0  0  0
    9.5911   14.1830   22.2572 H   0  0  0  0  0  0  0  0  0  0  0  0
   11.3632   12.0069   23.0752 H   0  0  0  0  0  0  0  0  0  0  0  0
  1  2  2  0  0  0  0
  1  3  1  0  0  0  0
  2  4  1  0  0  0  0
  3  5  2  0  0  0  0
  4  6  2  0  0  0  0
  5  6  1  0  0  0  0
  5 21  1  0  0  0  0
  6 22  1  0  0  0  0
  7  8  1  0  0  0  0
  7  9  1  0  0  0  0
  8 10  1  0  0  0  0
  9 20  1  0  0  0  0
 10 20  1  0  0  0  0
 11 14  1  0  0  0  0
 11 17  1  0  0  0  0
 12 15  1  0  0  0  0
 12 22  1  0  0  0  0
 13 16  1  0  0  0  0
 13 22  1  0  0  0  0
 14 25  1  0  0  0  0
 15 24  1  0  0  0  0
 16 24  1  0  0  0  0
 17 18  1  0  0  0  0
 17 19  1  0  0  0  0
 18 20  1  0  0  0  0
 18 23  1  0  0  0  0
 19 20  1  0  0  0  0
 19 25  1  0  0  0  0
 21 23  1  0  0  0  0
  1 26  1  0  0  0  0
  2 27  1  0  0  0  0
  3 28  1  0  0  0  0
  4 29  1  0  0  0  0
  7 30  1  0  0  0  0
  7 31  1  0  0  0  0
  8 32  1  0  0  0  0
  8 33  1  0  0  0  0
  9 34  1  0  0  0  0
  9 35  1  0  0  0  0
 10 36  1  0  0  0  0
 10 37  1  0  0  0  0
 11 38  1  0  0  0  0
 11 39  1  0  0  0  0
 12 40  1  0  0  0  0
 12 41  1  0  0  0  0
 13 42  1  0  0  0  0
 13 43  1  0  0  0  0
 14 44  1  0  0  0  0
 14 45  1  0  0  0  0
 15 46  1  0  0  0  0
 15 47  1  0  0  0  0
 16 48  1  0  0  0  0
 16 49  1  0  0  0  0
 17 50  1  0  0  0  0
 18 51  1  0  0  0  0
 19 52  1  0  0  0  0
 21 53  1  0  0  0  0
 21 54  1  0  0  0  0
 23 55  1  0  0  0  0
M  END
> <Catalog ID>
Z1597779349

> <PlateID>
1041831-R-32

> <Well>
B05

> <MW (desalted)>
342.475

> <ClogP>
2.817

> <HBD>
1

> <TPSA>
33.730

> <RotBonds>
4

> <ROCS_ShapeQuery>
A71EV2A-x0451_0A_A71EV2A-x0310_0A_A71EV2A-x0416_0A_peptide

> <ROCS_TanimotoCombo>
0.521 

> <ROCS_ShapeTanimoto>
0.354 

> <ROCS_ColorTanimoto>
0.167 

> <ROCS_RefTversky>
0.315 

> <ROCS_RefColorTversky>
0.205 

> <ROCS_RefTverskyCombo>
0.520 

> <ROCS_FitTversky>
1.531 

> <ROCS_FitColorTversky>
0.471 

> <ROCS_FitTverskyCombo>
2.002 

> <ROCS_ColorScore>
-6.310

> <ROCS_Overlap>
2191.508

> <ROCS_Rank>
336                 

$$$$
untitled-dbase-2168_1191
  -OEChem-11132311063D

 42 44  0     1  0  0  0  0  0999 V2000
    6.8974   12.5850   25.8888 C   0  0  0  0  0  0  0  0  0  0  0  0
    6.3951   11.3178   26.1782 C   0  0  0  0  0  0  0  0  0  0  0  0
    7.9756   12.7449   25.0108 C   0  0  0  0  0  0  0  0  0  0  0  0
    6.9521   10.1728   25.6014 C   0  0  0  0  0  0  0  0  0  0  0  0
   14.1704   15.4234   20.8142 C   0  0  0  0  0  0  0  0  0  0  0  0
    9.7322   10.0444   23.2840 C   0  0  0  0  0  0  0  0  0  0  0  0
    8.5535   11.6050   24.4173 C   0  0  0  0  0  0  0  0  0  0  0  0
    9.6270   11.3980   23.5065 C   0  0  0  0  0  0  0  0  0  0  0  0
    8.0295   10.3478   24.7257 C   0  0  0  0  0  0  0  0  0  0  0  0
   12.8492   15.0413   20.9169 C   0  0  0  0  0  0  0  0  0  0  0  0
   13.4189   16.3353   18.9666 C   0  0  0  0  0  0  0  0  0  0  0  0
   10.3599   15.1125   24.3917 C   0  0  0  0  0  0  0  0  0  0  0  0
   12.6549   13.7434   23.0669 C   0  0  0  0  0  0  0  0  0  0  0  0
   13.3797   17.0815   17.6898 C   0  0  0  0  0  0  0  0  0  0  0  0
    9.8651   15.9478   25.5256 C   0  0  0  0  0  0  0  0  0  0  0  0
   10.4824   12.4403   22.9034 C   0  0  0  0  0  0  0  0  0  0  0  0
   11.5660   13.0067   23.8500 C   0  0  2  0  0  0  0  0  0  0  0  0
   14.4990   16.1651   19.6963 N   0  0  0  0  0  0  0  0  0  0  0  0
    8.7643    9.4193   24.0234 N   0  0  0  0  0  0  0  0  0  0  0  0
   12.1492   14.2936   21.8927 N   0  0  0  0  0  0  0  0  0  0  0  0
   11.0113   13.9568   24.7834 N   0  0  0  0  0  0  0  0  0  0  0  0
   10.1671   15.4826   23.2395 O   0  0  0  0  0  0  0  0  0  0  0  0
   13.8002   13.8443   23.4986 O   0  0  0  0  0  0  0  0  0  0  0  0
   11.9732   15.6308   19.5654 S   0  0  0  0  0  0  0  0  0  0  0  0
    6.4472   13.4604   26.3492 H   0  0  0  0  0  0  0  0  0  0  0  0
    5.5571   11.2167   26.8630 H   0  0  0  0  0  0  0  0  0  0  0  0
    8.3550   13.7396   24.7948 H   0  0  0  0  0  0  0  0  0  0  0  0
    6.5612    9.1867   25.8281 H   0  0  0  0  0  0  0  0  0  0  0  0
   14.9448   15.1865   21.5319 H   0  0  0  0  0  0  0  0  0  0  0  0
   10.4072    9.4693   22.6651 H   0  0  0  0  0  0  0  0  0  0  0  0
   13.5791   16.4139   16.8371 H   0  0  0  0  0  0  0  0  0  0  0  0
   12.4004   17.5590   17.5233 H   0  0  0  0  0  0  0  0  0  0  0  0
   14.1254   17.8928   17.6655 H   0  0  0  0  0  0  0  0  0  0  0  0
   10.6106   16.6870   25.8600 H   0  0  0  0  0  0  0  0  0  0  0  0
    8.9727   16.5356   25.2567 H   0  0  0  0  0  0  0  0  0  0  0  0
    9.5821   15.3907   26.4330 H   0  0  0  0  0  0  0  0  0  0  0  0
    9.8532   13.2811   22.5473 H   0  0  0  0  0  0  0  0  0  0  0  0
   10.9763   12.0696   21.9816 H   0  0  0  0  0  0  0  0  0  0  0  0
   12.0107   12.2085   24.4550 H   0  0  0  0  0  0  0  0  0  0  0  0
    8.6108    8.4207   24.0506 H   0  0  0  0  0  0  0  0  0  0  0  0
   11.1574   14.1631   21.7057 H   0  0  0  0  0  0  0  0  0  0  0  0
   11.1037   13.7675   25.7781 H   0  0  0  0  0  0  0  0  0  0  0  0
  1  2  2  0  0  0  0
  1  3  1  0  0  0  0
  2  4  1  0  0  0  0
  3  7  2  0  0  0  0
  4  9  2  0  0  0  0
  5 10  2  0  0  0  0
  5 18  1  0  0  0  0
  6  8  2  0  0  0  0
  6 19  1  0  0  0  0
  7  8  1  0  0  0  0
  7  9  1  0  0  0  0
  8 16  1  0  0  0  0
  9 19  1  0  0  0  0
 10 20  1  0  0  0  0
 10 24  1  0  0  0  0
 11 14  1  0  0  0  0
 11 18  2  0  0  0  0
 11 24  1  0  0  0  0
 12 15  1  0  0  0  0
 12 21  1  0  0  0  0
 12 22  2  0  0  0  0
 13 17  1  0  0  0  0
 13 20  1  0  0  0  0
 13 23  2  0  0  0  0
 16 17  1  0  0  0  0
 17 21  1  0  0  0  0
  1 25  1  0  0  0  0
  2 26  1  0  0  0  0
  3 27  1  0  0  0  0
  4 28  1  0  0  0  0
  5 29  1  0  0  0  0
  6 30  1  0  0  0  0
 14 31  1  0  0  0  0
 14 32  1  0  0  0  0
 14 33  1  0  0  0  0
 15 34  1  0  0  0  0
 15 35  1  0  0  0  0
 15 36  1  0  0  0  0
 16 37  1  0  0  0  0
 16 38  1  0  0  0  0
 17 39  1  0  0  0  0
 19 40  1  0  0  0  0
 20 41  1  0  0  0  0
 21 42  1  0  0  0  0
M  END
> <Catalog ID>
Z1500674118

> <PlateID>
1041831-R-28

> <Well>
A09

> <MW (desalted)>
342.415

> <ClogP>
1.663

> <HBD>
3

> <TPSA>
86.880

> <RotBonds>
5

> <ROCS_ShapeQuery>
A71EV2A-x0451_0A_A71EV2A-x0310_0A_A71EV2A-x0416_0A_peptide

> <ROCS_TanimotoCombo>
0.521 

> <ROCS_ShapeTanimoto>
0.356 

> <ROCS_ColorTanimoto>
0.164 

> <ROCS_RefTversky>
0.315 

> <ROCS_RefColorTversky>
0.188 

> <ROCS_RefTverskyCombo>
0.503 

> <ROCS_FitTversky>
1.586 

> <ROCS_FitColorTversky>
0.566 

> <ROCS_FitTverskyCombo>
2.152 

> <ROCS_ColorScore>
-5.746

> <ROCS_Overlap>
2188.201

> <ROCS_Rank>
337                 

$$$$
untitled-dbase-141_1060
  -OEChem-11132311063D

 46 48  0     1  0  0  0  0  0999 V2000
    8.8856    9.5881   23.8060 C   0  0  0  0  0  0  0  0  0  0  0  0
    9.8207   10.4895   23.2844 C   0  0  0  0  0  0  0  0  0  0  0  0
    6.6147    9.4823   25.0852 C   0  0  0  0  0  0  0  0  0  0  0  0
    8.4980   12.3821   24.0412 C   0  0  0  0  0  0  0  0  0  0  0  0
    5.8025   10.4911   25.5494 C   0  0  0  0  0  0  0  0  0  0  0  0
    7.7387   10.0865   24.4554 C   0  0  0  0  0  0  0  0  0  0  0  0
    7.5717   11.4692   24.5578 C   0  0  0  0  0  0  0  0  0  0  0  0
    9.6278   11.8646   23.4013 C   0  0  0  0  0  0  0  0  0  0  0  0
   10.9161   14.0229   23.3216 C   0  0  0  0  0  0  0  0  0  0  0  0
   14.2608   15.2464   24.0197 C   0  0  0  0  0  0  0  0  0  0  0  0
   12.9722   16.0389   24.1332 C   0  0  0  0  0  0  0  0  0  0  0  0
   13.2621   13.8029   22.4561 C   0  0  0  0  0  0  0  0  0  0  0  0
   11.9907   14.6426   22.4763 C   0  0  2  0  0  0  0  0  0  0  0  0
    3.9491   12.6228   28.0020 C   0  0  0  0  0  0  0  0  0  0  0  0
    5.9958   12.4928   29.2536 C   0  0  0  0  0  0  0  0  0  0  0  0
    5.8292   12.9811   25.5488 C   0  0  0  0  0  0  0  0  0  0  0  0
    6.0104   13.3626   27.0140 C   0  0  0  0  0  0  0  0  0  0  0  0
    6.3879   11.6859   25.2263 N   0  0  0  0  0  0  0  0  0  0  0  0
   10.5770   12.7406   22.8714 N   0  0  0  0  0  0  0  0  0  0  0  0
    5.4027   12.4157   27.9095 N   0  0  0  0  0  0  0  0  0  0  0  0
   10.4427   14.6274   24.2783 O   0  0  0  0  0  0  0  0  0  0  0  0
   13.9527   13.8888   23.7047 O   0  0  0  0  0  0  0  0  0  0  0  0
   12.2446   15.9737   22.9058 O   0  0  0  0  0  0  0  0  0  0  0  0
    9.0482    8.5186   23.7080 H   0  0  0  0  0  0  0  0  0  0  0  0
   10.7039   10.0986   22.7840 H   0  0  0  0  0  0  0  0  0  0  0  0
    6.4208    8.4235   25.1882 H   0  0  0  0  0  0  0  0  0  0  0  0
    8.3441   13.4529   24.1345 H   0  0  0  0  0  0  0  0  0  0  0  0
    4.8606   10.4559   26.0802 H   0  0  0  0  0  0  0  0  0  0  0  0
   14.9139   15.6544   23.2397 H   0  0  0  0  0  0  0  0  0  0  0  0
   14.8060   15.2623   24.9680 H   0  0  0  0  0  0  0  0  0  0  0  0
   12.3419   15.6535   24.9423 H   0  0  0  0  0  0  0  0  0  0  0  0
   13.1871   17.0907   24.3441 H   0  0  0  0  0  0  0  0  0  0  0  0
   13.0437   12.7483   22.2629 H   0  0  0  0  0  0  0  0  0  0  0  0
   13.9365   14.1567   21.6677 H   0  0  0  0  0  0  0  0  0  0  0  0
   11.5789   14.6960   21.4628 H   0  0  0  0  0  0  0  0  0  0  0  0
    3.5053   12.5653   26.9971 H   0  0  0  0  0  0  0  0  0  0  0  0
    3.5081   11.8449   28.6425 H   0  0  0  0  0  0  0  0  0  0  0  0
    3.7468   13.6132   28.4359 H   0  0  0  0  0  0  0  0  0  0  0  0
    7.0827   12.3380   29.1848 H   0  0  0  0  0  0  0  0  0  0  0  0
    5.7934   13.4831   29.6874 H   0  0  0  0  0  0  0  0  0  0  0  0
    5.5546   11.7148   29.8941 H   0  0  0  0  0  0  0  0  0  0  0  0
    4.7622   12.9406   25.2987 H   0  0  0  0  0  0  0  0  0  0  0  0
    6.2894   13.7231   24.8856 H   0  0  0  0  0  0  0  0  0  0  0  0
    7.0755   13.3956   27.2630 H   0  0  0  0  0  0  0  0  0  0  0  0
    5.5764   14.3442   27.2300 H   0  0  0  0  0  0  0  0  0  0  0  0
   11.0942   12.4081   22.0498 H   0  0  0  0  0  0  0  0  0  0  0  0
  1  2  1  0  0  0  0
  1  6  2  0  0  0  0
  2  8  2  0  0  0  0
  3  5  2  0  0  0  0
  3  6  1  0  0  0  0
  4  7  2  0  0  0  0
  4  8  1  0  0  0  0
  5 18  1  0  0  0  0
  6  7  1  0  0  0  0
  7 18  1  0  0  0  0
  8 19  1  0  0  0  0
  9 13  1  0  0  0  0
  9 19  1  0  0  0  0
  9 21  2  0  0  0  0
 10 11  1  0  0  0  0
 10 22  1  0  0  0  0
 11 23  1  0  0  0  0
 12 13  1  0  0  0  0
 12 22  1  0  0  0  0
 13 23  1  0  0  0  0
 14 20  1  0  0  0  0
 15 20  1  0  0  0  0
 16 17  1  0  0  0  0
 16 18  1  0  0  0  0
 17 20  1  0  0  0  0
  1 24  1  0  0  0  0
  2 25  1  0  0  0  0
  3 26  1  0  0  0  0
  4 27  1  0  0  0  0
  5 28  1  0  0  0  0
 10 29  1  0  0  0  0
 10 30  1  0  0  0  0
 11 31  1  0  0  0  0
 11 32  1  0  0  0  0
 12 33  1  0  0  0  0
 12 34  1  0  0  0  0
 13 35  1  0  0  0  0
 14 36  1  0  0  0  0
 14 37  1  0  0  0  0
 14 38  1  0  0  0  0
 15 39  1  0  0  0  0
 15 40  1  0  0  0  0
 15 41  1  0  0  0  0
 16 42  1  0  0  0  0
 16 43  1  0  0  0  0
 17 44  1  0  0  0  0
 17 45  1  0  0  0  0
 19 46  1  0  0  0  0
M  END
> <Catalog ID>
Z1250542354

> <PlateID>
1041831-R-02

> <Well>
G02

> <MW (desalted)>
317.383

> <ClogP>
1.382

> <HBD>
1

> <TPSA>
55.730

> <RotBonds>
5

> <ROCS_ShapeQuery>
A71EV2A-x0451_0A_A71EV2A-x0310_0A_A71EV2A-x0416_0A_peptide

> <ROCS_TanimotoCombo>
0.520 

> <ROCS_ShapeTanimoto>
0.344 

> <ROCS_ColorTanimoto>
0.177 

> <ROCS_RefTversky>
0.305 

> <ROCS_RefColorTversky>
0.196 

> <ROCS_RefTverskyCombo>
0.501 

> <ROCS_FitTversky>
1.571 

> <ROCS_FitColorTversky>
0.649 

> <ROCS_FitTverskyCombo>
2.220 

> <ROCS_ColorScore>
-5.971

> <ROCS_Overlap>
2122.294

> <ROCS_Rank>
338                 

$$$$
untitled-dbase-131_334
  -OEChem-11132311063D

 46 49  0     1  0  0  0  0  0999 V2000
   11.9774   15.2268   19.5943 C   0  0  0  0  0  0  0  0  0  0  0  0
   13.8711   16.1353   20.7883 C   0  0  0  0  0  0  0  0  0  0  0  0
   12.6808   15.3368   18.3949 C   0  0  0  0  0  0  0  0  0  0  0  0
   14.5746   16.2453   19.5888 C   0  0  0  0  0  0  0  0  0  0  0  0
   12.5725   15.6261   20.7910 C   0  0  0  0  0  0  0  0  0  0  0  0
   13.9794   15.8460   18.3921 C   0  0  0  0  0  0  0  0  0  0  0  0
   11.6357   11.5638   22.7712 C   0  0  0  0  0  0  0  0  0  0  0  0
    6.6990   10.3599   25.6810 C   0  0  0  0  0  0  0  0  0  0  0  0
    6.4935   11.8661   25.5165 C   0  0  0  0  0  0  0  0  0  0  0  0
    9.6421   10.0479   23.1547 C   0  0  0  0  0  0  0  0  0  0  0  0
    9.3076   12.4004   22.8852 C   0  0  0  0  0  0  0  0  0  0  0  0
    8.2447   10.3428   23.6943 C   0  0  2  0  0  0  0  0  0  0  0  0
    8.0318   11.8642   23.5259 C   0  0  1  0  0  0  0  0  0  0  0  0
    8.1448   10.1828   25.2187 C   0  0  1  0  0  0  0  0  0  0  0  0
    7.8527   12.3166   24.9827 C   0  0  2  0  0  0  0  0  0  0  0  0
   13.3429   13.8013   23.7159 C   0  0  0  0  0  0  0  0  0  0  0  0
   11.9766   12.7765   21.9428 C   0  0  0  0  0  0  0  0  0  0  0  0
   10.2853   11.3366   22.9757 N   0  0  0  0  0  0  0  0  0  0  0  0
   12.1151   13.8774   22.8472 N   0  0  2  0  0  0  0  0  0  0  0  0
   12.5313   10.8416   23.2126 O   0  0  0  0  0  0  0  0  0  0  0  0
   12.2539   16.4450   23.2398 O   0  0  0  0  0  0  0  0  0  0  0  0
   10.2661   15.5632   21.9927 O   0  0  0  0  0  0  0  0  0  0  0  0
    8.7387   11.4159   25.6874 O   0  0  0  0  0  0  0  0  0  0  0  0
   11.6794   15.4864   22.3139 S   0  0  0  0  0  0  0  0  0  0  0  0
   14.8473   15.9818   16.9123 Cl  0  0  0  0  0  0  0  0  0  0  0  0
   10.9663   14.8287   19.5851 H   0  0  0  0  0  0  0  0  0  0  0  0
   14.3442   16.4492   21.7149 H   0  0  0  0  0  0  0  0  0  0  0  0
   12.2045   15.0219   17.4700 H   0  0  0  0  0  0  0  0  0  0  0  0
   15.5858   16.6439   19.6018 H   0  0  0  0  0  0  0  0  0  0  0  0
    6.5968   10.0911   26.7384 H   0  0  0  0  0  0  0  0  0  0  0  0
    5.9872    9.7630   25.1031 H   0  0  0  0  0  0  0  0  0  0  0  0
    5.6647   12.1164   24.8478 H   0  0  0  0  0  0  0  0  0  0  0  0
    6.2957   12.3164   26.4958 H   0  0  0  0  0  0  0  0  0  0  0  0
   10.2307    9.3913   23.8011 H   0  0  0  0  0  0  0  0  0  0  0  0
    9.5773    9.5839   22.1638 H   0  0  0  0  0  0  0  0  0  0  0  0
    9.1459   12.5933   21.8182 H   0  0  0  0  0  0  0  0  0  0  0  0
    9.6846   13.3216   23.3407 H   0  0  0  0  0  0  0  0  0  0  0  0
    7.4937    9.7418   23.1711 H   0  0  0  0  0  0  0  0  0  0  0  0
    7.1589   12.1122   22.9131 H   0  0  0  0  0  0  0  0  0  0  0  0
    8.6422    9.3001   25.6280 H   0  0  0  0  0  0  0  0  0  0  0  0
    8.0864   13.3660   25.1769 H   0  0  0  0  0  0  0  0  0  0  0  0
   13.3781   14.6779   24.3794 H   0  0  0  0  0  0  0  0  0  0  0  0
   13.3068   12.8840   24.3219 H   0  0  0  0  0  0  0  0  0  0  0  0
   14.2409   13.7860   23.0807 H   0  0  0  0  0  0  0  0  0  0  0  0
   11.1669   12.9447   21.2388 H   0  0  0  0  0  0  0  0  0  0  0  0
   12.9065   12.5783   21.4180 H   0  0  0  0  0  0  0  0  0  0  0  0
  1  3  1  0  0  0  0
  1  5  2  0  0  0  0
  2  4  2  0  0  0  0
  2  5  1  0  0  0  0
  3  6  2  0  0  0  0
  4  6  1  0  0  0  0
  5 24  1  0  0  0  0
  6 25  1  0  0  0  0
  7 17  1  0  0  0  0
  7 18  1  0  0  0  0
  7 20  2  0  0  0  0
  8  9  1  0  0  0  0
  8 14  1  0  0  0  0
  9 15  1  0  0  0  0
 10 12  1  0  0  0  0
 10 18  1  0  0  0  0
 11 13  1  0  0  0  0
 11 18  1  0  0  0  0
 12 13  1  0  0  0  0
 12 14  1  0  0  0  0
 13 15  1  0  0  0  0
 14 23  1  0  0  0  0
 15 23  1  0  0  0  0
 16 19  1  0  0  0  0
 17 19  1  0  0  0  0
 19 24  1  0  0  0  0
 21 24  2  0  0  0  0
 22 24  2  0  0  0  0
  1 26  1  0  0  0  0
  2 27  1  0  0  0  0
  3 28  1  0  0  0  0
  4 29  1  0  0  0  0
  8 30  1  0  0  0  0
  8 31  1  0  0  0  0
  9 32  1  0  0  0  0
  9 33  1  0  0  0  0
 10 34  1  0  0  0  0
 10 35  1  0  0  0  0
 11 36  1  0  0  0  0
 11 37  1  0  0  0  0
 12 38  1  0  0  0  0
 13 39  1  0  0  0  0
 14 40  1  0  0  0  0
 15 41  1  0  0  0  0
 16 42  1  0  0  0  0
 16 43  1  0  0  0  0
 16 44  1  0  0  0  0
 17 45  1  0  0  0  0
 17 46  1  0  0  0  0
M  END
> <Catalog ID>
Z1303142454

> <PlateID>
1041831-R-02

> <Well>
F02

> <MW (desalted)>
384.878

> <ClogP>
2.058

> <HBD>
0

> <TPSA>
66.920

> <RotBonds>
3

> <ROCS_ShapeQuery>
A71EV2A-x0451_0A_A71EV2A-x0310_0A_A71EV2A-x0416_0A_peptide

> <ROCS_TanimotoCombo>
0.520 

> <ROCS_ShapeTanimoto>
0.342 

> <ROCS_ColorTanimoto>
0.178 

> <ROCS_RefTversky>
0.307 

> <ROCS_RefColorTversky>
0.218 

> <ROCS_RefTverskyCombo>
0.525 

> <ROCS_FitTversky>
1.503 

> <ROCS_FitColorTversky>
0.497 

> <ROCS_FitTverskyCombo>
2.000 

> <ROCS_ColorScore>
-6.697

> <ROCS_Overlap>
2133.212

> <ROCS_Rank>
339                 

$$$$
untitled-dbase-405_576
  -OEChem-11132311063D

 42 45  0     0  0  0  0  0  0999 V2000
    6.4016   11.0124   25.6659 C   0  0  0  0  0  0  0  0  0  0  0  0
    6.8233   12.3402   25.8073 C   0  0  0  0  0  0  0  0  0  0  0  0
    7.1063   10.1315   24.8456 C   0  0  0  0  0  0  0  0  0  0  0  0
    7.9510   12.8072   25.1267 C   0  0  0  0  0  0  0  0  0  0  0  0
   13.5685   16.1935   19.3455 C   0  0  0  0  0  0  0  0  0  0  0  0
   12.1549   14.6804   19.6086 C   0  0  0  0  0  0  0  0  0  0  0  0
    8.2278   10.5976   24.1692 C   0  0  0  0  0  0  0  0  0  0  0  0
    8.6422   11.9268   24.3057 C   0  0  0  0  0  0  0  0  0  0  0  0
   10.4882   13.3574   23.4356 C   0  0  0  0  0  0  0  0  0  0  0  0
    9.9496    7.5014   23.3229 C   0  0  0  0  0  0  0  0  0  0  0  0
    8.5878    7.5393   22.6533 C   0  0  0  0  0  0  0  0  0  0  0  0
   10.0010    8.8063   24.1099 C   0  0  0  0  0  0  0  0  0  0  0  0
    8.4751    8.9854   22.1871 C   0  0  0  0  0  0  0  0  0  0  0  0
   10.0309   10.9567   22.6957 C   0  0  0  0  0  0  0  0  0  0  0  0
    9.1686    9.8153   23.2839 C   0  0  0  0  0  0  0  0  0  0  0  0
   11.0853   13.6628   22.0823 C   0  0  0  0  0  0  0  0  0  0  0  0
   11.8403   14.9818   22.1043 C   0  0  0  0  0  0  0  0  0  0  0  0
   12.8744   15.2367   18.6619 N   0  0  0  0  0  0  0  0  0  0  0  0
   13.3237   16.2643   20.6557 N   0  0  0  0  0  0  0  0  0  0  0  0
   12.4164   15.2861   20.7980 N   0  0  0  0  0  0  0  0  0  0  0  0
    9.7784   12.1666   23.5061 N   0  0  0  0  0  0  0  0  0  0  0  0
   10.6698   14.1450   24.3643 O   0  0  0  0  0  0  0  0  0  0  0  0
    5.5217   10.6675   26.2010 H   0  0  0  0  0  0  0  0  0  0  0  0
    6.2627   13.0160   26.4482 H   0  0  0  0  0  0  0  0  0  0  0  0
    6.7725    9.1062   24.7552 H   0  0  0  0  0  0  0  0  0  0  0  0
    8.2389   13.8434   25.2507 H   0  0  0  0  0  0  0  0  0  0  0  0
   14.2736   16.8616   18.8741 H   0  0  0  0  0  0  0  0  0  0  0  0
   11.4523   13.8674   19.4921 H   0  0  0  0  0  0  0  0  0  0  0  0
   10.0219    6.6479   23.9930 H   0  0  0  0  0  0  0  0  0  0  0  0
   10.7601    7.4371   22.6029 H   0  0  0  0  0  0  0  0  0  0  0  0
    8.5374    6.8597   21.8135 H   0  0  0  0  0  0  0  0  0  0  0  0
    7.8050    7.2883   23.3560 H   0  0  0  0  0  0  0  0  0  0  0  0
    9.6358    8.6779   25.1344 H   0  0  0  0  0  0  0  0  0  0  0  0
   11.0457    9.1372   24.1684 H   0  0  0  0  0  0  0  0  0  0  0  0
    9.0150    9.0901   21.2421 H   0  0  0  0  0  0  0  0  0  0  0  0
    7.4393    9.2799   22.0165 H   0  0  0  0  0  0  0  0  0  0  0  0
   11.1006   10.7277   22.6944 H   0  0  0  0  0  0  0  0  0  0  0  0
    9.7358   11.1993   21.6677 H   0  0  0  0  0  0  0  0  0  0  0  0
   11.7426   12.8365   21.8119 H   0  0  0  0  0  0  0  0  0  0  0  0
   10.2726   13.6930   21.3561 H   0  0  0  0  0  0  0  0  0  0  0  0
   12.6611   14.9654   22.8323 H   0  0  0  0  0  0  0  0  0  0  0  0
   11.1845   15.8169   22.3805 H   0  0  0  0  0  0  0  0  0  0  0  0
  1  2  2  0  0  0  0
  1  3  1  0  0  0  0
  2  4  1  0  0  0  0
  3  7  2  0  0  0  0
  4  8  2  0  0  0  0
  5 18  1  0  0  0  0
  5 19  2  0  0  0  0
  6 18  2  0  0  0  0
  6 20  1  0  0  0  0
  7  8  1  0  0  0  0
  7 15  1  0  0  0  0
  8 21  1  0  0  0  0
  9 16  1  0  0  0  0
  9 21  1  0  0  0  0
  9 22  2  0  0  0  0
 10 11  1  0  0  0  0
 10 12  1  0  0  0  0
 11 13  1  0  0  0  0
 12 15  1  0  0  0  0
 13 15  1  0  0  0  0
 14 15  1  0  0  0  0
 14 21  1  0  0  0  0
 16 17  1  0  0  0  0
 17 20  1  0  0  0  0
 19 20  1  0  0  0  0
  1 23  1  0  0  0  0
  2 24  1  0  0  0  0
  3 25  1  0  0  0  0
  4 26  1  0  0  0  0
  5 27  1  0  0  0  0
  6 28  1  0  0  0  0
 10 29  1  0  0  0  0
 10 30  1  0  0  0  0
 11 31  1  0  0  0  0
 11 32  1  0  0  0  0
 12 33  1  0  0  0  0
 12 34  1  0  0  0  0
 13 35  1  0  0  0  0
 13 36  1  0  0  0  0
 14 37  1  0  0  0  0
 14 38  1  0  0  0  0
 16 39  1  0  0  0  0
 16 40  1  0  0  0  0
 17 41  1  0  0  0  0
 17 42  1  0  0  0  0
M  END
> <Catalog ID>
Z1360738605

> <PlateID>
1041831-R-06

> <Well>
A06

> <MW (desalted)>
296.367

> <ClogP>
2.279

> <HBD>
0

> <TPSA>
51.020

> <RotBonds>
3

> <ROCS_ShapeQuery>
A71EV2A-x0451_0A_A71EV2A-x0310_0A_A71EV2A-x0416_0A_peptide

> <ROCS_TanimotoCombo>
0.520 

> <ROCS_ShapeTanimoto>
0.374 

> <ROCS_ColorTanimoto>
0.146 

> <ROCS_RefTversky>
0.324 

> <ROCS_RefColorTversky>
0.162 

> <ROCS_RefTverskyCombo>
0.487 

> <ROCS_FitTversky>
1.696 

> <ROCS_FitColorTversky>
0.598 

> <ROCS_FitTverskyCombo>
2.294 

> <ROCS_ColorScore>
-4.941

> <ROCS_Overlap>
2253.761

> <ROCS_Rank>
340                 

$$$$
untitled-dbase-1431_539
  -OEChem-11132311063D

 50 53  0     0  0  0  0  0  0999 V2000
   13.7011   16.5888   18.1875 C   0  0  0  0  0  0  0  0  0  0  0  0
   14.0426   15.3260   18.6715 C   0  0  0  0  0  0  0  0  0  0  0  0
   13.1291   17.5318   19.0415 C   0  0  0  0  0  0  0  0  0  0  0  0
   13.8120   15.0061   20.0094 C   0  0  0  0  0  0  0  0  0  0  0  0
   12.8986   17.2119   20.3795 C   0  0  0  0  0  0  0  0  0  0  0  0
   10.1006   10.4959   23.6333 C   0  0  0  0  0  0  0  0  0  0  0  0
   12.4001   15.8726   24.1930 C   0  0  0  0  0  0  0  0  0  0  0  0
   13.2980   14.4347   22.7926 C   0  0  0  0  0  0  0  0  0  0  0  0
    8.5122   11.7323   24.9152 C   0  0  0  0  0  0  0  0  0  0  0  0
    9.7837   11.6605   24.3327 C   0  0  0  0  0  0  0  0  0  0  0  0
   12.9088   14.5630   24.1035 C   0  0  0  0  0  0  0  0  0  0  0  0
   13.2400   15.9490   20.8635 C   0  0  0  0  0  0  0  0  0  0  0  0
    9.1527    9.4813   23.5514 C   0  0  0  0  0  0  0  0  0  0  0  0
    7.7619   12.6470   25.6806 C   0  0  0  0  0  0  0  0  0  0  0  0
    7.6632   10.6481   24.7571 C   0  0  0  0  0  0  0  0  0  0  0  0
   10.7421   12.7443   24.4438 C   0  0  0  0  0  0  0  0  0  0  0  0
    9.5075    8.2383   22.7992 C   0  0  0  0  0  0  0  0  0  0  0  0
    8.1665   13.9841   26.1503 C   0  0  0  0  0  0  0  0  0  0  0  0
    5.3243   10.1614   25.5300 C   0  0  0  0  0  0  0  0  0  0  0  0
   12.3352   11.1945   25.6051 C   0  0  0  0  0  0  0  0  0  0  0  0
   13.0053   13.5355   25.1940 C   0  0  0  0  0  0  0  0  0  0  0  0
   12.4595   16.5293   23.0315 N   0  0  0  0  0  0  0  0  0  0  0  0
    7.9124    9.5038   24.0967 N   0  0  0  0  0  0  0  0  0  0  0  0
    6.5427   12.1903   25.9852 N   0  0  0  0  0  0  0  0  0  0  0  0
   13.0102   15.6288   22.1997 N   0  0  0  0  0  0  0  0  0  0  0  0
    6.5117   10.9741   25.4108 N   0  0  0  0  0  0  0  0  0  0  0  0
   11.9846   12.4985   25.0601 N   0  0  0  0  0  0  0  0  0  0  0  0
   10.4119   13.8412   23.9700 O   0  0  0  0  0  0  0  0  0  0  0  0
   13.8820   16.8390   17.1463 H   0  0  0  0  0  0  0  0  0  0  0  0
   14.4891   14.5921   18.0070 H   0  0  0  0  0  0  0  0  0  0  0  0
   12.8648   18.5155   18.6642 H   0  0  0  0  0  0  0  0  0  0  0  0
   14.0836   14.0184   20.3740 H   0  0  0  0  0  0  0  0  0  0  0  0
   12.4529   17.9566   21.0345 H   0  0  0  0  0  0  0  0  0  0  0  0
   11.0728   10.3840   23.1612 H   0  0  0  0  0  0  0  0  0  0  0  0
   11.9881   16.3780   25.0550 H   0  0  0  0  0  0  0  0  0  0  0  0
   13.7444   13.6119   22.2494 H   0  0  0  0  0  0  0  0  0  0  0  0
    9.9684    7.5077   23.4728 H   0  0  0  0  0  0  0  0  0  0  0  0
    8.6188    7.7853   22.3446 H   0  0  0  0  0  0  0  0  0  0  0  0
   10.2085    8.4567   21.9850 H   0  0  0  0  0  0  0  0  0  0  0  0
    7.9030   14.7627   25.4146 H   0  0  0  0  0  0  0  0  0  0  0  0
    7.6844   14.2526   27.1067 H   0  0  0  0  0  0  0  0  0  0  0  0
    9.2541   14.0503   26.3306 H   0  0  0  0  0  0  0  0  0  0  0  0
    5.4231    9.5499   26.4307 H   0  0  0  0  0  0  0  0  0  0  0  0
    4.4458   10.8086   25.6018 H   0  0  0  0  0  0  0  0  0  0  0  0
    5.2303    9.5269   24.6442 H   0  0  0  0  0  0  0  0  0  0  0  0
   12.8235   10.5903   24.8264 H   0  0  0  0  0  0  0  0  0  0  0  0
   13.0233   11.3247   26.4534 H   0  0  0  0  0  0  0  0  0  0  0  0
   11.4234   10.6833   25.9477 H   0  0  0  0  0  0  0  0  0  0  0  0
   13.9860   13.0475   25.1790 H   0  0  0  0  0  0  0  0  0  0  0  0
   12.8866   13.9968   26.1801 H   0  0  0  0  0  0  0  0  0  0  0  0
  1  2  2  0  0  0  0
  1  3  1  0  0  0  0
  2  4  1  0  0  0  0
  3  5  2  0  0  0  0
  4 12  2  0  0  0  0
  5 12  1  0  0  0  0
  6 10  1  0  0  0  0
  6 13  2  0  0  0  0
  7 11  1  0  0  0  0
  7 22  2  0  0  0  0
  8 11  2  0  0  0  0
  8 25  1  0  0  0  0
  9 10  2  0  0  0  0
  9 14  1  0  0  0  0
  9 15  1  0  0  0  0
 10 16  1  0  0  0  0
 11 21  1  0  0  0  0
 12 25  1  0  0  0  0
 13 17  1  0  0  0  0
 13 23  1  0  0  0  0
 14 18  1  0  0  0  0
 14 24  2  0  0  0  0
 15 23  2  0  0  0  0
 15 26  1  0  0  0  0
 16 27  1  0  0  0  0
 16 28  2  0  0  0  0
 19 26  1  0  0  0  0
 20 27  1  0  0  0  0
 21 27  1  0  0  0  0
 22 25  1  0  0  0  0
 24 26  1  0  0  0  0
  1 29  1  0  0  0  0
  2 30  1  0  0  0  0
  3 31  1  0  0  0  0
  4 32  1  0  0  0  0
  5 33  1  0  0  0  0
  6 34  1  0  0  0  0
  7 35  1  0  0  0  0
  8 36  1  0  0  0  0
 17 37  1  0  0  0  0
 17 38  1  0  0  0  0
 17 39  1  0  0  0  0
 18 40  1  0  0  0  0
 18 41  1  0  0  0  0
 18 42  1  0  0  0  0
 19 43  1  0  0  0  0
 19 44  1  0  0  0  0
 19 45  1  0  0  0  0
 20 46  1  0  0  0  0
 20 47  1  0  0  0  0
 20 48  1  0  0  0  0
 21 49  1  0  0  0  0
 21 50  1  0  0  0  0
M  END
> <Catalog ID>
Z235426516

> <PlateID>
1041831-R-18

> <Well>
H02

> <MW (desalted)>
374.439

> <ClogP>
2.331

> <HBD>
0

> <TPSA>
68.840

> <RotBonds>
4

> <ROCS_ShapeQuery>
A71EV2A-x0451_0A_A71EV2A-x0310_0A_A71EV2A-x0416_0A_peptide

> <ROCS_TanimotoCombo>
0.520 

> <ROCS_ShapeTanimoto>
0.329 

> <ROCS_ColorTanimoto>
0.191 

> <ROCS_RefTversky>
0.305 

> <ROCS_RefColorTversky>
0.209 

> <ROCS_RefTverskyCombo>
0.514 

> <ROCS_FitTversky>
1.321 

> <ROCS_FitColorTversky>
0.692 

> <ROCS_FitTverskyCombo>
2.013 

> <ROCS_ColorScore>
-6.370

> <ROCS_Overlap>
2123.865

> <ROCS_Rank>
341                 

$$$$
untitled-dbase-778_4082
  -OEChem-11132311063D

 52 54  0     1  0  0  0  0  0999 V2000
   12.8629   16.1005   17.8303 C   0  0  0  0  0  0  0  0  0  0  0  0
   12.0204   15.4168   18.7068 C   0  0  0  0  0  0  0  0  0  0  0  0
   14.0528   16.6577   18.2987 C   0  0  0  0  0  0  0  0  0  0  0  0
   13.5575   15.8475   20.5203 C   0  0  0  0  0  0  0  0  0  0  0  0
   12.3677   15.2904   20.0518 C   0  0  0  0  0  0  0  0  0  0  0  0
   14.4001   16.5312   19.6437 C   0  0  0  0  0  0  0  0  0  0  0  0
   11.1210   13.7730   23.3832 C   0  0  0  0  0  0  0  0  0  0  0  0
   10.1668   10.1345   23.1059 C   0  0  0  0  0  0  0  0  0  0  0  0
    7.9856   10.8672   26.0346 C   0  0  0  0  0  0  0  0  0  0  0  0
    8.7015   12.0264   23.8599 C   0  0  0  0  0  0  0  0  0  0  0  0
    9.2152    9.1947   23.8339 C   0  0  0  0  0  0  0  0  0  0  0  0
    7.1656   12.0171   26.5819 C   0  0  0  0  0  0  0  0  0  0  0  0
    6.3269   11.4371   24.4910 C   0  0  0  0  0  0  0  0  0  0  0  0
   10.1423   11.5215   23.7459 C   0  0  2  0  0  0  0  0  0  0  0  0
    7.7844   10.9829   24.5293 C   0  0  2  0  0  0  0  0  0  0  0  0
   16.4859   17.8061   19.2143 C   0  0  0  0  0  0  0  0  0  0  0  0
   15.9666   16.9803   21.5158 C   0  0  0  0  0  0  0  0  0  0  0  0
   11.4569   14.5523   20.9985 C   0  0  0  0  0  0  0  0  0  0  0  0
   12.0180   14.5287   22.4190 C   0  0  0  0  0  0  0  0  0  0  0  0
   10.9524   12.4506   22.9967 N   0  0  0  0  0  0  0  0  0  0  0  0
   15.6035   17.0942   20.1172 N   0  0  0  0  0  0  0  0  0  0  0  0
   10.6149   14.2871   24.3771 O   0  0  0  0  0  0  0  0  0  0  0  0
    6.1134   12.2660   25.6407 O   0  0  0  0  0  0  0  0  0  0  0  0
    7.8917    9.7266   23.8618 O   0  0  0  0  0  0  0  0  0  0  0  0
   12.5924   16.1989   16.7828 H   0  0  0  0  0  0  0  0  0  0  0  0
   11.0950   14.9858   18.3330 H   0  0  0  0  0  0  0  0  0  0  0  0
   14.7021   17.1882   17.6069 H   0  0  0  0  0  0  0  0  0  0  0  0
   13.8270   15.7478   21.5693 H   0  0  0  0  0  0  0  0  0  0  0  0
   11.1803    9.7185   23.1164 H   0  0  0  0  0  0  0  0  0  0  0  0
    9.8504   10.2143   22.0578 H   0  0  0  0  0  0  0  0  0  0  0  0
    9.0452   11.0235   26.2898 H   0  0  0  0  0  0  0  0  0  0  0  0
    7.6775    9.9137   26.4803 H   0  0  0  0  0  0  0  0  0  0  0  0
    8.6704   12.9727   24.4139 H   0  0  0  0  0  0  0  0  0  0  0  0
    8.3188   12.2307   22.8503 H   0  0  0  0  0  0  0  0  0  0  0  0
    9.1726    8.2380   23.3082 H   0  0  0  0  0  0  0  0  0  0  0  0
    9.5599    8.9891   24.8492 H   0  0  0  0  0  0  0  0  0  0  0  0
    6.7029   11.7578   27.5414 H   0  0  0  0  0  0  0  0  0  0  0  0
    7.7589   12.9270   26.7189 H   0  0  0  0  0  0  0  0  0  0  0  0
    6.1086   12.0485   23.6057 H   0  0  0  0  0  0  0  0  0  0  0  0
    5.6158   10.6030   24.5273 H   0  0  0  0  0  0  0  0  0  0  0  0
   10.5919   11.4697   24.7467 H   0  0  0  0  0  0  0  0  0  0  0  0
   17.3647   18.1674   19.7686 H   0  0  0  0  0  0  0  0  0  0  0  0
   16.8121   17.1291   18.4110 H   0  0  0  0  0  0  0  0  0  0  0  0
   15.9506   18.6621   18.7776 H   0  0  0  0  0  0  0  0  0  0  0  0
   16.9319   17.4793   21.6863 H   0  0  0  0  0  0  0  0  0  0  0  0
   15.1929   17.4574   22.1354 H   0  0  0  0  0  0  0  0  0  0  0  0
   16.0502   15.9177   21.7874 H   0  0  0  0  0  0  0  0  0  0  0  0
   10.4637   15.0198   20.9899 H   0  0  0  0  0  0  0  0  0  0  0  0
   11.3021   13.5285   20.6340 H   0  0  0  0  0  0  0  0  0  0  0  0
   12.1398   15.5518   22.7963 H   0  0  0  0  0  0  0  0  0  0  0  0
   13.0072   14.0542   22.4287 H   0  0  0  0  0  0  0  0  0  0  0  0
   11.3828   12.1240   22.1357 H   0  0  0  0  0  0  0  0  0  0  0  0
  1  2  2  0  0  0  0
  1  3  1  0  0  0  0
  2  5  1  0  0  0  0
  3  6  2  0  0  0  0
  4  5  2  0  0  0  0
  4  6  1  0  0  0  0
  5 18  1  0  0  0  0
  6 21  1  0  0  0  0
  7 19  1  0  0  0  0
  7 20  1  0  0  0  0
  7 22  2  0  0  0  0
  8 11  1  0  0  0  0
  8 14  1  0  0  0  0
  9 12  1  0  0  0  0
  9 15  1  0  0  0  0
 10 14  1  0  0  0  0
 10 15  1  0  0  0  0
 11 24  1  0  0  0  0
 12 23  1  0  0  0  0
 13 15  1  0  0  0  0
 13 23  1  0  0  0  0
 14 20  1  0  0  0  0
 15 24  1  0  0  0  0
 16 21  1  0  0  0  0
 17 21  1  0  0  0  0
 18 19  1  0  0  0  0
  1 25  1  0  0  0  0
  2 26  1  0  0  0  0
  3 27  1  0  0  0  0
  4 28  1  0  0  0  0
  8 29  1  0  0  0  0
  8 30  1  0  0  0  0
  9 31  1  0  0  0  0
  9 32  1  0  0  0  0
 10 33  1  0  0  0  0
 10 34  1  0  0  0  0
 11 35  1  0  0  0  0
 11 36  1  0  0  0  0
 12 37  1  0  0  0  0
 12 38  1  0  0  0  0
 13 39  1  0  0  0  0
 13 40  1  0  0  0  0
 14 41  1  0  0  0  0
 16 42  1  0  0  0  0
 16 43  1  0  0  0  0
 16 44  1  0  0  0  0
 17 45  1  0  0  0  0
 17 46  1  0  0  0  0
 17 47  1  0  0  0  0
 18 48  1  0  0  0  0
 18 49  1  0  0  0  0
 19 50  1  0  0  0  0
 19 51  1  0  0  0  0
 20 52  1  0  0  0  0
M  END
> <Catalog ID>
Z1942499231

> <PlateID>
1041831-R-10

> <Well>
F09

> <MW (desalted)>
332.437

> <ClogP>
0.504

> <HBD>
1

> <TPSA>
50.800

> <RotBonds>
5

> <ROCS_ShapeQuery>
A71EV2A-x0451_0A_A71EV2A-x0310_0A_A71EV2A-x0416_0A_peptide

> <ROCS_TanimotoCombo>
0.520 

> <ROCS_ShapeTanimoto>
0.337 

> <ROCS_ColorTanimoto>
0.184 

> <ROCS_RefTversky>
0.302 

> <ROCS_RefColorTversky>
0.197 

> <ROCS_RefTverskyCombo>
0.499 

> <ROCS_FitTversky>
1.533 

> <ROCS_FitColorTversky>
0.729 

> <ROCS_FitTverskyCombo>
2.262 

> <ROCS_ColorScore>
-6.004

> <ROCS_Overlap>
2095.294

> <ROCS_Rank>
342                 

$$$$
untitled-dbase-1944_1256
  -OEChem-11132311063D

 50 53  0     0  0  0  0  0  0999 V2000
    5.8584   11.5719   25.4164 C   0  0  0  0  0  0  0  0  0  0  0  0
    6.5990   12.7219   25.7149 C   0  0  0  0  0  0  0  0  0  0  0  0
    6.4333   10.5343   24.6834 C   0  0  0  0  0  0  0  0  0  0  0  0
    7.9232   12.8502   25.2851 C   0  0  0  0  0  0  0  0  0  0  0  0
    7.7503   10.6650   24.2568 C   0  0  0  0  0  0  0  0  0  0  0  0
    8.4890   11.8135   24.5550 C   0  0  0  0  0  0  0  0  0  0  0  0
   12.7512   16.2203   21.5195 C   0  0  0  0  0  0  0  0  0  0  0  0
   12.7682   14.7127   22.9833 C   0  0  0  0  0  0  0  0  0  0  0  0
   10.7903   12.6705   24.1280 C   0  0  0  0  0  0  0  0  0  0  0  0
   12.7673   15.3133   18.4062 C   0  0  0  0  0  0  0  0  0  0  0  0
   14.2684   15.5557   18.4803 C   0  0  0  0  0  0  0  0  0  0  0  0
   12.1505   16.5334   19.0707 C   0  0  0  0  0  0  0  0  0  0  0  0
   14.5001   16.5180   19.6486 C   0  0  0  0  0  0  0  0  0  0  0  0
    9.9079   10.4211   23.3102 C   0  0  0  0  0  0  0  0  0  0  0  0
   13.1165   16.8831   20.2077 C   0  0  0  0  0  0  0  0  0  0  0  0
    8.5613    9.6704   23.4618 C   0  0  0  0  0  0  0  0  0  0  0  0
    8.7488    8.3606   24.2355 C   0  0  0  0  0  0  0  0  0  0  0  0
    7.9289    9.3971   22.0929 C   0  0  0  0  0  0  0  0  0  0  0  0
   13.1550   13.3922   23.6037 C   0  0  0  0  0  0  0  0  0  0  0  0
   12.0921   12.3091   23.4520 C   0  0  0  0  0  0  0  0  0  0  0  0
   11.9705   16.6473   22.4843 N   0  0  0  0  0  0  0  0  0  0  0  0
   11.9817   15.6555   23.4473 N   0  0  0  0  0  0  0  0  0  0  0  0
    9.7890   11.7140   24.0177 N   0  0  0  0  0  0  0  0  0  0  0  0
   10.6980   13.7486   24.7153 O   0  0  0  0  0  0  0  0  0  0  0  0
   13.2970   14.9971   21.7618 O   0  0  0  0  0  0  0  0  0  0  0  0
    4.8307   11.4890   25.7587 H   0  0  0  0  0  0  0  0  0  0  0  0
    6.1389   13.5232   26.2870 H   0  0  0  0  0  0  0  0  0  0  0  0
    5.8560    9.6442   24.4555 H   0  0  0  0  0  0  0  0  0  0  0  0
    8.4640   13.7547   25.5346 H   0  0  0  0  0  0  0  0  0  0  0  0
   12.4447   15.2477   17.3547 H   0  0  0  0  0  0  0  0  0  0  0  0
   12.4736   14.3765   18.9014 H   0  0  0  0  0  0  0  0  0  0  0  0
   14.7953   14.6018   18.6728 H   0  0  0  0  0  0  0  0  0  0  0  0
   14.6725   15.9548   17.5325 H   0  0  0  0  0  0  0  0  0  0  0  0
   12.0290   17.3597   18.3633 H   0  0  0  0  0  0  0  0  0  0  0  0
   11.1545   16.2784   19.4540 H   0  0  0  0  0  0  0  0  0  0  0  0
   15.1804   16.0789   20.3936 H   0  0  0  0  0  0  0  0  0  0  0  0
   14.9940   17.4253   19.2660 H   0  0  0  0  0  0  0  0  0  0  0  0
   10.7477    9.8659   23.7439 H   0  0  0  0  0  0  0  0  0  0  0  0
   10.1544   10.6286   22.2622 H   0  0  0  0  0  0  0  0  0  0  0  0
   13.0857   17.9884   20.3733 H   0  0  0  0  0  0  0  0  0  0  0  0
    9.3350    7.6666   23.6387 H   0  0  0  0  0  0  0  0  0  0  0  0
    7.7775    7.9220   24.4487 H   0  0  0  0  0  0  0  0  0  0  0  0
    9.2674    8.5611   25.1695 H   0  0  0  0  0  0  0  0  0  0  0  0
    8.5365    8.6789   21.5482 H   0  0  0  0  0  0  0  0  0  0  0  0
    7.8715   10.3235   21.5271 H   0  0  0  0  0  0  0  0  0  0  0  0
    6.9284    8.9943   22.2281 H   0  0  0  0  0  0  0  0  0  0  0  0
   13.4107   13.5347   24.6617 H   0  0  0  0  0  0  0  0  0  0  0  0
   14.0777   13.0437   23.1215 H   0  0  0  0  0  0  0  0  0  0  0  0
   11.8827   12.1042   22.4016 H   0  0  0  0  0  0  0  0  0  0  0  0
   12.4441   11.3830   23.9082 H   0  0  0  0  0  0  0  0  0  0  0  0
  1  2  2  0  0  0  0
  1  3  1  0  0  0  0
  2  4  1  0  0  0  0
  3  5  2  0  0  0  0
  4  6  2  0  0  0  0
  5  6  1  0  0  0  0
  5 16  1  0  0  0  0
  6 23  1  0  0  0  0
  7 15  1  0  0  0  0
  7 21  2  0  0  0  0
  7 25  1  0  0  0  0
  8 19  1  0  0  0  0
  8 22  2  0  0  0  0
  8 25  1  0  0  0  0
  9 20  1  0  0  0  0
  9 23  1  0  0  0  0
  9 24  2  0  0  0  0
 10 11  1  0  0  0  0
 10 12  1  0  0  0  0
 11 13  1  0  0  0  0
 12 15  1  0  0  0  0
 13 15  1  0  0  0  0
 14 16  1  0  0  0  0
 14 23  1  0  0  0  0
 16 17  1  0  0  0  0
 16 18  1  0  0  0  0
 19 20  1  0  0  0  0
 21 22  1  0  0  0  0
  1 26  1  0  0  0  0
  2 27  1  0  0  0  0
  3 28  1  0  0  0  0
  4 29  1  0  0  0  0
 10 30  1  0  0  0  0
 10 31  1  0  0  0  0
 11 32  1  0  0  0  0
 11 33  1  0  0  0  0
 12 34  1  0  0  0  0
 12 35  1  0  0  0  0
 13 36  1  0  0  0  0
 13 37  1  0  0  0  0
 14 38  1  0  0  0  0
 14 39  1  0  0  0  0
 15 40  1  0  0  0  0
 17 41  1  0  0  0  0
 17 42  1  0  0  0  0
 17 43  1  0  0  0  0
 18 44  1  0  0  0  0
 18 45  1  0  0  0  0
 18 46  1  0  0  0  0
 19 47  1  0  0  0  0
 19 48  1  0  0  0  0
 20 49  1  0  0  0  0
 20 50  1  0  0  0  0
M  END
> <Catalog ID>
Z1420419941

> <PlateID>
1041831-R-25

> <Well>
C05

> <MW (desalted)>
339.431

> <ClogP>
2.550

> <HBD>
0

> <TPSA>
59.230

> <RotBonds>
4

> <ROCS_ShapeQuery>
A71EV2A-x0451_0A_A71EV2A-x0310_0A_A71EV2A-x0416_0A_peptide

> <ROCS_TanimotoCombo>
0.520 

> <ROCS_ShapeTanimoto>
0.345 

> <ROCS_ColorTanimoto>
0.176 

> <ROCS_RefTversky>
0.310 

> <ROCS_RefColorTversky>
0.196 

> <ROCS_RefTverskyCombo>
0.505 

> <ROCS_FitTversky>
1.489 

> <ROCS_FitColorTversky>
0.631 

> <ROCS_FitTverskyCombo>
2.120 

> <ROCS_ColorScore>
-5.984

> <ROCS_Overlap>
2152.185

> <ROCS_Rank>
343                 

$$$$
untitled-dbase-583_583
  -OEChem-11132311063D

 37 39  0     0  0  0  0  0  0999 V2000
    7.2974   11.6771   25.1678 C   0  0  0  0  0  0  0  0  0  0  0  0
    8.2885   12.3017   24.4108 C   0  0  0  0  0  0  0  0  0  0  0  0
    7.1481   10.2912   25.1139 C   0  0  0  0  0  0  0  0  0  0  0  0
   11.5576    8.7126   21.6016 C   0  0  0  0  0  0  0  0  0  0  0  0
   13.8839   16.3366   20.6487 C   0  0  0  0  0  0  0  0  0  0  0  0
   12.1320   14.9698   19.7284 C   0  0  0  0  0  0  0  0  0  0  0  0
   10.4599    7.8380   21.4927 C   0  0  0  0  0  0  0  0  0  0  0  0
   14.1366   16.7844   19.3621 C   0  0  0  0  0  0  0  0  0  0  0  0
   12.4630   15.4789   18.4830 C   0  0  0  0  0  0  0  0  0  0  0  0
   11.1115    9.7235   22.4175 C   0  0  0  0  0  0  0  0  0  0  0  0
   12.8608   15.4121   20.8269 C   0  0  0  0  0  0  0  0  0  0  0  0
    8.9810   10.1548   23.5458 C   0  0  0  0  0  0  0  0  0  0  0  0
    9.1303   11.5406   23.5998 C   0  0  0  0  0  0  0  0  0  0  0  0
    7.9899    9.5301   24.3029 C   0  0  0  0  0  0  0  0  0  0  0  0
   10.7926   13.3913   23.1613 C   0  0  0  0  0  0  0  0  0  0  0  0
   12.5447   14.8927   22.1997 C   0  0  0  0  0  0  0  0  0  0  0  0
   13.4501   16.3780   18.2708 N   0  0  0  0  0  0  0  0  0  0  0  0
    9.3965    8.2566   22.1842 N   0  0  0  0  0  0  0  0  0  0  0  0
    9.8240    9.4052   22.7355 N   0  0  0  0  0  0  0  0  0  0  0  0
   10.1141   12.1977   22.8530 N   0  0  0  0  0  0  0  0  0  0  0  0
   11.7055   13.7176   22.1532 N   0  0  0  0  0  0  0  0  0  0  0  0
   10.6306   14.0769   24.1680 O   0  0  0  0  0  0  0  0  0  0  0  0
    7.7601    7.8159   24.2737 Cl  0  0  0  0  0  0  0  0  0  0  0  0
    6.6416   12.2698   25.7989 H   0  0  0  0  0  0  0  0  0  0  0  0
    8.3942   13.3825   24.4619 H   0  0  0  0  0  0  0  0  0  0  0  0
    6.3705    9.8209   25.7102 H   0  0  0  0  0  0  0  0  0  0  0  0
   12.5356    8.6227   21.1524 H   0  0  0  0  0  0  0  0  0  0  0  0
   14.4715   16.7007   21.4848 H   0  0  0  0  0  0  0  0  0  0  0  0
   11.3281   14.2496   19.8353 H   0  0  0  0  0  0  0  0  0  0  0  0
   10.3900    6.9129   20.9385 H   0  0  0  0  0  0  0  0  0  0  0  0
   14.9249   17.5049   19.1697 H   0  0  0  0  0  0  0  0  0  0  0  0
   11.9246   15.1659   17.5946 H   0  0  0  0  0  0  0  0  0  0  0  0
   11.5966   10.6175   22.7868 H   0  0  0  0  0  0  0  0  0  0  0  0
   13.4641   14.6297   22.7341 H   0  0  0  0  0  0  0  0  0  0  0  0
   12.0269   15.6506   22.7969 H   0  0  0  0  0  0  0  0  0  0  0  0
   10.3823   11.7616   21.9665 H   0  0  0  0  0  0  0  0  0  0  0  0
   11.7819   13.0999   21.3513 H   0  0  0  0  0  0  0  0  0  0  0  0
  1  2  2  0  0  0  0
  1  3  1  0  0  0  0
  2 13  1  0  0  0  0
  3 14  2  0  0  0  0
  4  7  1  0  0  0  0
  4 10  2  0  0  0  0
  5  8  1  0  0  0  0
  5 11  2  0  0  0  0
  6  9  2  0  0  0  0
  6 11  1  0  0  0  0
  7 18  2  0  0  0  0
  8 17  2  0  0  0  0
  9 17  1  0  0  0  0
 10 19  1  0  0  0  0
 11 16  1  0  0  0  0
 12 13  2  0  0  0  0
 12 14  1  0  0  0  0
 12 19  1  0  0  0  0
 13 20  1  0  0  0  0
 14 23  1  0  0  0  0
 15 20  1  0  0  0  0
 15 21  1  0  0  0  0
 15 22  2  0  0  0  0
 16 21  1  0  0  0  0
 18 19  1  0  0  0  0
  1 24  1  0  0  0  0
  2 25  1  0  0  0  0
  3 26  1  0  0  0  0
  4 27  1  0  0  0  0
  5 28  1  0  0  0  0
  6 29  1  0  0  0  0
  7 30  1  0  0  0  0
  8 31  1  0  0  0  0
  9 32  1  0  0  0  0
 10 33  1  0  0  0  0
 16 34  1  0  0  0  0
 16 35  1  0  0  0  0
 20 36  1  0  0  0  0
 21 37  1  0  0  0  0
M  END
> <Catalog ID>
Z595692200

> <PlateID>
1041831-R-08

> <Well>
C04

> <MW (desalted)>
327.768

> <ClogP>
2.706

> <HBD>
2

> <TPSA>
71.840

> <RotBonds>
4

> <ROCS_ShapeQuery>
A71EV2A-x0451_0A_A71EV2A-x0310_0A_A71EV2A-x0416_0A_peptide

> <ROCS_TanimotoCombo>
0.520 

> <ROCS_ShapeTanimoto>
0.350 

> <ROCS_ColorTanimoto>
0.170 

> <ROCS_RefTversky>
0.310 

> <ROCS_RefColorTversky>
0.189 

> <ROCS_RefTverskyCombo>
0.500 

> <ROCS_FitTversky>
1.581 

> <ROCS_FitColorTversky>
0.629 

> <ROCS_FitTverskyCombo>
2.210 

> <ROCS_ColorScore>
-5.784

> <ROCS_Overlap>
2154.266

> <ROCS_Rank>
344                 

$$$$
untitled-dbase-3353_17
  -OEChem-11132311063D

 46 50  0     1  0  0  0  0  0999 V2000
    9.3504    9.7356   23.2966 C   0  0  0  0  0  0  0  0  0  0  0  0
    8.4659   11.9510   24.4591 C   0  0  0  0  0  0  0  0  0  0  0  0
    7.6721   12.8175   25.2279 C   0  0  0  0  0  0  0  0  0  0  0  0
    9.6091   12.0043   23.6698 C   0  0  0  0  0  0  0  0  0  0  0  0
    7.8459   10.7209   24.5935 C   0  0  0  0  0  0  0  0  0  0  0  0
   14.3511   16.7114   20.2001 C   0  0  0  0  0  0  0  0  0  0  0  0
   12.8983   17.1486   20.4360 C   0  0  0  0  0  0  0  0  0  0  0  0
   13.0417   16.0998   18.3102 C   0  0  0  0  0  0  0  0  0  0  0  0
   13.5973   14.3540   19.8491 C   0  0  0  0  0  0  0  0  0  0  0  0
    9.6731   14.3755   22.8727 C   0  0  0  0  0  0  0  0  0  0  0  0
   11.7596   13.2281   23.4707 C   0  0  0  0  0  0  0  0  0  0  0  0
   10.1707   14.5250   21.4326 C   0  0  0  0  0  0  0  0  0  0  0  0
   12.2426   13.4040   22.0239 C   0  0  0  0  0  0  0  0  0  0  0  0
   14.2075   15.5892   19.1584 C   0  0  2  0  0  0  0  0  0  0  0  0
   12.0977   16.2117   19.5110 C   0  0  1  0  0  0  0  0  0  0  0  0
   12.1196   14.7556   20.0291 C   0  0  2  0  0  0  0  0  0  0  0  0
    7.8501   14.2614   25.4552 C   0  0  0  0  0  0  0  0  0  0  0  0
   10.0554   10.8706   23.0792 N   0  0  0  0  0  0  0  0  0  0  0  0
    8.2352    9.5615   24.0369 N   0  0  0  0  0  0  0  0  0  0  0  0
    6.6408   12.1860   25.7972 N   0  0  0  0  0  0  0  0  0  0  0  0
   10.2944   13.1977   23.4798 N   0  0  0  0  0  0  0  0  0  0  0  0
   11.6416   14.5955   21.4016 N   0  0  0  0  0  0  0  0  0  0  0  0
    6.7530   10.8605   25.3946 O   0  0  0  0  0  0  0  0  0  0  0  0
    9.7354    8.8457   22.8103 H   0  0  0  0  0  0  0  0  0  0  0  0
   14.9350   17.5464   19.7968 H   0  0  0  0  0  0  0  0  0  0  0  0
   14.8340   16.3716   21.1219 H   0  0  0  0  0  0  0  0  0  0  0  0
   12.6096   17.0738   21.4882 H   0  0  0  0  0  0  0  0  0  0  0  0
   12.7695   18.1928   20.1281 H   0  0  0  0  0  0  0  0  0  0  0  0
   13.2458   17.0621   17.8287 H   0  0  0  0  0  0  0  0  0  0  0  0
   12.7055   15.3775   17.5588 H   0  0  0  0  0  0  0  0  0  0  0  0
   13.6667   13.4716   19.2022 H   0  0  0  0  0  0  0  0  0  0  0  0
   14.1056   14.1181   20.7906 H   0  0  0  0  0  0  0  0  0  0  0  0
    9.9357   15.2759   23.4327 H   0  0  0  0  0  0  0  0  0  0  0  0
    8.5849   14.2708   22.8814 H   0  0  0  0  0  0  0  0  0  0  0  0
   12.1562   12.2996   23.8838 H   0  0  0  0  0  0  0  0  0  0  0  0
   12.1277   14.0617   24.0684 H   0  0  0  0  0  0  0  0  0  0  0  0
    9.8324   13.6551   20.8643 H   0  0  0  0  0  0  0  0  0  0  0  0
    9.7253   15.4142   20.9773 H   0  0  0  0  0  0  0  0  0  0  0  0
   13.3383   13.4610   22.0064 H   0  0  0  0  0  0  0  0  0  0  0  0
   11.9542   12.5092   21.4609 H   0  0  0  0  0  0  0  0  0  0  0  0
   15.1304   15.3758   18.6158 H   0  0  0  0  0  0  0  0  0  0  0  0
   11.0950   16.5797   19.2819 H   0  0  0  0  0  0  0  0  0  0  0  0
   11.5003   14.1307   19.3729 H   0  0  0  0  0  0  0  0  0  0  0  0
    7.3193   14.8559   24.6919 H   0  0  0  0  0  0  0  0  0  0  0  0
    7.4728   14.5778   26.4442 H   0  0  0  0  0  0  0  0  0  0  0  0
    8.9135   14.5600   25.4286 H   0  0  0  0  0  0  0  0  0  0  0  0
  1 18  2  0  0  0  0
  1 19  1  0  0  0  0
  2  3  1  0  0  0  0
  2  4  2  0  0  0  0
  2  5  1  0  0  0  0
  3 17  1  0  0  0  0
  3 20  2  0  0  0  0
  4 18  1  0  0  0  0
  4 21  1  0  0  0  0
  5 19  2  0  0  0  0
  5 23  1  0  0  0  0
  6  7  1  0  0  0  0
  6 14  1  0  0  0  0
  7 15  1  0  0  0  0
  8 14  1  0  0  0  0
  8 15  1  0  0  0  0
  9 14  1  0  0  0  0
  9 16  1  0  0  0  0
 10 12  1  0  0  0  0
 10 21  1  0  0  0  0
 11 13  1  0  0  0  0
 11 21  1  0  0  0  0
 12 22  1  0  0  0  0
 13 22  1  0  0  0  0
 15 16  1  0  0  0  0
 16 22  1  0  0  0  0
 20 23  1  0  0  0  0
  1 24  1  0  0  0  0
  6 25  1  0  0  0  0
  6 26  1  0  0  0  0
  7 27  1  0  0  0  0
  7 28  1  0  0  0  0
  8 29  1  0  0  0  0
  8 30  1  0  0  0  0
  9 31  1  0  0  0  0
  9 32  1  0  0  0  0
 10 33  1  0  0  0  0
 10 34  1  0  0  0  0
 11 35  1  0  0  0  0
 11 36  1  0  0  0  0
 12 37  1  0  0  0  0
 12 38  1  0  0  0  0
 13 39  1  0  0  0  0
 13 40  1  0  0  0  0
 14 41  1  0  0  0  0
 15 42  1  0  0  0  0
 16 43  1  0  0  0  0
 17 44  1  0  0  0  0
 17 45  1  0  0  0  0
 17 46  1  0  0  0  0
M  END
> <Catalog ID>
Z1939166863

> <PlateID>
1041831-R-42

> <Well>
H04

> <MW (desalted)>
313.397

> <ClogP>
2.873

> <HBD>
0

> <TPSA>
58.290

> <RotBonds>
2

> <ROCS_ShapeQuery>
A71EV2A-x0451_0A_A71EV2A-x0310_0A_A71EV2A-x0416_0A_peptide

> <ROCS_TanimotoCombo>
0.520 

> <ROCS_ShapeTanimoto>
0.365 

> <ROCS_ColorTanimoto>
0.155 

> <ROCS_RefTversky>
0.321 

> <ROCS_RefColorTversky>
0.196 

> <ROCS_RefTverskyCombo>
0.517 

> <ROCS_FitTversky>
1.606 

> <ROCS_FitColorTversky>
0.424 

> <ROCS_FitTverskyCombo>
2.030 

> <ROCS_ColorScore>
-6.047

> <ROCS_Overlap>
2230.840

> <ROCS_Rank>
345                 

$$$$
untitled-dbase-1484_2036
  -OEChem-11132311063D

 55 58  0     1  0  0  0  0  0999 V2000
   10.9378    6.4588   22.7339 C   0  0  0  0  0  0  0  0  0  0  0  0
   11.1378    7.8096   23.1060 C   0  0  0  0  0  0  0  0  0  0  0  0
   10.1518   10.8042   23.2733 C   0  0  0  0  0  0  0  0  0  0  0  0
    7.5262   13.0720   24.7740 C   0  0  0  0  0  0  0  0  0  0  0  0
    9.5761    6.2826   22.6526 C   0  0  0  0  0  0  0  0  0  0  0  0
    8.4053   12.1005   24.2554 C   0  0  0  0  0  0  0  0  0  0  0  0
    9.6531   12.0598   23.6209 C   0  0  0  0  0  0  0  0  0  0  0  0
    9.3965    9.6746   23.5699 C   0  0  0  0  0  0  0  0  0  0  0  0
    9.8841    8.3626   23.2253 C   0  0  0  0  0  0  0  0  0  0  0  0
    7.7575   10.8982   24.4921 C   0  0  0  0  0  0  0  0  0  0  0  0
   10.4096   13.2838   23.3291 C   0  0  0  0  0  0  0  0  0  0  0  0
    9.5656   13.5446   19.8225 C   0  0  0  0  0  0  0  0  0  0  0  0
   10.3158   14.8194   19.4260 C   0  0  0  0  0  0  0  0  0  0  0  0
   10.3604   12.7332   20.8409 C   0  0  0  0  0  0  0  0  0  0  0  0
   11.4902   14.7666   21.6691 C   0  0  0  0  0  0  0  0  0  0  0  0
   10.7504   15.6378   20.6485 C   0  0  2  0  0  0  0  0  0  0  0  0
    5.2716   10.4542   27.0516 C   0  0  0  0  0  0  0  0  0  0  0  0
    5.8952    8.8530   25.1932 C   0  0  0  0  0  0  0  0  0  0  0  0
    8.9723   17.1922   20.3059 C   0  0  0  0  0  0  0  0  0  0  0  0
   10.0290   17.0181   22.4567 C   0  0  0  0  0  0  0  0  0  0  0  0
    5.5634   10.3013   25.5575 C   0  0  0  0  0  0  0  0  0  0  0  0
    6.4158   12.5402   25.2957 N   0  0  0  0  0  0  0  0  0  0  0  0
    8.1871    9.6627   24.1812 N   0  0  0  0  0  0  0  0  0  0  0  0
    6.5848   11.2185   25.1100 N   0  0  0  0  0  0  0  0  0  0  0  0
   10.7161   13.5668   21.9961 N   0  0  0  0  0  0  0  0  0  0  0  0
    9.6137   16.2898   21.2597 N   0  0  0  0  0  0  0  0  0  0  0  0
   10.7075   13.9820   24.2971 O   0  0  0  0  0  0  0  0  0  0  0  0
    8.9266    7.4384   22.9506 O   0  0  0  0  0  0  0  0  0  0  0  0
   11.6919    5.7077   22.5483 H   0  0  0  0  0  0  0  0  0  0  0  0
   12.0812    8.3125   23.2659 H   0  0  0  0  0  0  0  0  0  0  0  0
   11.1158   10.7163   22.7788 H   0  0  0  0  0  0  0  0  0  0  0  0
    7.6450   14.1461   24.7938 H   0  0  0  0  0  0  0  0  0  0  0  0
    8.9443    5.4411   22.4084 H   0  0  0  0  0  0  0  0  0  0  0  0
    8.5829   13.7996   20.2375 H   0  0  0  0  0  0  0  0  0  0  0  0
    9.3845   12.9363   18.9290 H   0  0  0  0  0  0  0  0  0  0  0  0
   11.2098   14.5388   18.8540 H   0  0  0  0  0  0  0  0  0  0  0  0
    9.6940   15.4222   18.7530 H   0  0  0  0  0  0  0  0  0  0  0  0
    9.7833   11.8544   21.1391 H   0  0  0  0  0  0  0  0  0  0  0  0
   11.2966   12.3725   20.3984 H   0  0  0  0  0  0  0  0  0  0  0  0
   12.4462   14.4281   21.2507 H   0  0  0  0  0  0  0  0  0  0  0  0
   11.7230   15.3372   22.5753 H   0  0  0  0  0  0  0  0  0  0  0  0
   11.4462   16.4256   20.2999 H   0  0  0  0  0  0  0  0  0  0  0  0
    6.1434   10.2046   27.6658 H   0  0  0  0  0  0  0  0  0  0  0  0
    4.4519    9.7933   27.3529 H   0  0  0  0  0  0  0  0  0  0  0  0
    4.9798   11.4833   27.2890 H   0  0  0  0  0  0  0  0  0  0  0  0
    6.8076    8.5219   25.7012 H   0  0  0  0  0  0  0  0  0  0  0  0
    6.0556    8.7550   24.1143 H   0  0  0  0  0  0  0  0  0  0  0  0
    5.0895    8.1661   25.4737 H   0  0  0  0  0  0  0  0  0  0  0  0
    8.1106   17.6803   20.7846 H   0  0  0  0  0  0  0  0  0  0  0  0
    9.6939   17.9571   19.9828 H   0  0  0  0  0  0  0  0  0  0  0  0
    8.6299   16.6187   19.4319 H   0  0  0  0  0  0  0  0  0  0  0  0
    9.1549   17.5082   22.9101 H   0  0  0  0  0  0  0  0  0  0  0  0
   10.4706   16.3153   23.1785 H   0  0  0  0  0  0  0  0  0  0  0  0
   10.7747   17.7789   22.1826 H   0  0  0  0  0  0  0  0  0  0  0  0
    4.6450   10.5687   25.0190 H   0  0  0  0  0  0  0  0  0  0  0  0
  1  2  1  0  0  0  0
  1  5  2  0  0  0  0
  2  9  2  0  0  0  0
  3  7  1  0  0  0  0
  3  8  2  0  0  0  0
  4  6  1  0  0  0  0
  4 22  2  0  0  0  0
  5 28  1  0  0  0  0
  6  7  2  0  0  0  0
  6 10  1  0  0  0  0
  7 11  1  0  0  0  0
  8  9  1  0  0  0  0
  8 23  1  0  0  0  0
  9 28  1  0  0  0  0
 10 23  2  0  0  0  0
 10 24  1  0  0  0  0
 11 25  1  0  0  0  0
 11 27  2  0  0  0  0
 12 13  1  0  0  0  0
 12 14  1  0  0  0  0
 13 16  1  0  0  0  0
 14 25  1  0  0  0  0
 15 16  1  0  0  0  0
 15 25  1  0  0  0  0
 16 26  1  0  0  0  0
 17 21  1  0  0  0  0
 18 21  1  0  0  0  0
 19 26  1  0  0  0  0
 20 26  1  0  0  0  0
 21 24  1  0  0  0  0
 22 24  1  0  0  0  0
  1 29  1  0  0  0  0
  2 30  1  0  0  0  0
  3 31  1  0  0  0  0
  4 32  1  0  0  0  0
  5 33  1  0  0  0  0
 12 34  1  0  0  0  0
 12 35  1  0  0  0  0
 13 36  1  0  0  0  0
 13 37  1  0  0  0  0
 14 38  1  0  0  0  0
 14 39  1  0  0  0  0
 15 40  1  0  0  0  0
 15 41  1  0  0  0  0
 16 42  1  0  0  0  0
 17 43  1  0  0  0  0
 17 44  1  0  0  0  0
 17 45  1  0  0  0  0
 18 46  1  0  0  0  0
 18 47  1  0  0  0  0
 18 48  1  0  0  0  0
 19 49  1  0  0  0  0
 19 50  1  0  0  0  0
 19 51  1  0  0  0  0
 20 52  1  0  0  0  0
 20 53  1  0  0  0  0
 20 54  1  0  0  0  0
 21 55  1  0  0  0  0
M  END
> <Catalog ID>
Z1082521576

> <PlateID>
1041831-R-19

> <Well>
E05

> <MW (desalted)>
381.471

> <ClogP>
2.724

> <HBD>
0

> <TPSA>
67.400

> <RotBonds>
4

> <ROCS_ShapeQuery>
A71EV2A-x0451_0A_A71EV2A-x0310_0A_A71EV2A-x0416_0A_peptide

> <ROCS_TanimotoCombo>
0.520 

> <ROCS_ShapeTanimoto>
0.359 

> <ROCS_ColorTanimoto>
0.161 

> <ROCS_RefTversky>
0.325 

> <ROCS_RefColorTversky>
0.189 

> <ROCS_RefTverskyCombo>
0.514 

> <ROCS_FitTversky>
1.419 

> <ROCS_FitColorTversky>
0.522 

> <ROCS_FitTverskyCombo>
1.941 

> <ROCS_ColorScore>
-5.794

> <ROCS_Overlap>
2259.303

> <ROCS_Rank>
346                 

$$$$
untitled-dbase-1181_1823
  -OEChem-11132311063D

 45 48  0     0  0  0  0  0  0999 V2000
   14.0225   15.9958   19.0247 C   0  0  0  0  0  0  0  0  0  0  0  0
   13.1795   16.8988   18.3800 C   0  0  0  0  0  0  0  0  0  0  0  0
   13.5919   15.2983   20.1592 C   0  0  0  0  0  0  0  0  0  0  0  0
   11.8828   17.1335   18.8464 C   0  0  0  0  0  0  0  0  0  0  0  0
   10.2998   15.5976   21.7189 C   0  0  0  0  0  0  0  0  0  0  0  0
    7.7504    9.6178   23.6481 C   0  0  0  0  0  0  0  0  0  0  0  0
   12.2888   15.5185   20.6478 C   0  0  0  0  0  0  0  0  0  0  0  0
   11.5396   15.0016   21.7417 C   0  0  0  0  0  0  0  0  0  0  0  0
   11.4660   16.4292   19.9815 C   0  0  0  0  0  0  0  0  0  0  0  0
    7.7130   10.5450   24.6685 C   0  0  0  0  0  0  0  0  0  0  0  0
    9.3427   11.4183   23.4889 C   0  0  0  0  0  0  0  0  0  0  0  0
   10.8843   13.4076   23.5945 C   0  0  0  0  0  0  0  0  0  0  0  0
    5.9037   12.7883   25.8822 C   0  0  0  0  0  0  0  0  0  0  0  0
    6.3482   11.6450   27.9560 C   0  0  0  0  0  0  0  0  0  0  0  0
    4.4124   12.5369   26.0952 C   0  0  0  0  0  0  0  0  0  0  0  0
    4.8467   11.4202   28.1217 C   0  0  0  0  0  0  0  0  0  0  0  0
   12.0090   13.9863   22.7504 C   0  0  0  0  0  0  0  0  0  0  0  0
    6.7783   10.5188   25.8431 C   0  0  0  0  0  0  0  0  0  0  0  0
    8.6256   11.5779   24.5791 N   0  0  0  0  0  0  0  0  0  0  0  0
   10.2648   16.4568   20.6536 N   0  0  0  0  0  0  0  0  0  0  0  0
    6.7555   11.7959   26.5521 N   0  0  0  0  0  0  0  0  0  0  0  0
   10.3544   12.2178   23.0268 N   0  0  0  0  0  0  0  0  0  0  0  0
   10.5069   13.9364   24.6352 O   0  0  0  0  0  0  0  0  0  0  0  0
    4.1142   12.4704   27.4899 O   0  0  0  0  0  0  0  0  0  0  0  0
    8.9728   10.0478   22.5246 S   0  0  0  0  0  0  0  0  0  0  0  0
   15.0263   15.8298   18.6429 H   0  0  0  0  0  0  0  0  0  0  0  0
   13.5345   17.4297   17.5005 H   0  0  0  0  0  0  0  0  0  0  0  0
   14.2608   14.5970   20.6499 H   0  0  0  0  0  0  0  0  0  0  0  0
   11.2277   17.8374   18.3445 H   0  0  0  0  0  0  0  0  0  0  0  0
    9.4386   15.4870   22.3635 H   0  0  0  0  0  0  0  0  0  0  0  0
    7.1394    8.7369   23.5099 H   0  0  0  0  0  0  0  0  0  0  0  0
    6.1104   12.7895   24.7922 H   0  0  0  0  0  0  0  0  0  0  0  0
    6.1545   13.8082   26.2458 H   0  0  0  0  0  0  0  0  0  0  0  0
    6.6461   12.5458   28.5350 H   0  0  0  0  0  0  0  0  0  0  0  0
    6.8857   10.7903   28.4159 H   0  0  0  0  0  0  0  0  0  0  0  0
    3.8324   13.3614   25.6688 H   0  0  0  0  0  0  0  0  0  0  0  0
    4.0853   11.6120   25.6056 H   0  0  0  0  0  0  0  0  0  0  0  0
    4.5336   10.4543   27.7070 H   0  0  0  0  0  0  0  0  0  0  0  0
    4.5846   11.4245   29.1844 H   0  0  0  0  0  0  0  0  0  0  0  0
   12.5202   13.1636   22.2344 H   0  0  0  0  0  0  0  0  0  0  0  0
   12.7496   14.4463   23.4169 H   0  0  0  0  0  0  0  0  0  0  0  0
    5.7563   10.2950   25.5184 H   0  0  0  0  0  0  0  0  0  0  0  0
    7.0691    9.7433   26.5595 H   0  0  0  0  0  0  0  0  0  0  0  0
    9.4722   17.0291   20.3970 H   0  0  0  0  0  0  0  0  0  0  0  0
   10.7953   11.9118   22.1382 H   0  0  0  0  0  0  0  0  0  0  0  0
  1  2  2  0  0  0  0
  1  3  1  0  0  0  0
  2  4  1  0  0  0  0
  3  7  2  0  0  0  0
  4  9  2  0  0  0  0
  5  8  2  0  0  0  0
  5 20  1  0  0  0  0
  6 10  2  0  0  0  0
  6 25  1  0  0  0  0
  7  8  1  0  0  0  0
  7  9  1  0  0  0  0
  8 17  1  0  0  0  0
  9 20  1  0  0  0  0
 10 18  1  0  0  0  0
 10 19  1  0  0  0  0
 11 19  2  0  0  0  0
 11 22  1  0  0  0  0
 11 25  1  0  0  0  0
 12 17  1  0  0  0  0
 12 22  1  0  0  0  0
 12 23  2  0  0  0  0
 13 15  1  0  0  0  0
 13 21  1  0  0  0  0
 14 16  1  0  0  0  0
 14 21  1  0  0  0  0
 15 24  1  0  0  0  0
 16 24  1  0  0  0  0
 18 21  1  0  0  0  0
  1 26  1  0  0  0  0
  2 27  1  0  0  0  0
  3 28  1  0  0  0  0
  4 29  1  0  0  0  0
  5 30  1  0  0  0  0
  6 31  1  0  0  0  0
 13 32  1  0  0  0  0
 13 33  1  0  0  0  0
 14 34  1  0  0  0  0
 14 35  1  0  0  0  0
 15 36  1  0  0  0  0
 15 37  1  0  0  0  0
 16 38  1  0  0  0  0
 16 39  1  0  0  0  0
 17 40  1  0  0  0  0
 17 41  1  0  0  0  0
 18 42  1  0  0  0  0
 18 43  1  0  0  0  0
 20 44  1  0  0  0  0
 22 45  1  0  0  0  0
M  END
> <Catalog ID>
Z54656144

> <PlateID>
1041831-R-15

> <Well>
G02

> <MW (desalted)>
356.442

> <ClogP>
1.672

> <HBD>
2

> <TPSA>
70.250

> <RotBonds>
5

> <ROCS_ShapeQuery>
A71EV2A-x0451_0A_A71EV2A-x0310_0A_A71EV2A-x0416_0A_peptide

> <ROCS_TanimotoCombo>
0.520 

> <ROCS_ShapeTanimoto>
0.336 

> <ROCS_ColorTanimoto>
0.184 

> <ROCS_RefTversky>
0.304 

> <ROCS_RefColorTversky>
0.212 

> <ROCS_RefTverskyCombo>
0.515 

> <ROCS_FitTversky>
1.472 

> <ROCS_FitColorTversky>
0.584 

> <ROCS_FitTverskyCombo>
2.056 

> <ROCS_ColorScore>
-6.481

> <ROCS_Overlap>
2110.532

> <ROCS_Rank>
347                 

$$$$
untitled-dbase-739_50
  -OEChem-11132311063D

 43 46  0     0  0  0  0  0  0999 V2000
    6.3250   11.1032   25.8953 C   0  0  0  0  0  0  0  0  0  0  0  0
    6.9280   10.1920   25.0269 C   0  0  0  0  0  0  0  0  0  0  0  0
    6.8634   12.3832   26.0655 C   0  0  0  0  0  0  0  0  0  0  0  0
    8.0700   10.5743   24.3326 C   0  0  0  0  0  0  0  0  0  0  0  0
    8.5955   11.8626   24.4955 C   0  0  0  0  0  0  0  0  0  0  0  0
    8.0061   12.7727   25.3637 C   0  0  0  0  0  0  0  0  0  0  0  0
   10.5157   13.1773   23.6002 C   0  0  0  0  0  0  0  0  0  0  0  0
    8.7490    7.4407   24.0935 C   0  0  0  0  0  0  0  0  0  0  0  0
    7.8483    7.6179   22.8733 C   0  0  0  0  0  0  0  0  0  0  0  0
    9.6947    8.6365   24.0943 C   0  0  0  0  0  0  0  0  0  0  0  0
    8.1489    9.0036   22.2988 C   0  0  0  0  0  0  0  0  0  0  0  0
   11.6460   14.1362   21.4811 C   0  0  0  0  0  0  0  0  0  0  0  0
   11.2986   12.7049   21.1812 C   0  0  0  0  0  0  0  0  0  0  0  0
    9.8569   10.8416   22.8143 C   0  0  0  0  0  0  0  0  0  0  0  0
    8.9197    9.7563   23.3868 C   0  0  0  0  0  0  0  0  0  0  0  0
   11.6149   13.1273   22.5653 C   0  0  0  0  0  0  0  0  0  0  0  0
   12.8605   11.3038   24.2539 C   0  0  0  0  0  0  0  0  0  0  0  0
    9.7196   12.0414   23.6633 N   0  0  0  0  0  0  0  0  0  0  0  0
   10.4024   14.1787   24.3076 O   0  0  0  0  0  0  0  0  0  0  0  0
   13.7971   13.7152   23.8788 O   0  0  0  0  0  0  0  0  0  0  0  0
   13.9249   12.0499   21.9861 O   0  0  0  0  0  0  0  0  0  0  0  0
    8.4608   14.0179   25.5346 F   0  0  0  0  0  0  0  0  0  0  0  0
   13.2340   12.6178   23.1231 S   0  0  0  0  0  0  0  0  0  0  0  0
    5.4331   10.8162   26.4453 H   0  0  0  0  0  0  0  0  0  0  0  0
    6.4987    9.2032   24.9142 H   0  0  0  0  0  0  0  0  0  0  0  0
    6.3822   13.0830   26.7433 H   0  0  0  0  0  0  0  0  0  0  0  0
    8.1466    7.4273   25.0086 H   0  0  0  0  0  0  0  0  0  0  0  0
    9.2983    6.4943   24.0584 H   0  0  0  0  0  0  0  0  0  0  0  0
    8.0408    6.8423   22.1241 H   0  0  0  0  0  0  0  0  0  0  0  0
    6.7947    7.5306   23.1600 H   0  0  0  0  0  0  0  0  0  0  0  0
   10.0166    8.8966   25.1084 H   0  0  0  0  0  0  0  0  0  0  0  0
   10.5909    8.3689   23.5198 H   0  0  0  0  0  0  0  0  0  0  0  0
    8.7771    8.8769   21.4075 H   0  0  0  0  0  0  0  0  0  0  0  0
    7.2337    9.5153   21.9819 H   0  0  0  0  0  0  0  0  0  0  0  0
   12.6074   14.5035   21.1431 H   0  0  0  0  0  0  0  0  0  0  0  0
   10.8504   14.8687   21.4054 H   0  0  0  0  0  0  0  0  0  0  0  0
   10.2726   12.4877   20.9063 H   0  0  0  0  0  0  0  0  0  0  0  0
   12.0269   12.1111   20.6417 H   0  0  0  0  0  0  0  0  0  0  0  0
   10.9059   10.5285   22.7800 H   0  0  0  0  0  0  0  0  0  0  0  0
    9.5593   11.1377   21.8003 H   0  0  0  0  0  0  0  0  0  0  0  0
   13.7988   10.9186   24.6563 H   0  0  0  0  0  0  0  0  0  0  0  0
   12.2373   11.7052   25.0545 H   0  0  0  0  0  0  0  0  0  0  0  0
   12.3281   10.5222   23.7098 H   0  0  0  0  0  0  0  0  0  0  0  0
  1  2  1  0  0  0  0
  1  3  2  0  0  0  0
  2  4  2  0  0  0  0
  3  6  1  0  0  0  0
  4  5  1  0  0  0  0
  4 15  1  0  0  0  0
  5  6  2  0  0  0  0
  5 18  1  0  0  0  0
  6 22  1  0  0  0  0
  7 16  1  0  0  0  0
  7 18  1  0  0  0  0
  7 19  2  0  0  0  0
  8  9  1  0  0  0  0
  8 10  1  0  0  0  0
  9 11  1  0  0  0  0
 10 15  1  0  0  0  0
 11 15  1  0  0  0  0
 12 13  1  0  0  0  0
 12 16  1  0  0  0  0
 13 16  1  0  0  0  0
 14 15  1  0  0  0  0
 14 18  1  0  0  0  0
 16 23  1  0  0  0  0
 17 23  1  0  0  0  0
 20 23  2  0  0  0  0
 21 23  2  0  0  0  0
  1 24  1  0  0  0  0
  2 25  1  0  0  0  0
  3 26  1  0  0  0  0
  8 27  1  0  0  0  0
  8 28  1  0  0  0  0
  9 29  1  0  0  0  0
  9 30  1  0  0  0  0
 10 31  1  0  0  0  0
 10 32  1  0  0  0  0
 11 33  1  0  0  0  0
 11 34  1  0  0  0  0
 12 35  1  0  0  0  0
 12 36  1  0  0  0  0
 13 37  1  0  0  0  0
 13 38  1  0  0  0  0
 14 39  1  0  0  0  0
 14 40  1  0  0  0  0
 17 41  1  0  0  0  0
 17 42  1  0  0  0  0
 17 43  1  0  0  0  0
M  END
> <Catalog ID>
Z1940267529

> <PlateID>
1041831-R-10

> <Well>
B10

> <MW (desalted)>
337.409

> <ClogP>
2.214

> <HBD>
0

> <TPSA>
54.450

> <RotBonds>
2

> <ROCS_ShapeQuery>
A71EV2A-x0451_0A_A71EV2A-x0310_0A_A71EV2A-x0416_0A_peptide

> <ROCS_TanimotoCombo>
0.520 

> <ROCS_ShapeTanimoto>
0.361 

> <ROCS_ColorTanimoto>
0.160 

> <ROCS_RefTversky>
0.316 

> <ROCS_RefColorTversky>
0.171 

> <ROCS_RefTverskyCombo>
0.487 

> <ROCS_FitTversky>
1.631 

> <ROCS_FitColorTversky>
0.711 

> <ROCS_FitTverskyCombo>
2.342 

> <ROCS_ColorScore>
-5.194

> <ROCS_Overlap>
2198.066

> <ROCS_Rank>
348                 

$$$$
untitled-dbase-215_297
  -OEChem-11132311063D

 49 53  0     1  0  0  0  0  0999 V2000
    4.4151   11.7643   27.4025 C   0  0  0  0  0  0  0  0  0  0  0  0
    4.9794   10.4929   27.2993 C   0  0  0  0  0  0  0  0  0  0  0  0
    4.9385   12.8222   26.6590 C   0  0  0  0  0  0  0  0  0  0  0  0
    6.0673   10.2794   26.4527 C   0  0  0  0  0  0  0  0  0  0  0  0
    6.0264   12.6087   25.8125 C   0  0  0  0  0  0  0  0  0  0  0  0
    6.5908   11.3373   25.7094 C   0  0  0  0  0  0  0  0  0  0  0  0
    7.7152   11.1161   24.8333 C   0  0  0  0  0  0  0  0  0  0  0  0
    9.5263   11.4536   23.6598 C   0  0  0  0  0  0  0  0  0  0  0  0
   11.2123   14.5991   22.6054 C   0  0  0  0  0  0  0  0  0  0  0  0
   10.7044   12.1636   23.1010 C   0  0  0  0  0  0  0  0  0  0  0  0
   13.7251   16.9796   18.7324 C   0  0  0  0  0  0  0  0  0  0  0  0
   13.6750   17.1735   20.2555 C   0  0  0  0  0  0  0  0  0  0  0  0
   14.0712   14.8795   19.7979 C   0  0  0  0  0  0  0  0  0  0  0  0
   11.9142   15.2491   18.8647 C   0  0  0  0  0  0  0  0  0  0  0  0
    8.7300   13.4235   24.9474 C   0  0  0  0  0  0  0  0  0  0  0  0
   10.1405   13.9674   24.7442 C   0  0  0  0  0  0  0  0  0  0  0  0
   13.4056   15.4845   18.5635 C   0  0  1  0  0  0  0  0  0  0  0  0
   13.2955   15.7719   20.7693 C   0  0  2  0  0  0  0  0  0  0  0  0
   11.8214   15.4975   20.3857 C   0  0  2  0  0  0  0  0  0  0  0  0
   11.2339   14.3192   21.1231 C   0  0  0  0  0  0  0  0  0  0  0  0
    8.0006    9.9942   24.2090 N   0  0  0  0  0  0  0  0  0  0  0  0
    9.1485   10.2067   23.4654 N   0  0  0  0  0  0  0  0  0  0  0  0
    8.6441   12.0488   24.5159 N   0  0  0  0  0  0  0  0  0  0  0  0
   10.6627   13.6040   23.4180 N   0  0  0  0  0  0  0  0  0  0  0  0
   11.6641   15.6672   23.0255 O   0  0  0  0  0  0  0  0  0  0  0  0
    3.5676   11.9304   28.0612 H   0  0  0  0  0  0  0  0  0  0  0  0
    4.5718    9.6694   27.8784 H   0  0  0  0  0  0  0  0  0  0  0  0
    4.4984   13.8120   26.7386 H   0  0  0  0  0  0  0  0  0  0  0  0
    6.4944    9.2819   26.3813 H   0  0  0  0  0  0  0  0  0  0  0  0
    6.4236   13.4438   25.2405 H   0  0  0  0  0  0  0  0  0  0  0  0
   11.6254   11.7634   23.5389 H   0  0  0  0  0  0  0  0  0  0  0  0
   10.7433   12.0042   22.0210 H   0  0  0  0  0  0  0  0  0  0  0  0
   13.0092   17.6232   18.2117 H   0  0  0  0  0  0  0  0  0  0  0  0
   14.7286   17.2095   18.3571 H   0  0  0  0  0  0  0  0  0  0  0  0
   14.6614   17.4704   20.6298 H   0  0  0  0  0  0  0  0  0  0  0  0
   12.9543   17.9427   20.5500 H   0  0  0  0  0  0  0  0  0  0  0  0
   13.8660   13.8117   19.9204 H   0  0  0  0  0  0  0  0  0  0  0  0
   15.1532   15.0470   19.8296 H   0  0  0  0  0  0  0  0  0  0  0  0
   11.2685   15.9323   18.3030 H   0  0  0  0  0  0  0  0  0  0  0  0
   11.6293   14.2230   18.6048 H   0  0  0  0  0  0  0  0  0  0  0  0
    8.4535   13.4777   26.0050 H   0  0  0  0  0  0  0  0  0  0  0  0
    8.0033   13.9911   24.3558 H   0  0  0  0  0  0  0  0  0  0  0  0
   10.1472   15.0520   24.8907 H   0  0  0  0  0  0  0  0  0  0  0  0
   10.8278   13.5342   25.4817 H   0  0  0  0  0  0  0  0  0  0  0  0
   13.7273   15.0737   17.6045 H   0  0  0  0  0  0  0  0  0  0  0  0
   13.5215   15.6233   21.8274 H   0  0  0  0  0  0  0  0  0  0  0  0
   11.1960   16.3747   20.5915 H   0  0  0  0  0  0  0  0  0  0  0  0
   11.8247   13.4184   20.9653 H   0  0  0  0  0  0  0  0  0  0  0  0
   10.2067   14.1333   20.8134 H   0  0  0  0  0  0  0  0  0  0  0  0
  1  2  2  0  0  0  0
  1  3  1  0  0  0  0
  2  4  1  0  0  0  0
  3  5  2  0  0  0  0
  4  6  2  0  0  0  0
  5  6  1  0  0  0  0
  6  7  1  0  0  0  0
  7 21  2  0  0  0  0
  7 23  1  0  0  0  0
  8 10  1  0  0  0  0
  8 22  2  0  0  0  0
  8 23  1  0  0  0  0
  9 20  1  0  0  0  0
  9 24  1  0  0  0  0
  9 25  2  0  0  0  0
 10 24  1  0  0  0  0
 11 12  1  0  0  0  0
 11 17  1  0  0  0  0
 12 18  1  0  0  0  0
 13 17  1  0  0  0  0
 13 18  1  0  0  0  0
 14 17  1  0  0  0  0
 14 19  1  0  0  0  0
 15 16  1  0  0  0  0
 15 23  1  0  0  0  0
 16 24  1  0  0  0  0
 18 19  1  0  0  0  0
 19 20  1  0  0  0  0
 21 22  1  0  0  0  0
  1 26  1  0  0  0  0
  2 27  1  0  0  0  0
  3 28  1  0  0  0  0
  4 29  1  0  0  0  0
  5 30  1  0  0  0  0
 10 31  1  0  0  0  0
 10 32  1  0  0  0  0
 11 33  1  0  0  0  0
 11 34  1  0  0  0  0
 12 35  1  0  0  0  0
 12 36  1  0  0  0  0
 13 37  1  0  0  0  0
 13 38  1  0  0  0  0
 14 39  1  0  0  0  0
 14 40  1  0  0  0  0
 15 41  1  0  0  0  0
 15 42  1  0  0  0  0
 16 43  1  0  0  0  0
 16 44  1  0  0  0  0
 17 45  1  0  0  0  0
 18 46  1  0  0  0  0
 19 47  1  0  0  0  0
 20 48  1  0  0  0  0
 20 49  1  0  0  0  0
M  END
> <Catalog ID>
Z1286738061

> <PlateID>
1041831-R-03

> <Well>
F06

> <MW (desalted)>
336.431

> <ClogP>
2.496

> <HBD>
0

> <TPSA>
51.020

> <RotBonds>
3

> <ROCS_ShapeQuery>
A71EV2A-x0451_0A_A71EV2A-x0310_0A_A71EV2A-x0416_0A_peptide

> <ROCS_TanimotoCombo>
0.520 

> <ROCS_ShapeTanimoto>
0.363 

> <ROCS_ColorTanimoto>
0.156 

> <ROCS_RefTversky>
0.323 

> <ROCS_RefColorTversky>
0.195 

> <ROCS_RefTverskyCombo>
0.518 

> <ROCS_FitTversky>
1.528 

> <ROCS_FitColorTversky>
0.441 

> <ROCS_FitTverskyCombo>
1.969 

> <ROCS_ColorScore>
-5.999

> <ROCS_Overlap>
2245.538

> <ROCS_Rank>
349                 

$$$$
untitled-dbase-193_675
  -OEChem-11132311063D

 42 45  0     0  0  0  0  0  0999 V2000
    6.3966   11.1663   25.9185 C   0  0  0  0  0  0  0  0  0  0  0  0
    6.8995   12.4701   25.9975 C   0  0  0  0  0  0  0  0  0  0  0  0
    6.9944   10.2284   25.0756 C   0  0  0  0  0  0  0  0  0  0  0  0
    8.0052   12.8546   25.2355 C   0  0  0  0  0  0  0  0  0  0  0  0
   12.3339   16.0787   20.7849 C   0  0  0  0  0  0  0  0  0  0  0  0
    8.0965   10.6032   24.3132 C   0  0  0  0  0  0  0  0  0  0  0  0
    8.5928   11.9142   24.3995 C   0  0  0  0  0  0  0  0  0  0  0  0
   12.0139   15.1727   19.7955 C   0  0  0  0  0  0  0  0  0  0  0  0
   14.0163   15.7309   19.0964 C   0  0  0  0  0  0  0  0  0  0  0  0
   10.4530   13.2291   23.3680 C   0  0  0  0  0  0  0  0  0  0  0  0
    9.2454    8.3654   23.5409 C   0  0  0  0  0  0  0  0  0  0  0  0
    8.3309    8.7846   22.4258 C   0  0  0  0  0  0  0  0  0  0  0  0
    9.9768   10.7737   22.8355 C   0  0  0  0  0  0  0  0  0  0  0  0
    8.9167    9.8222   23.3468 C   0  0  0  0  0  0  0  0  0  0  0  0
   15.2474   15.7864   18.2783 C   0  0  0  0  0  0  0  0  0  0  0  0
   10.7218   14.4011   19.6919 C   0  0  0  0  0  0  0  0  0  0  0  0
   11.0711   13.3970   21.9997 C   0  0  0  0  0  0  0  0  0  0  0  0
   10.1166   14.1332   21.0753 C   0  0  0  0  0  0  0  0  0  0  0  0
   12.9773   14.9723   18.8262 N   0  0  0  0  0  0  0  0  0  0  0  0
    9.7146   12.0635   23.5355 N   0  0  0  0  0  0  0  0  0  0  0  0
   10.6325   14.1003   24.2191 O   0  0  0  0  0  0  0  0  0  0  0  0
   13.9030   16.7101   20.5011 S   0  0  0  0  0  0  0  0  0  0  0  0
    5.5358   10.8832   26.5179 H   0  0  0  0  0  0  0  0  0  0  0  0
    6.4246   13.1901   26.6585 H   0  0  0  0  0  0  0  0  0  0  0  0
    6.5968    9.2197   25.0214 H   0  0  0  0  0  0  0  0  0  0  0  0
    8.3675   13.8714   25.3207 H   0  0  0  0  0  0  0  0  0  0  0  0
   11.7434   16.3914   21.6345 H   0  0  0  0  0  0  0  0  0  0  0  0
    8.8065    7.8350   24.3775 H   0  0  0  0  0  0  0  0  0  0  0  0
   10.2360    8.0182   23.2716 H   0  0  0  0  0  0  0  0  0  0  0  0
    8.7125    8.7167   21.4138 H   0  0  0  0  0  0  0  0  0  0  0  0
    7.2808    8.5343   22.5169 H   0  0  0  0  0  0  0  0  0  0  0  0
   10.9896   10.4411   23.0862 H   0  0  0  0  0  0  0  0  0  0  0  0
    9.8986   10.9406   21.7561 H   0  0  0  0  0  0  0  0  0  0  0  0
   15.1678   16.5597   17.4983 H   0  0  0  0  0  0  0  0  0  0  0  0
   16.1365   16.0130   18.8890 H   0  0  0  0  0  0  0  0  0  0  0  0
   15.4535   14.8246   17.7807 H   0  0  0  0  0  0  0  0  0  0  0  0
   10.8993   13.4495   19.1742 H   0  0  0  0  0  0  0  0  0  0  0  0
   10.0115   14.9593   19.0690 H   0  0  0  0  0  0  0  0  0  0  0  0
   11.9830   13.9765   22.1409 H   0  0  0  0  0  0  0  0  0  0  0  0
   11.3270   12.4090   21.6215 H   0  0  0  0  0  0  0  0  0  0  0  0
    9.1794   13.5716   20.9695 H   0  0  0  0  0  0  0  0  0  0  0  0
    9.8594   15.0889   21.5495 H   0  0  0  0  0  0  0  0  0  0  0  0
  1  2  2  0  0  0  0
  1  3  1  0  0  0  0
  2  4  1  0  0  0  0
  3  6  2  0  0  0  0
  4  7  2  0  0  0  0
  5  8  2  0  0  0  0
  5 22  1  0  0  0  0
  6  7  1  0  0  0  0
  6 14  1  0  0  0  0
  7 20  1  0  0  0  0
  8 16  1  0  0  0  0
  8 19  1  0  0  0  0
  9 15  1  0  0  0  0
  9 19  2  0  0  0  0
  9 22  1  0  0  0  0
 10 17  1  0  0  0  0
 10 20  1  0  0  0  0
 10 21  2  0  0  0  0
 11 12  1  0  0  0  0
 11 14  1  0  0  0  0
 12 14  1  0  0  0  0
 13 14  1  0  0  0  0
 13 20  1  0  0  0  0
 16 18  1  0  0  0  0
 17 18  1  0  0  0  0
  1 23  1  0  0  0  0
  2 24  1  0  0  0  0
  3 25  1  0  0  0  0
  4 26  1  0  0  0  0
  5 27  1  0  0  0  0
 11 28  1  0  0  0  0
 11 29  1  0  0  0  0
 12 30  1  0  0  0  0
 12 31  1  0  0  0  0
 13 32  1  0  0  0  0
 13 33  1  0  0  0  0
 15 34  1  0  0  0  0
 15 35  1  0  0  0  0
 15 36  1  0  0  0  0
 16 37  1  0  0  0  0
 16 38  1  0  0  0  0
 17 39  1  0  0  0  0
 17 40  1  0  0  0  0
 18 41  1  0  0  0  0
 18 42  1  0  0  0  0
M  END
> <Catalog ID>
Z1348379254

> <PlateID>
1041831-R-03

> <Well>
D04

> <MW (desalted)>
312.429

> <ClogP>
2.995

> <HBD>
0

> <TPSA>
33.200

> <RotBonds>
4

> <ROCS_ShapeQuery>
A71EV2A-x0451_0A_A71EV2A-x0310_0A_A71EV2A-x0416_0A_peptide

> <ROCS_TanimotoCombo>
0.520 

> <ROCS_ShapeTanimoto>
0.355 

> <ROCS_ColorTanimoto>
0.165 

> <ROCS_RefTversky>
0.311 

> <ROCS_RefColorTversky>
0.171 

> <ROCS_RefTverskyCombo>
0.482 

> <ROCS_FitTversky>
1.669 

> <ROCS_FitColorTversky>
0.818 

> <ROCS_FitTverskyCombo>
2.486 

> <ROCS_ColorScore>
-5.192

> <ROCS_Overlap>
2158.817

> <ROCS_Rank>
350                 

$$$$
untitled-dbase-1752_6680
  -OEChem-11132311063D

 52 55  0     1  0  0  0  0  0999 V2000
   10.6924    5.8515   21.9673 C   0  0  0  0  0  0  0  0  0  0  0  0
   11.6137    6.8366   22.3224 C   0  0  0  0  0  0  0  0  0  0  0  0
    9.3253    6.0947   22.1001 C   0  0  0  0  0  0  0  0  0  0  0  0
   11.1681    8.0650   22.8104 C   0  0  0  0  0  0  0  0  0  0  0  0
    8.8796    7.3231   22.5881 C   0  0  0  0  0  0  0  0  0  0  0  0
   10.0902   10.7313   23.2259 C   0  0  0  0  0  0  0  0  0  0  0  0
    7.5747   12.8518   25.0871 C   0  0  0  0  0  0  0  0  0  0  0  0
    8.4137   11.9323   24.4267 C   0  0  0  0  0  0  0  0  0  0  0  0
    9.8010    8.3083   22.9432 C   0  0  0  0  0  0  0  0  0  0  0  0
    9.6250   11.9484   23.7241 C   0  0  0  0  0  0  0  0  0  0  0  0
    9.3394    9.5819   23.4489 C   0  0  0  0  0  0  0  0  0  0  0  0
    7.7662   10.7160   24.5770 C   0  0  0  0  0  0  0  0  0  0  0  0
   10.3807   13.1936   23.5164 C   0  0  0  0  0  0  0  0  0  0  0  0
    8.9664   15.6912   20.6084 C   0  0  0  0  0  0  0  0  0  0  0  0
   11.8383   14.3682   21.9262 C   0  0  0  0  0  0  0  0  0  0  0  0
    9.7345   13.3700   21.0608 C   0  0  0  0  0  0  0  0  0  0  0  0
   12.1161   14.4386   20.4351 C   0  0  0  0  0  0  0  0  0  0  0  0
    9.7468   14.5330   20.0694 C   0  0  2  0  0  0  0  0  0  0  0  0
    6.1883    8.9778   26.6564 C   0  0  0  0  0  0  0  0  0  0  0  0
    4.9302    9.3798   24.4973 C   0  0  0  0  0  0  0  0  0  0  0  0
    5.6261   10.0276   25.6958 C   0  0  0  0  0  0  0  0  0  0  0  0
    6.4881   12.2767   25.6129 N   0  0  0  0  0  0  0  0  0  0  0  0
    8.1646    9.5156   24.1210 N   0  0  0  0  0  0  0  0  0  0  0  0
    6.6320   10.9793   25.2869 N   0  0  0  0  0  0  0  0  0  0  0  0
   10.6219   13.6114   22.2048 N   0  0  0  0  0  0  0  0  0  0  0  0
    9.6984   16.8497   20.7191 N   0  0  0  0  0  0  0  0  0  0  0  0
   10.7587   13.7861   24.5264 O   0  0  0  0  0  0  0  0  0  0  0  0
    7.7772   15.5970   20.9022 O   0  0  0  0  0  0  0  0  0  0  0  0
   11.0318   15.0502   19.7436 O   0  0  0  0  0  0  0  0  0  0  0  0
   11.0396    4.8957   21.5858 H   0  0  0  0  0  0  0  0  0  0  0  0
   12.6781    6.6480   22.2175 H   0  0  0  0  0  0  0  0  0  0  0  0
    8.6073    5.3286   21.8225 H   0  0  0  0  0  0  0  0  0  0  0  0
   11.8989    8.8230   23.0827 H   0  0  0  0  0  0  0  0  0  0  0  0
    7.8109    7.4985   22.6855 H   0  0  0  0  0  0  0  0  0  0  0  0
   11.0256   10.6888   22.6735 H   0  0  0  0  0  0  0  0  0  0  0  0
    7.7067   13.9176   25.2090 H   0  0  0  0  0  0  0  0  0  0  0  0
   12.6969   13.9395   22.4587 H   0  0  0  0  0  0  0  0  0  0  0  0
   11.6704   15.3785   22.3255 H   0  0  0  0  0  0  0  0  0  0  0  0
    8.7244   13.2311   21.4851 H   0  0  0  0  0  0  0  0  0  0  0  0
    9.9830   12.4302   20.5429 H   0  0  0  0  0  0  0  0  0  0  0  0
   13.0127   15.0441   20.2510 H   0  0  0  0  0  0  0  0  0  0  0  0
   12.3053   13.4406   20.0139 H   0  0  0  0  0  0  0  0  0  0  0  0
    9.2274   14.2296   19.1112 H   0  0  0  0  0  0  0  0  0  0  0  0
    6.9616    8.3633   26.1832 H   0  0  0  0  0  0  0  0  0  0  0  0
    5.3940    8.3067   27.0002 H   0  0  0  0  0  0  0  0  0  0  0  0
    6.6329    9.4533   27.5377 H   0  0  0  0  0  0  0  0  0  0  0  0
    5.6405    8.7949   23.9026 H   0  0  0  0  0  0  0  0  0  0  0  0
    4.4950   10.1450   23.8457 H   0  0  0  0  0  0  0  0  0  0  0  0
    4.1226    8.7082   24.8075 H   0  0  0  0  0  0  0  0  0  0  0  0
    4.8639   10.5947   26.2456 H   0  0  0  0  0  0  0  0  0  0  0  0
    9.2416   17.6821   21.0769 H   0  0  0  0  0  0  0  0  0  0  0  0
   10.6773   16.9058   20.4572 H   0  0  0  0  0  0  0  0  0  0  0  0
  1  2  2  0  0  0  0
  1  3  1  0  0  0  0
  2  4  1  0  0  0  0
  3  5  2  0  0  0  0
  4  9  2  0  0  0  0
  5  9  1  0  0  0  0
  6 10  1  0  0  0  0
  6 11  2  0  0  0  0
  7  8  1  0  0  0  0
  7 22  2  0  0  0  0
  8 10  2  0  0  0  0
  8 12  1  0  0  0  0
  9 11  1  0  0  0  0
 10 13  1  0  0  0  0
 11 23  1  0  0  0  0
 12 23  2  0  0  0  0
 12 24  1  0  0  0  0
 13 25  1  0  0  0  0
 13 27  2  0  0  0  0
 14 18  1  0  0  0  0
 14 26  1  0  0  0  0
 14 28  2  0  0  0  0
 15 17  1  0  0  0  0
 15 25  1  0  0  0  0
 16 18  1  0  0  0  0
 16 25  1  0  0  0  0
 17 29  1  0  0  0  0
 18 29  1  0  0  0  0
 19 21  1  0  0  0  0
 20 21  1  0  0  0  0
 21 24  1  0  0  0  0
 22 24  1  0  0  0  0
  1 30  1  0  0  0  0
  2 31  1  0  0  0  0
  3 32  1  0  0  0  0
  4 33  1  0  0  0  0
  5 34  1  0  0  0  0
  6 35  1  0  0  0  0
  7 36  1  0  0  0  0
 15 37  1  0  0  0  0
 15 38  1  0  0  0  0
 16 39  1  0  0  0  0
 16 40  1  0  0  0  0
 17 41  1  0  0  0  0
 17 42  1  0  0  0  0
 18 43  1  0  0  0  0
 19 44  1  0  0  0  0
 19 45  1  0  0  0  0
 19 46  1  0  0  0  0
 20 47  1  0  0  0  0
 20 48  1  0  0  0  0
 20 49  1  0  0  0  0
 21 50  1  0  0  0  0
 26 51  1  0  0  0  0
 26 52  1  0  0  0  0
M  END
> <Catalog ID>
Z961019752

> <PlateID>
1041831-R-22

> <Well>
H03

> <MW (desalted)>
393.439

> <ClogP>
1.392

> <HBD>
1

> <TPSA>
103.340

> <RotBonds>
4

> <ROCS_ShapeQuery>
A71EV2A-x0451_0A_A71EV2A-x0310_0A_A71EV2A-x0416_0A_peptide

> <ROCS_TanimotoCombo>
0.520 

> <ROCS_ShapeTanimoto>
0.356 

> <ROCS_ColorTanimoto>
0.163 

> <ROCS_RefTversky>
0.325 

> <ROCS_RefColorTversky>
0.196 

> <ROCS_RefTverskyCombo>
0.520 

> <ROCS_FitTversky>
1.378 

> <ROCS_FitColorTversky>
0.498 

> <ROCS_FitTverskyCombo>
1.876 

> <ROCS_ColorScore>
-6.000

> <ROCS_Overlap>
2260.581

> <ROCS_Rank>
351                 

$$$$
untitled-dbase-1555_1017
  -OEChem-11132311063D

 47 50  0     1  0  0  0  0  0999 V2000
    6.9478   12.8913   25.4611 C   0  0  0  0  0  0  0  0  0  0  0  0
    6.5887   11.7787   26.2195 C   0  0  0  0  0  0  0  0  0  0  0  0
   14.3088   16.7832   19.4806 C   0  0  0  0  0  0  0  0  0  0  0  0
    7.8607   12.7751   24.4067 C   0  0  0  0  0  0  0  0  0  0  0  0
    7.1284   10.5178   25.9496 C   0  0  0  0  0  0  0  0  0  0  0  0
   13.9647   16.2534   20.7577 C   0  0  0  0  0  0  0  0  0  0  0  0
    9.5126    9.6896   23.3523 C   0  0  0  0  0  0  0  0  0  0  0  0
   13.2889   16.6345   18.5667 C   0  0  0  0  0  0  0  0  0  0  0  0
    8.4181   11.5140   24.1160 C   0  0  0  0  0  0  0  0  0  0  0  0
    9.3474   11.0401   23.1481 C   0  0  0  0  0  0  0  0  0  0  0  0
    8.0398   10.4167   24.8926 C   0  0  0  0  0  0  0  0  0  0  0  0
   12.6946   15.7199   20.7713 C   0  0  0  0  0  0  0  0  0  0  0  0
   11.9661   15.0771   21.8952 C   0  0  0  0  0  0  0  0  0  0  0  0
   11.9169   12.4744   23.5903 C   0  0  0  0  0  0  0  0  0  0  0  0
   12.6716   13.5098   27.0370 C   0  0  0  0  0  0  0  0  0  0  0  0
   11.1915   13.8600   26.9475 C   0  0  0  0  0  0  0  0  0  0  0  0
   12.8560   12.5264   25.8915 C   0  0  0  0  0  0  0  0  0  0  0  0
   10.9429   13.9104   25.4466 C   0  0  0  0  0  0  0  0  0  0  0  0
   10.0358   11.8613   22.0856 C   0  0  0  0  0  0  0  0  0  0  0  0
   10.8411   13.0094   22.6795 C   0  0  2  0  0  0  0  0  0  0  0  0
    8.7196    9.3227   24.4064 N   0  0  0  0  0  0  0  0  0  0  0  0
   11.8902   12.9504   24.8885 N   0  0  0  0  0  0  0  0  0  0  0  0
   11.5728   13.7568   21.6979 N   0  0  0  0  0  0  0  0  0  0  0  0
   11.7330   15.7286   22.9099 O   0  0  0  0  0  0  0  0  0  0  0  0
   12.7439   11.6636   23.1702 O   0  0  0  0  0  0  0  0  0  0  0  0
   11.9231   15.8588   19.2488 S   0  0  0  0  0  0  0  0  0  0  0  0
    6.5142   13.8611   25.6898 H   0  0  0  0  0  0  0  0  0  0  0  0
    5.8778   11.8918   27.0339 H   0  0  0  0  0  0  0  0  0  0  0  0
   15.2568   17.2487   19.2441 H   0  0  0  0  0  0  0  0  0  0  0  0
    8.1297   13.6517   23.8243 H   0  0  0  0  0  0  0  0  0  0  0  0
    6.8491    9.6526   26.5412 H   0  0  0  0  0  0  0  0  0  0  0  0
   14.6197   16.2659   21.6198 H   0  0  0  0  0  0  0  0  0  0  0  0
   10.1214    8.9559   22.8420 H   0  0  0  0  0  0  0  0  0  0  0  0
   13.2811   16.9435   17.5310 H   0  0  0  0  0  0  0  0  0  0  0  0
   13.2826   14.4049   26.8717 H   0  0  0  0  0  0  0  0  0  0  0  0
   12.9396   13.0794   28.0059 H   0  0  0  0  0  0  0  0  0  0  0  0
   10.5876   13.0678   27.4057 H   0  0  0  0  0  0  0  0  0  0  0  0
   10.9570   14.8064   27.4424 H   0  0  0  0  0  0  0  0  0  0  0  0
   13.8705   12.5274   25.4822 H   0  0  0  0  0  0  0  0  0  0  0  0
   12.5971   11.5050   26.1918 H   0  0  0  0  0  0  0  0  0  0  0  0
    9.9146   13.6510   25.1809 H   0  0  0  0  0  0  0  0  0  0  0  0
   11.1830   14.8963   25.0341 H   0  0  0  0  0  0  0  0  0  0  0  0
   10.6905   11.1991   21.5030 H   0  0  0  0  0  0  0  0  0  0  0  0
    9.2916   12.2354   21.3692 H   0  0  0  0  0  0  0  0  0  0  0  0
   10.2276   13.7045   23.2535 H   0  0  0  0  0  0  0  0  0  0  0  0
    8.6438    8.3847   24.7751 H   0  0  0  0  0  0  0  0  0  0  0  0
   11.7518   13.3085   20.7996 H   0  0  0  0  0  0  0  0  0  0  0  0
  1  2  2  0  0  0  0
  1  4  1  0  0  0  0
  2  5  1  0  0  0  0
  3  6  1  0  0  0  0
  3  8  2  0  0  0  0
  4  9  2  0  0  0  0
  5 11  2  0  0  0  0
  6 12  2  0  0  0  0
  7 10  2  0  0  0  0
  7 21  1  0  0  0  0
  8 26  1  0  0  0  0
  9 10  1  0  0  0  0
  9 11  1  0  0  0  0
 10 19  1  0  0  0  0
 11 21  1  0  0  0  0
 12 13  1  0  0  0  0
 12 26  1  0  0  0  0
 13 23  1  0  0  0  0
 13 24  2  0  0  0  0
 14 20  1  0  0  0  0
 14 22  1  0  0  0  0
 14 25  2  0  0  0  0
 15 16  1  0  0  0  0
 15 17  1  0  0  0  0
 16 18  1  0  0  0  0
 17 22  1  0  0  0  0
 18 22  1  0  0  0  0
 19 20  1  0  0  0  0
 20 23  1  0  0  0  0
  1 27  1  0  0  0  0
  2 28  1  0  0  0  0
  3 29  1  0  0  0  0
  4 30  1  0  0  0  0
  5 31  1  0  0  0  0
  6 32  1  0  0  0  0
  7 33  1  0  0  0  0
  8 34  1  0  0  0  0
 15 35  1  0  0  0  0
 15 36  1  0  0  0  0
 16 37  1  0  0  0  0
 16 38  1  0  0  0  0
 17 39  1  0  0  0  0
 17 40  1  0  0  0  0
 18 41  1  0  0  0  0
 18 42  1  0  0  0  0
 19 43  1  0  0  0  0
 19 44  1  0  0  0  0
 20 45  1  0  0  0  0
 21 46  1  0  0  0  0
 23 47  1  0  0  0  0
M  END
> <Catalog ID>
Z31480988

> <PlateID>
1041831-R-20

> <Well>
D06

> <MW (desalted)>
367.465

> <ClogP>
2.346

> <HBD>
2

> <TPSA>
65.200

> <RotBonds>
5

> <ROCS_ShapeQuery>
A71EV2A-x0451_0A_A71EV2A-x0310_0A_A71EV2A-x0416_0A_peptide

> <ROCS_TanimotoCombo>
0.519 

> <ROCS_ShapeTanimoto>
0.369 

> <ROCS_ColorTanimoto>
0.150 

> <ROCS_RefTversky>
0.327 

> <ROCS_RefColorTversky>
0.170 

> <ROCS_RefTverskyCombo>
0.497 

> <ROCS_FitTversky>
1.537 

> <ROCS_FitColorTversky>
0.564 

> <ROCS_FitTverskyCombo>
2.102 

> <ROCS_ColorScore>
-5.193

> <ROCS_Overlap>
2273.633

> <ROCS_Rank>
352                 

$$$$
untitled-dbase-1542_508
  -OEChem-11132311063D

 49 51  0     1  0  0  0  0  0999 V2000
    6.2343   12.2340   25.4462 C   0  0  0  0  0  0  0  0  0  0  0  0
    5.9429   10.8759   25.3356 C   0  0  0  0  0  0  0  0  0  0  0  0
    7.4701   12.7381   25.0248 C   0  0  0  0  0  0  0  0  0  0  0  0
    6.8739    9.9801   24.8020 C   0  0  0  0  0  0  0  0  0  0  0  0
   10.1891   10.7706   23.5770 C   0  0  0  0  0  0  0  0  0  0  0  0
    8.4246   11.8541   24.4837 C   0  0  0  0  0  0  0  0  0  0  0  0
    9.7423   12.0111   23.9700 C   0  0  0  0  0  0  0  0  0  0  0  0
    8.1051   10.4982   24.3850 C   0  0  0  0  0  0  0  0  0  0  0  0
   11.2889   15.0663   22.2993 C   0  0  0  0  0  0  0  0  0  0  0  0
   13.3417   13.0249   22.7684 C   0  0  0  0  0  0  0  0  0  0  0  0
   12.6886   14.4935   18.9874 C   0  0  0  0  0  0  0  0  0  0  0  0
   13.9480   16.2944   20.2212 C   0  0  0  0  0  0  0  0  0  0  0  0
   11.4300   14.8709   19.7681 C   0  0  0  0  0  0  0  0  0  0  0  0
   12.6653   16.6381   20.9759 C   0  0  0  0  0  0  0  0  0  0  0  0
   13.6750   15.6638   18.8464 C   0  0  0  0  0  0  0  0  0  0  0  0
   14.4732   12.2465   22.1836 C   0  0  0  0  0  0  0  0  0  0  0  0
   13.1848   16.7008   17.8330 C   0  0  0  0  0  0  0  0  0  0  0  0
   10.5206   13.3001   23.8707 C   0  0  0  0  0  0  0  0  0  0  0  0
   10.9461   13.6047   22.4405 C   0  0  2  0  0  0  0  0  0  0  0  0
    9.1946    9.8646   23.8310 N   0  0  0  0  0  0  0  0  0  0  0  0
   11.7768   15.4776   21.0588 N   0  0  0  0  0  0  0  0  0  0  0  0
   12.1554   12.9371   22.0536 N   0  0  0  0  0  0  0  0  0  0  0  0
   11.1295   15.8181   23.2645 O   0  0  0  0  0  0  0  0  0  0  0  0
   13.5175   13.6650   23.7985 O   0  0  0  0  0  0  0  0  0  0  0  0
    5.4940   12.9111   25.8639 H   0  0  0  0  0  0  0  0  0  0  0  0
    4.9768   10.5059   25.6691 H   0  0  0  0  0  0  0  0  0  0  0  0
    7.6817   13.7997   25.1169 H   0  0  0  0  0  0  0  0  0  0  0  0
    6.6466    8.9228   24.7173 H   0  0  0  0  0  0  0  0  0  0  0  0
   11.1242   10.4506   23.1382 H   0  0  0  0  0  0  0  0  0  0  0  0
   13.1864   13.6488   19.4923 H   0  0  0  0  0  0  0  0  0  0  0  0
   12.3974   14.1231   17.9890 H   0  0  0  0  0  0  0  0  0  0  0  0
   14.5545   17.2092   20.1025 H   0  0  0  0  0  0  0  0  0  0  0  0
   14.5536   15.6046   20.8326 H   0  0  0  0  0  0  0  0  0  0  0  0
   10.8111   15.5315   19.1575 H   0  0  0  0  0  0  0  0  0  0  0  0
   10.8320   13.9765   19.9819 H   0  0  0  0  0  0  0  0  0  0  0  0
   12.8955   16.9484   22.0026 H   0  0  0  0  0  0  0  0  0  0  0  0
   12.1642   17.4797   20.4863 H   0  0  0  0  0  0  0  0  0  0  0  0
   14.6339   15.2537   18.4663 H   0  0  0  0  0  0  0  0  0  0  0  0
   15.0646   12.8384   21.4667 H   0  0  0  0  0  0  0  0  0  0  0  0
   15.1926   11.9115   22.9480 H   0  0  0  0  0  0  0  0  0  0  0  0
   14.1850   11.3339   21.6376 H   0  0  0  0  0  0  0  0  0  0  0  0
   12.2420   17.1296   18.1694 H   0  0  0  0  0  0  0  0  0  0  0  0
   13.0352   16.2282   16.8634 H   0  0  0  0  0  0  0  0  0  0  0  0
   13.9219   17.4961   17.7318 H   0  0  0  0  0  0  0  0  0  0  0  0
    9.8973   14.1147   24.2636 H   0  0  0  0  0  0  0  0  0  0  0  0
   11.3929   13.2563   24.5371 H   0  0  0  0  0  0  0  0  0  0  0  0
   10.1733   13.3671   21.7089 H   0  0  0  0  0  0  0  0  0  0  0  0
    9.2512    8.8737   23.6399 H   0  0  0  0  0  0  0  0  0  0  0  0
   12.1427   12.3670   21.2072 H   0  0  0  0  0  0  0  0  0  0  0  0
  1  2  2  0  0  0  0
  1  3  1  0  0  0  0
  2  4  1  0  0  0  0
  3  6  2  0  0  0  0
  4  8  2  0  0  0  0
  5  7  2  0  0  0  0
  5 20  1  0  0  0  0
  6  7  1  0  0  0  0
  6  8  1  0  0  0  0
  7 18  1  0  0  0  0
  8 20  1  0  0  0  0
  9 19  1  0  0  0  0
  9 21  1  0  0  0  0
  9 23  2  0  0  0  0
 10 16  1  0  0  0  0
 10 22  1  0  0  0  0
 10 24  2  0  0  0  0
 11 13  1  0  0  0  0
 11 15  1  0  0  0  0
 12 14  1  0  0  0  0
 12 15  1  0  0  0  0
 13 21  1  0  0  0  0
 14 21  1  0  0  0  0
 15 17  1  0  0  0  0
 18 19  1  0  0  0  0
 19 22  1  1  0  0  0
  1 25  1  0  0  0  0
  2 26  1  0  0  0  0
  3 27  1  0  0  0  0
  4 28  1  0  0  0  0
  5 29  1  0  0  0  0
 11 30  1  0  0  0  0
 11 31  1  0  0  0  0
 12 32  1  0  0  0  0
 12 33  1  0  0  0  0
 13 34  1  0  0  0  0
 13 35  1  0  0  0  0
 14 36  1  0  0  0  0
 14 37  1  0  0  0  0
 15 38  1  0  0  0  0
 16 39  1  0  0  0  0
 16 40  1  0  0  0  0
 16 41  1  0  0  0  0
 17 42  1  0  0  0  0
 17 43  1  0  0  0  0
 17 44  1  0  0  0  0
 18 45  1  0  0  0  0
 18 46  1  0  0  0  0
 19 47  1  0  0  0  0
 20 48  1  0  0  0  0
 22 49  1  0  0  0  0
M  END
> <Catalog ID>
Z57045672

> <PlateID>
1041831-R-20

> <Well>
C03

> <MW (desalted)>
327.421

> <ClogP>
1.935

> <HBD>
2

> <TPSA>
65.200

> <RotBonds>
4

> <ROCS_ShapeQuery>
A71EV2A-x0451_0A_A71EV2A-x0310_0A_A71EV2A-x0416_0A_peptide

> <ROCS_TanimotoCombo>
0.519 

> <ROCS_ShapeTanimoto>
0.355 

> <ROCS_ColorTanimoto>
0.164 

> <ROCS_RefTversky>
0.314 

> <ROCS_RefColorTversky>
0.179 

> <ROCS_RefTverskyCombo>
0.493 

> <ROCS_FitTversky>
1.582 

> <ROCS_FitColorTversky>
0.662 

> <ROCS_FitTverskyCombo>
2.244 

> <ROCS_ColorScore>
-5.460

> <ROCS_Overlap>
2183.551

> <ROCS_Rank>
353                 

$$$$
untitled-dbase-1163_7979
  -OEChem-11132311063D

 40 41  0     0  0  0  0  0  0999 V2000
   14.2778   15.9448   18.1973 C   0  0  0  0  0  0  0  0  0  0  0  0
   14.7006   16.4705   19.4131 C   0  0  0  0  0  0  0  0  0  0  0  0
    9.8408   10.0648   23.4252 C   0  0  0  0  0  0  0  0  0  0  0  0
   10.6470   11.1819   23.2071 C   0  0  0  0  0  0  0  0  0  0  0  0
   13.1131   15.1875   18.1411 C   0  0  0  0  0  0  0  0  0  0  0  0
    8.9482   12.5979   24.1798 C   0  0  0  0  0  0  0  0  0  0  0  0
   13.9294   16.2120   20.5348 C   0  0  0  0  0  0  0  0  0  0  0  0
    8.1420   11.4808   24.3979 C   0  0  0  0  0  0  0  0  0  0  0  0
    8.5882   10.2142   24.0206 C   0  0  0  0  0  0  0  0  0  0  0  0
   10.2008   12.4485   23.5844 C   0  0  0  0  0  0  0  0  0  0  0  0
   12.4130   14.9863   19.3197 C   0  0  0  0  0  0  0  0  0  0  0  0
    6.8377   11.6585   25.0211 C   0  0  0  0  0  0  0  0  0  0  0  0
    8.3528    7.8573   23.8079 C   0  0  0  0  0  0  0  0  0  0  0  0
   11.1446   14.1692   19.2961 C   0  0  0  0  0  0  0  0  0  0  0  0
   10.8868   13.4317   20.6078 C   0  0  0  0  0  0  0  0  0  0  0  0
   12.7924   15.4809   20.5193 N   0  0  0  0  0  0  0  0  0  0  0  0
    6.4599   12.9507   25.3706 N   0  0  0  0  0  0  0  0  0  0  0  0
   10.7325   14.3463   21.7482 N   0  0  0  0  0  0  0  0  0  0  0  0
    6.0933   10.6902   25.2495 O   0  0  0  0  0  0  0  0  0  0  0  0
   10.8422   14.8847   24.2651 O   0  0  0  0  0  0  0  0  0  0  0  0
   12.5931   13.3913   23.2511 O   0  0  0  0  0  0  0  0  0  0  0  0
    7.8153    9.1104   24.2252 O   0  0  0  0  0  0  0  0  0  0  0  0
   11.2106   13.8465   23.3111 S   0  0  0  0  0  0  0  0  0  0  0  0
   14.8550   16.1251   17.2954 H   0  0  0  0  0  0  0  0  0  0  0  0
   15.6053   17.0638   19.4806 H   0  0  0  0  0  0  0  0  0  0  0  0
   10.1946    9.0811   23.1288 H   0  0  0  0  0  0  0  0  0  0  0  0
   11.6210   11.0541   22.7424 H   0  0  0  0  0  0  0  0  0  0  0  0
   12.7724   14.7718   17.1989 H   0  0  0  0  0  0  0  0  0  0  0  0
    8.6013   13.5859   24.4736 H   0  0  0  0  0  0  0  0  0  0  0  0
   14.2159   16.5994   21.5069 H   0  0  0  0  0  0  0  0  0  0  0  0
    7.6370    7.0615   24.0281 H   0  0  0  0  0  0  0  0  0  0  0  0
    9.2938    7.6708   24.3315 H   0  0  0  0  0  0  0  0  0  0  0  0
    8.5374    7.8905   22.7315 H   0  0  0  0  0  0  0  0  0  0  0  0
   11.2150   13.4407   18.4784 H   0  0  0  0  0  0  0  0  0  0  0  0
   10.2915   14.8152   19.0521 H   0  0  0  0  0  0  0  0  0  0  0  0
    9.9580   12.8570   20.5362 H   0  0  0  0  0  0  0  0  0  0  0  0
   11.6996   12.7385   20.8480 H   0  0  0  0  0  0  0  0  0  0  0  0
    7.0934   13.7206   25.1845 H   0  0  0  0  0  0  0  0  0  0  0  0
    5.5637   13.1393   25.8078 H   0  0  0  0  0  0  0  0  0  0  0  0
    9.9948   15.0559   21.6602 H   0  0  0  0  0  0  0  0  0  0  0  0
  1  2  2  0  0  0  0
  1  5  1  0  0  0  0
  2  7  1  0  0  0  0
  3  4  1  0  0  0  0
  3  9  2  0  0  0  0
  4 10  2  0  0  0  0
  5 11  2  0  0  0  0
  6  8  2  0  0  0  0
  6 10  1  0  0  0  0
  7 16  2  0  0  0  0
  8  9  1  0  0  0  0
  8 12  1  0  0  0  0
  9 22  1  0  0  0  0
 10 23  1  0  0  0  0
 11 14  1  0  0  0  0
 11 16  1  0  0  0  0
 12 17  1  0  0  0  0
 12 19  2  0  0  0  0
 13 22  1  0  0  0  0
 14 15  1  0  0  0  0
 15 18  1  0  0  0  0
 18 23  1  0  0  0  0
 20 23  2  0  0  0  0
 21 23  2  0  0  0  0
  1 24  1  0  0  0  0
  2 25  1  0  0  0  0
  3 26  1  0  0  0  0
  4 27  1  0  0  0  0
  5 28  1  0  0  0  0
  6 29  1  0  0  0  0
  7 30  1  0  0  0  0
 13 31  1  0  0  0  0
 13 32  1  0  0  0  0
 13 33  1  0  0  0  0
 14 34  1  0  0  0  0
 14 35  1  0  0  0  0
 15 36  1  0  0  0  0
 15 37  1  0  0  0  0
 17 38  1  0  0  0  0
 17 39  1  0  0  0  0
 18 40  1  0  0  0  0
M  END
> <Catalog ID>
Z369176840

> <PlateID>
1041831-R-15

> <Well>
E04

> <MW (desalted)>
335.378

> <ClogP>
0.583

> <HBD>
2

> <TPSA>
111.380

> <RotBonds>
6

> <ROCS_ShapeQuery>
A71EV2A-x0451_0A_A71EV2A-x0310_0A_A71EV2A-x0416_0A_peptide

> <ROCS_TanimotoCombo>
0.519 

> <ROCS_ShapeTanimoto>
0.359 

> <ROCS_ColorTanimoto>
0.160 

> <ROCS_RefTversky>
0.314 

> <ROCS_RefColorTversky>
0.184 

> <ROCS_RefTverskyCombo>
0.498 

> <ROCS_FitTversky>
1.659 

> <ROCS_FitColorTversky>
0.554 

> <ROCS_FitTverskyCombo>
2.213 

> <ROCS_ColorScore>
-5.617

> <ROCS_Overlap>
2184.258

> <ROCS_Rank>
354                 

$$$$
untitled-dbase-1270_2423
  -OEChem-11132311063D

 50 53  0     1  0  0  0  0  0999 V2000
    6.9051   12.5699   25.9607 C   0  0  0  0  0  0  0  0  0  0  0  0
    6.4045   11.3050   26.2625 C   0  0  0  0  0  0  0  0  0  0  0  0
    7.9652   12.7247   25.0601 C   0  0  0  0  0  0  0  0  0  0  0  0
   14.8856   16.0459   20.1431 C   0  0  0  0  0  0  0  0  0  0  0  0
    6.9452   10.1571   25.6761 C   0  0  0  0  0  0  0  0  0  0  0  0
   14.1783   15.2901   21.0805 C   0  0  0  0  0  0  0  0  0  0  0  0
   12.1214   15.5496   19.8061 C   0  0  0  0  0  0  0  0  0  0  0  0
    9.6758   10.0153   23.3011 C   0  0  0  0  0  0  0  0  0  0  0  0
    8.5265   11.5819   24.4564 C   0  0  0  0  0  0  0  0  0  0  0  0
   14.2012   16.5328   19.0421 C   0  0  0  0  0  0  0  0  0  0  0  0
   12.8331   16.2874   18.8756 C   0  0  0  0  0  0  0  0  0  0  0  0
    9.5800   11.3696   23.5237 C   0  0  0  0  0  0  0  0  0  0  0  0
    8.0047   10.3270   24.7777 C   0  0  0  0  0  0  0  0  0  0  0  0
   12.8062   15.0435   20.9132 C   0  0  0  0  0  0  0  0  0  0  0  0
   10.3082   15.0636   24.3817 C   0  0  0  0  0  0  0  0  0  0  0  0
   12.6166   13.7238   23.0502 C   0  0  0  0  0  0  0  0  0  0  0  0
   14.7275   17.3897   17.9346 C   0  0  0  0  0  0  0  0  0  0  0  0
   12.3176   16.9586   17.6420 C   0  0  0  0  0  0  0  0  0  0  0  0
   13.6245   17.2216   16.8787 C   0  0  0  0  0  0  0  0  0  0  0  0
    9.8044   15.8849   25.5218 C   0  0  0  0  0  0  0  0  0  0  0  0
   10.4446   12.4304   22.8877 C   0  0  0  0  0  0  0  0  0  0  0  0
   11.5314   12.9719   23.8240 C   0  0  2  0  0  0  0  0  0  0  0  0
    8.7213    9.3948   24.0617 N   0  0  0  0  0  0  0  0  0  0  0  0
   12.1188   14.2918   21.8673 N   0  0  0  0  0  0  0  0  0  0  0  0
   10.9673   13.9093   24.7645 N   0  0  0  0  0  0  0  0  0  0  0  0
   10.1155   15.4427   23.2324 O   0  0  0  0  0  0  0  0  0  0  0  0
   13.7601   13.8293   23.4858 O   0  0  0  0  0  0  0  0  0  0  0  0
    6.4677   13.4476   26.4290 H   0  0  0  0  0  0  0  0  0  0  0  0
    5.5807   11.2079   26.9649 H   0  0  0  0  0  0  0  0  0  0  0  0
    8.3435   13.7177   24.8345 H   0  0  0  0  0  0  0  0  0  0  0  0
   15.9431   16.2450   20.2804 H   0  0  0  0  0  0  0  0  0  0  0  0
    6.5557    9.1727   25.9125 H   0  0  0  0  0  0  0  0  0  0  0  0
   14.7029   14.8990   21.9494 H   0  0  0  0  0  0  0  0  0  0  0  0
   11.0581   15.3747   19.6747 H   0  0  0  0  0  0  0  0  0  0  0  0
   10.3356    9.4369   22.6692 H   0  0  0  0  0  0  0  0  0  0  0  0
   14.8027   18.4303   18.2660 H   0  0  0  0  0  0  0  0  0  0  0  0
   15.6946   17.0433   17.5596 H   0  0  0  0  0  0  0  0  0  0  0  0
   11.6418   16.3185   17.0682 H   0  0  0  0  0  0  0  0  0  0  0  0
   11.8165   17.8961   17.9037 H   0  0  0  0  0  0  0  0  0  0  0  0
   13.5515   18.0846   16.2095 H   0  0  0  0  0  0  0  0  0  0  0  0
   13.8570   16.3477   16.2539 H   0  0  0  0  0  0  0  0  0  0  0  0
   10.5435   16.6266   25.8648 H   0  0  0  0  0  0  0  0  0  0  0  0
    8.9083   16.4684   25.2560 H   0  0  0  0  0  0  0  0  0  0  0  0
    9.5234   15.3174   26.4235 H   0  0  0  0  0  0  0  0  0  0  0  0
    9.7927   13.2505   22.5569 H   0  0  0  0  0  0  0  0  0  0  0  0
   10.8994   12.0341   21.9697 H   0  0  0  0  0  0  0  0  0  0  0  0
   11.9806   12.1716   24.4228 H   0  0  0  0  0  0  0  0  0  0  0  0
    8.5649    8.3968   24.0936 H   0  0  0  0  0  0  0  0  0  0  0  0
   11.1191   14.1458   21.6899 H   0  0  0  0  0  0  0  0  0  0  0  0
   11.0587   13.7117   25.7577 H   0  0  0  0  0  0  0  0  0  0  0  0
  1  2  2  0  0  0  0
  1  3  1  0  0  0  0
  2  5  1  0  0  0  0
  3  9  2  0  0  0  0
  4  6  1  0  0  0  0
  4 10  2  0  0  0  0
  5 13  2  0  0  0  0
  6 14  2  0  0  0  0
  7 11  2  0  0  0  0
  7 14  1  0  0  0  0
  8 12  2  0  0  0  0
  8 23  1  0  0  0  0
  9 12  1  0  0  0  0
  9 13  1  0  0  0  0
 10 11  1  0  0  0  0
 10 17  1  0  0  0  0
 11 18  1  0  0  0  0
 12 21  1  0  0  0  0
 13 23  1  0  0  0  0
 14 24  1  0  0  0  0
 15 20  1  0  0  0  0
 15 25  1  0  0  0  0
 15 26  2  0  0  0  0
 16 22  1  0  0  0  0
 16 24  1  0  0  0  0
 16 27  2  0  0  0  0
 17 19  1  0  0  0  0
 18 19  1  0  0  0  0
 21 22  1  0  0  0  0
 22 25  1  0  0  0  0
  1 28  1  0  0  0  0
  2 29  1  0  0  0  0
  3 30  1  0  0  0  0
  4 31  1  0  0  0  0
  5 32  1  0  0  0  0
  6 33  1  0  0  0  0
  7 34  1  0  0  0  0
  8 35  1  0  0  0  0
 17 36  1  0  0  0  0
 17 37  1  0  0  0  0
 18 38  1  0  0  0  0
 18 39  1  0  0  0  0
 19 40  1  0  0  0  0
 19 41  1  0  0  0  0
 20 42  1  0  0  0  0
 20 43  1  0  0  0  0
 20 44  1  0  0  0  0
 21 45  1  0  0  0  0
 21 46  1  0  0  0  0
 22 47  1  0  0  0  0
 23 48  1  0  0  0  0
 24 49  1  0  0  0  0
 25 50  1  0  0  0  0
M  END
> <Catalog ID>
Z33446995

> <PlateID>
1041831-R-16

> <Well>
G11

> <MW (desalted)>
361.437

> <ClogP>
2.940

> <HBD>
3

> <TPSA>
73.990

> <RotBonds>
5

> <ROCS_ShapeQuery>
A71EV2A-x0451_0A_A71EV2A-x0310_0A_A71EV2A-x0416_0A_peptide

> <ROCS_TanimotoCombo>
0.519 

> <ROCS_ShapeTanimoto>
0.356 

> <ROCS_ColorTanimoto>
0.163 

> <ROCS_RefTversky>
0.321 

> <ROCS_RefColorTversky>
0.187 

> <ROCS_RefTverskyCombo>
0.507 

> <ROCS_FitTversky>
1.453 

> <ROCS_FitColorTversky>
0.561 

> <ROCS_FitTverskyCombo>
2.015 

> <ROCS_ColorScore>
-5.709

> <ROCS_Overlap>
2231.637

> <ROCS_Rank>
355                 

$$$$
untitled-dbase-1377_15891
  -OEChem-11132311063D

 53 56  0     0  0  0  0  0  0999 V2000
    7.5133    9.9655   24.6395 C   0  0  0  0  0  0  0  0  0  0  0  0
    6.7862   10.8233   25.4647 C   0  0  0  0  0  0  0  0  0  0  0  0
    8.5276   10.4725   23.8272 C   0  0  0  0  0  0  0  0  0  0  0  0
    4.9247   11.2415   29.1378 C   0  0  0  0  0  0  0  0  0  0  0  0
   14.1454   15.0579   20.2885 C   0  0  0  0  0  0  0  0  0  0  0  0
    8.0875   12.6953   24.6652 C   0  0  0  0  0  0  0  0  0  0  0  0
   11.8342   15.6255   19.9409 C   0  0  0  0  0  0  0  0  0  0  0  0
    3.8427   11.4966   28.2741 C   0  0  0  0  0  0  0  0  0  0  0  0
   14.3867   15.4721   18.9885 C   0  0  0  0  0  0  0  0  0  0  0  0
    6.0035   11.8229   28.5177 C   0  0  0  0  0  0  0  0  0  0  0  0
    7.0733   12.1883   25.4776 C   0  0  0  0  0  0  0  0  0  0  0  0
   12.8421   15.1392   20.7661 C   0  0  0  0  0  0  0  0  0  0  0  0
    8.8147   11.8374   23.8400 C   0  0  0  0  0  0  0  0  0  0  0  0
   12.1790   16.0145   18.6565 C   0  0  0  0  0  0  0  0  0  0  0  0
   10.6592   13.4610   23.2548 C   0  0  0  0  0  0  0  0  0  0  0  0
   10.0220   15.6107   17.5432 C   0  0  0  0  0  0  0  0  0  0  0  0
   11.4547   17.4928   16.8006 C   0  0  0  0  0  0  0  0  0  0  0  0
    8.8201   16.4372   17.1002 C   0  0  0  0  0  0  0  0  0  0  0  0
   10.1762   18.2187   16.3966 C   0  0  0  0  0  0  0  0  0  0  0  0
    6.2956   13.1050   26.3599 C   0  0  0  0  0  0  0  0  0  0  0  0
   12.5277   14.7081   22.1582 C   0  0  0  0  0  0  0  0  0  0  0  0
   13.4337   15.9500   18.1572 N   0  0  0  0  0  0  0  0  0  0  0  0
    4.2014   12.1865   27.1881 N   0  0  0  0  0  0  0  0  0  0  0  0
    5.5209   12.3699   27.3653 N   0  0  0  0  0  0  0  0  0  0  0  0
   11.1542   16.4997   17.8377 N   0  0  0  0  0  0  0  0  0  0  0  0
    9.8437   12.3511   23.0167 N   0  0  0  0  0  0  0  0  0  0  0  0
   11.5583   13.6423   22.1963 N   0  0  0  0  0  0  0  0  0  0  0  0
   10.6252   14.1976   24.2376 O   0  0  0  0  0  0  0  0  0  0  0  0
    9.1721   17.2829   16.0055 O   0  0  0  0  0  0  0  0  0  0  0  0
    7.2901    8.9026   24.6298 H   0  0  0  0  0  0  0  0  0  0  0  0
    5.9976   10.4191   26.0934 H   0  0  0  0  0  0  0  0  0  0  0  0
    9.0877    9.7947   23.1880 H   0  0  0  0  0  0  0  0  0  0  0  0
    4.9224   10.7103   30.0780 H   0  0  0  0  0  0  0  0  0  0  0  0
   14.9534   14.6830   20.9074 H   0  0  0  0  0  0  0  0  0  0  0  0
    8.3091   13.7603   24.6764 H   0  0  0  0  0  0  0  0  0  0  0  0
   10.8108   15.6948   20.2972 H   0  0  0  0  0  0  0  0  0  0  0  0
    2.8081   11.2082   28.3926 H   0  0  0  0  0  0  0  0  0  0  0  0
   15.3861   15.4281   18.5685 H   0  0  0  0  0  0  0  0  0  0  0  0
    7.0470   11.8904   28.7929 H   0  0  0  0  0  0  0  0  0  0  0  0
    9.7534   15.0188   18.4261 H   0  0  0  0  0  0  0  0  0  0  0  0
   10.3086   14.9203   16.7398 H   0  0  0  0  0  0  0  0  0  0  0  0
   11.8782   16.9817   15.9262 H   0  0  0  0  0  0  0  0  0  0  0  0
   12.1905   18.2213   17.1608 H   0  0  0  0  0  0  0  0  0  0  0  0
    8.0182   15.7728   16.7628 H   0  0  0  0  0  0  0  0  0  0  0  0
    8.4215   17.0419   17.9238 H   0  0  0  0  0  0  0  0  0  0  0  0
    9.7987   18.8514   17.2092 H   0  0  0  0  0  0  0  0  0  0  0  0
   10.3762   18.8696   15.5395 H   0  0  0  0  0  0  0  0  0  0  0  0
    6.9502   13.8116   26.8949 H   0  0  0  0  0  0  0  0  0  0  0  0
    5.5902   13.7263   25.7853 H   0  0  0  0  0  0  0  0  0  0  0  0
   13.4293   14.3521   22.6764 H   0  0  0  0  0  0  0  0  0  0  0  0
   12.1254   15.5375   22.7564 H   0  0  0  0  0  0  0  0  0  0  0  0
   10.0064   11.8483   22.1479 H   0  0  0  0  0  0  0  0  0  0  0  0
   11.5256   12.9902   21.4168 H   0  0  0  0  0  0  0  0  0  0  0  0
  1  2  2  0  0  0  0
  1  3  1  0  0  0  0
  2 11  1  0  0  0  0
  3 13  2  0  0  0  0
  4  8  1  0  0  0  0
  4 10  2  0  0  0  0
  5  9  1  0  0  0  0
  5 12  2  0  0  0  0
  6 11  2  0  0  0  0
  6 13  1  0  0  0  0
  7 12  1  0  0  0  0
  7 14  2  0  0  0  0
  8 23  2  0  0  0  0
  9 22  2  0  0  0  0
 10 24  1  0  0  0  0
 11 20  1  0  0  0  0
 12 21  1  0  0  0  0
 13 26  1  0  0  0  0
 14 22  1  0  0  0  0
 14 25  1  0  0  0  0
 15 26  1  0  0  0  0
 15 27  1  0  0  0  0
 15 28  2  0  0  0  0
 16 18  1  0  0  0  0
 16 25  1  0  0  0  0
 17 19  1  0  0  0  0
 17 25  1  0  0  0  0
 18 29  1  0  0  0  0
 19 29  1  0  0  0  0
 20 24  1  0  0  0  0
 21 27  1  0  0  0  0
 23 24  1  0  0  0  0
  1 30  1  0  0  0  0
  2 31  1  0  0  0  0
  3 32  1  0  0  0  0
  4 33  1  0  0  0  0
  5 34  1  0  0  0  0
  6 35  1  0  0  0  0
  7 36  1  0  0  0  0
  8 37  1  0  0  0  0
  9 38  1  0  0  0  0
 10 39  1  0  0  0  0
 16 40  1  0  0  0  0
 16 41  1  0  0  0  0
 17 42  1  0  0  0  0
 17 43  1  0  0  0  0
 18 44  1  0  0  0  0
 18 45  1  0  0  0  0
 19 46  1  0  0  0  0
 19 47  1  0  0  0  0
 20 48  1  0  0  0  0
 20 49  1  0  0  0  0
 21 50  1  0  0  0  0
 21 51  1  0  0  0  0
 26 52  1  0  0  0  0
 27 53  1  0  0  0  0
M  END
> <Catalog ID>
Z413382900

> <PlateID>
1041831-R-18

> <Well>
B08

> <MW (desalted)>
392.454

> <ClogP>
1.450

> <HBD>
2

> <TPSA>
84.310

> <RotBonds>
6

> <ROCS_ShapeQuery>
A71EV2A-x0451_0A_A71EV2A-x0310_0A_A71EV2A-x0416_0A_peptide

> <ROCS_TanimotoCombo>
0.519 

> <ROCS_ShapeTanimoto>
0.311 

> <ROCS_ColorTanimoto>
0.209 

> <ROCS_RefTversky>
0.292 

> <ROCS_RefColorTversky>
0.235 

> <ROCS_RefTverskyCombo>
0.527 

> <ROCS_FitTversky>
1.254 

> <ROCS_FitColorTversky>
0.649 

> <ROCS_FitTverskyCombo>
1.903 

> <ROCS_ColorScore>
-7.198

> <ROCS_Overlap>
2035.828

> <ROCS_Rank>
356                 

$$$$
untitled-dbase-2336_161
  -OEChem-11132311063D

 49 52  0     1  0  0  0  0  0999 V2000
   12.7920   16.1182   18.2067 C   0  0  0  0  0  0  0  0  0  0  0  0
   13.9756   16.7242   18.3193 C   0  0  0  0  0  0  0  0  0  0  0  0
   12.6685   15.5635   20.4302 C   0  0  0  0  0  0  0  0  0  0  0  0
   14.0195   16.2335   20.6598 C   0  0  0  0  0  0  0  0  0  0  0  0
   11.9722   15.0429   23.9760 C   0  0  0  0  0  0  0  0  0  0  0  0
   11.2039   13.7207   24.0172 C   0  0  0  0  0  0  0  0  0  0  0  0
    8.1280   12.6114   25.4710 C   0  0  0  0  0  0  0  0  0  0  0  0
   11.7431   15.8258   22.6888 C   0  0  0  0  0  0  0  0  0  0  0  0
   11.7673   13.5813   21.5564 C   0  0  0  0  0  0  0  0  0  0  0  0
    6.7174   12.1423   25.1288 C   0  0  0  0  0  0  0  0  0  0  0  0
    9.0605   11.6323   24.7688 C   0  0  2  0  0  0  0  0  0  0  0  0
   10.7241   13.2723   22.6321 C   0  0  1  0  0  0  0  0  0  0  0  0
    9.0847   11.6117   23.2180 C   0  0  2  0  0  0  0  0  0  0  0  0
    8.1939   10.3567   24.7487 C   0  0  2  0  0  0  0  0  0  0  0  0
    8.6181   10.1200   23.2666 C   0  0  0  0  0  0  0  0  0  0  0  0
    7.4733    9.8133   22.3026 C   0  0  0  0  0  0  0  0  0  0  0  0
    9.7163    9.0553   23.1574 C   0  0  0  0  0  0  0  0  0  0  0  0
   12.1206   15.5316   19.2454 N   0  0  0  0  0  0  0  0  0  0  0  0
   14.5893   16.7846   19.5337 N   0  0  0  0  0  0  0  0  0  0  0  0
   12.0848   15.0125   21.5215 N   0  0  3  0  0  0  0  0  0  0  0  0
   10.4009   11.8458   22.6353 N   0  0  0  0  0  0  0  0  0  0  0  0
   14.4989   16.2421   21.7841 O   0  0  0  0  0  0  0  0  0  0  0  0
    6.8179   10.7168   25.0291 O   0  0  0  0  0  0  0  0  0  0  0  0
   12.2991   16.0681   17.2418 H   0  0  0  0  0  0  0  0  0  0  0  0
   14.4921   17.1843   17.4875 H   0  0  0  0  0  0  0  0  0  0  0  0
   11.6774   15.6630   24.8404 H   0  0  0  0  0  0  0  0  0  0  0  0
   13.0495   14.8431   24.0997 H   0  0  0  0  0  0  0  0  0  0  0  0
   11.8547   12.9454   24.4635 H   0  0  0  0  0  0  0  0  0  0  0  0
   10.3437   13.8224   24.7035 H   0  0  0  0  0  0  0  0  0  0  0  0
    8.3010   13.6505   25.1770 H   0  0  0  0  0  0  0  0  0  0  0  0
    8.2796   12.5380   26.5548 H   0  0  0  0  0  0  0  0  0  0  0  0
   10.6956   16.1557   22.6475 H   0  0  0  0  0  0  0  0  0  0  0  0
   12.3598   16.7359   22.6833 H   0  0  0  0  0  0  0  0  0  0  0  0
   12.7002   13.0207   21.7390 H   0  0  0  0  0  0  0  0  0  0  0  0
   11.3980   13.2440   20.5729 H   0  0  0  0  0  0  0  0  0  0  0  0
    5.9917   12.4144   25.8997 H   0  0  0  0  0  0  0  0  0  0  0  0
    6.3824   12.5334   24.1631 H   0  0  0  0  0  0  0  0  0  0  0  0
   10.0298   11.5094   25.2666 H   0  0  0  0  0  0  0  0  0  0  0  0
    9.7958   13.8174   22.3872 H   0  0  0  0  0  0  0  0  0  0  0  0
    8.2916   12.3079   22.7627 H   0  0  0  0  0  0  0  0  0  0  0  0
    8.5205    9.5831   25.4527 H   0  0  0  0  0  0  0  0  0  0  0  0
    7.1967    8.7645   22.3846 H   0  0  0  0  0  0  0  0  0  0  0  0
    7.7877   10.0230   21.2826 H   0  0  0  0  0  0  0  0  0  0  0  0
    6.6128   10.4319   22.5477 H   0  0  0  0  0  0  0  0  0  0  0  0
    9.2673    8.0675   23.2037 H   0  0  0  0  0  0  0  0  0  0  0  0
   10.4172    9.1743   23.9783 H   0  0  0  0  0  0  0  0  0  0  0  0
   10.2397    9.1724   22.2130 H   0  0  0  0  0  0  0  0  0  0  0  0
   15.4897   17.2477   19.6107 H   0  0  0  0  0  0  0  0  0  0  0  0
   10.4096   11.4969   21.6776 H   0  0  0  0  0  0  0  0  0  0  0  0
  1  2  2  0  0  0  0
  1 18  1  0  0  0  0
  2 19  1  0  0  0  0
  3  4  1  0  0  0  0
  3 18  2  0  0  0  0
  3 20  1  0  0  0  0
  4 19  1  0  0  0  0
  4 22  2  0  0  0  0
  5  6  1  0  0  0  0
  5  8  1  0  0  0  0
  6 12  1  0  0  0  0
  7 10  1  0  0  0  0
  7 11  1  0  0  0  0
  8 20  1  0  0  0  0
  9 12  1  0  0  0  0
  9 20  1  0  0  0  0
 10 23  1  0  0  0  0
 11 13  1  0  0  0  0
 11 14  1  0  0  0  0
 12 21  1  0  0  0  0
 13 15  1  0  0  0  0
 13 21  1  0  0  0  0
 14 15  1  0  0  0  0
 14 23  1  0  0  0  0
 15 16  1  0  0  0  0
 15 17  1  0  0  0  0
  1 24  1  0  0  0  0
  2 25  1  0  0  0  0
  5 26  1  0  0  0  0
  5 27  1  0  0  0  0
  6 28  1  0  0  0  0
  6 29  1  0  0  0  0
  7 30  1  0  0  0  0
  7 31  1  0  0  0  0
  8 32  1  0  0  0  0
  8 33  1  0  0  0  0
  9 34  1  0  0  0  0
  9 35  1  0  0  0  0
 10 36  1  0  0  0  0
 10 37  1  0  0  0  0
 11 38  1  0  0  0  0
 12 39  1  0  0  0  0
 13 40  1  0  0  0  0
 14 41  1  0  0  0  0
 16 42  1  0  0  0  0
 16 43  1  0  0  0  0
 16 44  1  0  0  0  0
 17 45  1  0  0  0  0
 17 46  1  0  0  0  0
 17 47  1  0  0  0  0
 19 48  1  0  0  0  0
 21 49  1  0  0  0  0
M  END
> <Catalog ID>
Z1758050273

> <PlateID>
1041831-R-30

> <Well>
B07

> <MW (desalted)>
318.414

> <ClogP>
0.245

> <HBD>
2

> <TPSA>
65.960

> <RotBonds>
3

> <ROCS_ShapeQuery>
A71EV2A-x0451_0A_A71EV2A-x0310_0A_A71EV2A-x0416_0A_peptide

> <ROCS_TanimotoCombo>
0.519 

> <ROCS_ShapeTanimoto>
0.344 

> <ROCS_ColorTanimoto>
0.176 

> <ROCS_RefTversky>
0.306 

> <ROCS_RefColorTversky>
0.223 

> <ROCS_RefTverskyCombo>
0.529 

> <ROCS_FitTversky>
1.571 

> <ROCS_FitColorTversky>
0.451 

> <ROCS_FitTverskyCombo>
2.022 

> <ROCS_ColorScore>
-6.891

> <ROCS_Overlap>
2122.719

> <ROCS_Rank>
357                 

$$$$
untitled-dbase-2266_625
  -OEChem-11132311063D

 47 49  0     1  0  0  0  0  0999 V2000
   11.8489   14.6731   19.6246 C   0  0  0  0  0  0  0  0  0  0  0  0
   11.2216   13.9960   20.6704 C   0  0  0  0  0  0  0  0  0  0  0  0
   12.7796   15.6746   19.9011 C   0  0  0  0  0  0  0  0  0  0  0  0
   12.4555   15.3222   22.2691 C   0  0  0  0  0  0  0  0  0  0  0  0
   11.5248   14.3206   21.9926 C   0  0  0  0  0  0  0  0  0  0  0  0
   13.0828   15.9992   21.2233 C   0  0  0  0  0  0  0  0  0  0  0  0
   10.8569   13.5988   23.1062 C   0  0  0  0  0  0  0  0  0  0  0  0
    6.6695   12.1609   25.8564 C   0  0  0  0  0  0  0  0  0  0  0  0
    8.0347   12.6596   25.3912 C   0  0  0  0  0  0  0  0  0  0  0  0
    6.6673   10.6402   26.0462 C   0  0  0  0  0  0  0  0  0  0  0  0
    8.3240   12.0626   24.0163 C   0  0  1  0  0  0  0  0  0  0  0  0
    9.7448   11.4902   23.7935 C   0  0  1  0  0  0  0  0  0  0  0  0
    7.7773   10.6134   23.8719 C   0  0  1  0  0  0  0  0  0  0  0  0
    9.0985   10.2367   23.1174 C   0  0  0  0  0  0  0  0  0  0  0  0
    9.7524    8.9303   23.5720 C   0  0  0  0  0  0  0  0  0  0  0  0
    8.8925   10.2258   21.5962 C   0  0  0  0  0  0  0  0  0  0  0  0
   16.0248   16.1057   20.6235 C   0  0  0  0  0  0  0  0  0  0  0  0
   14.0779   17.0703   21.5191 C   0  0  0  0  0  0  0  0  0  0  0  0
   10.4381   12.3173   22.8145 N   0  0  0  0  0  0  0  0  0  0  0  0
   10.7003   14.1694   24.1825 O   0  0  0  0  0  0  0  0  0  0  0  0
    7.5189    9.9492   25.1298 O   0  0  0  0  0  0  0  0  0  0  0  0
   15.0418   17.1208   20.4745 O   0  0  0  0  0  0  0  0  0  0  0  0
   11.6120   14.4211   18.5950 H   0  0  0  0  0  0  0  0  0  0  0  0
   10.4983   13.2169   20.4435 H   0  0  0  0  0  0  0  0  0  0  0  0
   13.2640   16.1965   19.0799 H   0  0  0  0  0  0  0  0  0  0  0  0
   12.6922   15.5773   23.2996 H   0  0  0  0  0  0  0  0  0  0  0  0
    6.4079   12.6423   26.8073 H   0  0  0  0  0  0  0  0  0  0  0  0
    5.9040   12.4440   25.1239 H   0  0  0  0  0  0  0  0  0  0  0  0
    8.0062   13.7389   25.3117 H   0  0  0  0  0  0  0  0  0  0  0  0
    8.8029   12.3801   26.0970 H   0  0  0  0  0  0  0  0  0  0  0  0
    7.0127   10.3919   27.0700 H   0  0  0  0  0  0  0  0  0  0  0  0
    5.6393   10.2269   25.9613 H   0  0  0  0  0  0  0  0  0  0  0  0
    7.9909   12.7351   23.2536 H   0  0  0  0  0  0  0  0  0  0  0  0
   10.3230   11.3224   24.6524 H   0  0  0  0  0  0  0  0  0  0  0  0
    6.8624   10.5678   23.2549 H   0  0  0  0  0  0  0  0  0  0  0  0
    9.2726    8.0876   23.0779 H   0  0  0  0  0  0  0  0  0  0  0  0
    9.6457    8.8213   24.6495 H   0  0  0  0  0  0  0  0  0  0  0  0
   10.8102    8.9402   23.3162 H   0  0  0  0  0  0  0  0  0  0  0  0
    8.4355    9.2859   21.2982 H   0  0  0  0  0  0  0  0  0  0  0  0
    9.8527   10.3342   21.0989 H   0  0  0  0  0  0  0  0  0  0  0  0
    8.2431   11.0495   21.3117 H   0  0  0  0  0  0  0  0  0  0  0  0
   16.7469   16.1739   19.8062 H   0  0  0  0  0  0  0  0  0  0  0  0
   15.5415   15.1254   20.6160 H   0  0  0  0  0  0  0  0  0  0  0  0
   16.5411   16.2479   21.5757 H   0  0  0  0  0  0  0  0  0  0  0  0
   13.5957   18.0541   21.5995 H   0  0  0  0  0  0  0  0  0  0  0  0
   14.5960   16.8791   22.4687 H   0  0  0  0  0  0  0  0  0  0  0  0
   10.5409   11.9277   21.8890 H   0  0  0  0  0  0  0  0  0  0  0  0
  1  2  2  0  0  0  0
  1  3  1  0  0  0  0
  2  5  1  0  0  0  0
  3  6  2  0  0  0  0
  4  5  2  0  0  0  0
  4  6  1  0  0  0  0
  5  7  1  0  0  0  0
  6 18  1  0  0  0  0
  7 19  1  0  0  0  0
  7 20  2  0  0  0  0
  8  9  1  0  0  0  0
  8 10  1  0  0  0  0
  9 11  1  0  0  0  0
 10 21  1  0  0  0  0
 11 12  1  0  0  0  0
 11 13  1  0  0  0  0
 12 14  1  0  0  0  0
 12 19  1  0  0  0  0
 13 14  1  0  0  0  0
 13 21  1  0  0  0  0
 14 15  1  0  0  0  0
 14 16  1  0  0  0  0
 17 22  1  0  0  0  0
 18 22  1  0  0  0  0
  1 23  1  0  0  0  0
  2 24  1  0  0  0  0
  3 25  1  0  0  0  0
  4 26  1  0  0  0  0
  8 27  1  0  0  0  0
  8 28  1  0  0  0  0
  9 29  1  0  0  0  0
  9 30  1  0  0  0  0
 10 31  1  0  0  0  0
 10 32  1  0  0  0  0
 11 33  1  0  0  0  0
 12 34  1  0  0  0  0
 13 35  1  0  0  0  0
 15 36  1  0  0  0  0
 15 37  1  0  0  0  0
 15 38  1  0  0  0  0
 16 39  1  0  0  0  0
 16 40  1  0  0  0  0
 16 41  1  0  0  0  0
 17 42  1  0  0  0  0
 17 43  1  0  0  0  0
 17 44  1  0  0  0  0
 18 45  1  0  0  0  0
 18 46  1  0  0  0  0
 19 47  1  0  0  0  0
M  END
> <Catalog ID>
Z1260557478

> <PlateID>
1041831-R-29

> <Well>
C07

> <MW (desalted)>
303.396

> <ClogP>
2.177

> <HBD>
1

> <TPSA>
47.560

> <RotBonds>
4

> <ROCS_ShapeQuery>
A71EV2A-x0451_0A_A71EV2A-x0310_0A_A71EV2A-x0416_0A_peptide

> <ROCS_TanimotoCombo>
0.519 

> <ROCS_ShapeTanimoto>
0.343 

> <ROCS_ColorTanimoto>
0.176 

> <ROCS_RefTversky>
0.303 

> <ROCS_RefColorTversky>
0.195 

> <ROCS_RefTverskyCombo>
0.498 

> <ROCS_FitTversky>
1.640 

> <ROCS_FitColorTversky>
0.641 

> <ROCS_FitTverskyCombo>
2.282 

> <ROCS_ColorScore>
-5.946

> <ROCS_Overlap>
2103.260

> <ROCS_Rank>
358                 

$$$$
untitled-dbase-1142_4833
  -OEChem-11132311063D

 42 44  0     0  0  0  0  0  0999 V2000
   13.5749   15.9065   20.8722 C   0  0  0  0  0  0  0  0  0  0  0  0
   11.6966   15.7433   19.3614 C   0  0  0  0  0  0  0  0  0  0  0  0
   14.3998   16.2693   19.8076 C   0  0  0  0  0  0  0  0  0  0  0  0
   12.5215   16.1062   18.2967 C   0  0  0  0  0  0  0  0  0  0  0  0
    5.3515   13.0919   28.5744 C   0  0  0  0  0  0  0  0  0  0  0  0
    4.0485   12.8307   28.9293 C   0  0  0  0  0  0  0  0  0  0  0  0
    9.2686    9.9372   23.1004 C   0  0  0  0  0  0  0  0  0  0  0  0
    5.5330   12.5169   27.2939 C   0  0  0  0  0  0  0  0  0  0  0  0
   12.2233   15.6434   20.6491 C   0  0  0  0  0  0  0  0  0  0  0  0
   13.8731   16.3692   18.5198 C   0  0  0  0  0  0  0  0  0  0  0  0
    9.7870   11.1232   23.5766 C   0  0  0  0  0  0  0  0  0  0  0  0
    4.3280   11.9451   26.9577 C   0  0  0  0  0  0  0  0  0  0  0  0
    7.9270   11.0863   24.7382 C   0  0  0  0  0  0  0  0  0  0  0  0
    6.7463   12.5097   26.4588 C   0  0  0  0  0  0  0  0  0  0  0  0
   11.0975   13.2551   23.2380 C   0  0  0  0  0  0  0  0  0  0  0  0
    3.8541   11.2011   25.7806 C   0  0  0  0  0  0  0  0  0  0  0  0
   11.3406   15.2569   21.7875 C   0  0  0  0  0  0  0  0  0  0  0  0
   11.0961   11.7405   23.1612 C   0  0  0  0  0  0  0  0  0  0  0  0
    9.0189   11.7838   24.5155 N   0  0  0  0  0  0  0  0  0  0  0  0
    6.9018   11.3857   25.5958 N   0  0  0  0  0  0  0  0  0  0  0  0
   11.3004   13.8309   21.9898 N   0  0  0  0  0  0  0  0  0  0  0  0
    7.5769   13.4119   26.5420 O   0  0  0  0  0  0  0  0  0  0  0  0
   10.9340   13.8813   24.2820 O   0  0  0  0  0  0  0  0  0  0  0  0
    3.4178   12.1319   27.9493 O   0  0  0  0  0  0  0  0  0  0  0  0
    7.7595    9.6256   23.8532 S   0  0  0  0  0  0  0  0  0  0  0  0
   14.8908   16.8171   17.2067 Cl  0  0  0  0  0  0  0  0  0  0  0  0
   13.9928   15.8305   21.8726 H   0  0  0  0  0  0  0  0  0  0  0  0
   10.6446   15.5403   19.1792 H   0  0  0  0  0  0  0  0  0  0  0  0
   15.4509   16.4716   19.9966 H   0  0  0  0  0  0  0  0  0  0  0  0
   12.0972   16.1800   17.2987 H   0  0  0  0  0  0  0  0  0  0  0  0
    6.0768   13.6303   29.1678 H   0  0  0  0  0  0  0  0  0  0  0  0
    3.4497   13.0613   29.7982 H   0  0  0  0  0  0  0  0  0  0  0  0
    9.6879    9.2585   22.3712 H   0  0  0  0  0  0  0  0  0  0  0  0
    4.0207   10.1157   25.8967 H   0  0  0  0  0  0  0  0  0  0  0  0
    2.7748   11.3522   25.5961 H   0  0  0  0  0  0  0  0  0  0  0  0
    4.3644   11.5167   24.8522 H   0  0  0  0  0  0  0  0  0  0  0  0
   11.6826   15.7139   22.7267 H   0  0  0  0  0  0  0  0  0  0  0  0
   10.3072   15.5944   21.6286 H   0  0  0  0  0  0  0  0  0  0  0  0
   11.9030   11.3534   23.7964 H   0  0  0  0  0  0  0  0  0  0  0  0
   11.3371   11.4415   22.1332 H   0  0  0  0  0  0  0  0  0  0  0  0
    6.1273   10.6955   25.6208 H   0  0  0  0  0  0  0  0  0  0  0  0
   11.4256   13.2204   21.1856 H   0  0  0  0  0  0  0  0  0  0  0  0
  1  3  1  0  0  0  0
  1  9  2  0  0  0  0
  2  4  2  0  0  0  0
  2  9  1  0  0  0  0
  3 10  2  0  0  0  0
  4 10  1  0  0  0  0
  5  6  2  0  0  0  0
  5  8  1  0  0  0  0
  6 24  1  0  0  0  0
  7 11  2  0  0  0  0
  7 25  1  0  0  0  0
  8 12  2  0  0  0  0
  8 14  1  0  0  0  0
  9 17  1  0  0  0  0
 10 26  1  0  0  0  0
 11 18  1  0  0  0  0
 11 19  1  0  0  0  0
 12 16  1  0  0  0  0
 12 24  1  0  0  0  0
 13 19  2  0  0  0  0
 13 20  1  0  0  0  0
 13 25  1  0  0  0  0
 14 20  1  0  0  0  0
 14 22  2  0  0  0  0
 15 18  1  0  0  0  0
 15 21  1  0  0  0  0
 15 23  2  0  0  0  0
 17 21  1  0  0  0  0
  1 27  1  0  0  0  0
  2 28  1  0  0  0  0
  3 29  1  0  0  0  0
  4 30  1  0  0  0  0
  5 31  1  0  0  0  0
  6 32  1  0  0  0  0
  7 33  1  0  0  0  0
 16 34  1  0  0  0  0
 16 35  1  0  0  0  0
 16 36  1  0  0  0  0
 17 37  1  0  0  0  0
 17 38  1  0  0  0  0
 18 39  1  0  0  0  0
 18 40  1  0  0  0  0
 20 41  1  0  0  0  0
 21 42  1  0  0  0  0
M  END
> <Catalog ID>
Z441596658

> <PlateID>
1041831-R-15

> <Well>
C03

> <MW (desalted)>
389.856

> <ClogP>
2.510

> <HBD>
2

> <TPSA>
84.230

> <RotBonds>
6

> <ROCS_ShapeQuery>
A71EV2A-x0451_0A_A71EV2A-x0310_0A_A71EV2A-x0416_0A_peptide

> <ROCS_TanimotoCombo>
0.519 

> <ROCS_ShapeTanimoto>
0.342 

> <ROCS_ColorTanimoto>
0.177 

> <ROCS_RefTversky>
0.308 

> <ROCS_RefColorTversky>
0.200 

> <ROCS_RefTverskyCombo>
0.508 

> <ROCS_FitTversky>
1.473 

> <ROCS_FitColorTversky>
0.603 

> <ROCS_FitTverskyCombo>
2.076 

> <ROCS_ColorScore>
-6.115

> <ROCS_Overlap>
2144.808

> <ROCS_Rank>
359                 

$$$$
untitled-dbase-2563_10682
  -OEChem-11132311063D

 46 49  0     1  0  0  0  0  0999 V2000
    5.8328   11.2616   26.3253 C   0  0  0  0  0  0  0  0  0  0  0  0
    6.4074   12.5236   26.4365 C   0  0  0  0  0  0  0  0  0  0  0  0
    6.3844   10.3220   25.4578 C   0  0  0  0  0  0  0  0  0  0  0  0
    7.5339   12.8478   25.6787 C   0  0  0  0  0  0  0  0  0  0  0  0
    7.5248   10.6365   24.7046 C   0  0  0  0  0  0  0  0  0  0  0  0
    8.1133   11.9188   24.7985 C   0  0  0  0  0  0  0  0  0  0  0  0
   12.8525   14.7618   23.6047 C   0  0  0  0  0  0  0  0  0  0  0  0
   13.6649   15.8717   23.5031 C   0  0  0  0  0  0  0  0  0  0  0  0
   15.0373   14.5577   24.5984 C   0  0  0  0  0  0  0  0  0  0  0  0
   11.4681   14.5325   23.1170 C   0  0  0  0  0  0  0  0  0  0  0  0
    8.0768    9.6274   23.7229 C   0  0  0  0  0  0  0  0  0  0  0  0
    9.5889    9.7502   23.5122 C   0  0  0  0  0  0  0  0  0  0  0  0
    9.3371   12.2762   23.9839 C   0  0  1  0  0  0  0  0  0  0  0  0
   10.0679   11.1531   23.2843 C   0  0  2  0  0  0  0  0  0  0  0  0
    9.2978   12.1644   22.4722 C   0  0  2  0  0  0  0  0  0  0  0  0
   13.3161   17.1495   22.8487 C   0  0  0  0  0  0  0  0  0  0  0  0
   17.0087   12.6254   26.9902 C   0  0  0  0  0  0  0  0  0  0  0  0
   16.2437   14.0669   25.2992 C   0  0  0  0  0  0  0  0  0  0  0  0
   10.0290   13.1575   21.6356 C   0  0  0  0  0  0  0  0  0  0  0  0
   14.9179   15.7567   24.0727 N   0  0  0  0  0  0  0  0  0  0  0  0
   11.3020   13.4877   22.2150 N   0  0  0  0  0  0  0  0  0  0  0  0
   10.5651   15.2684   23.5063 O   0  0  0  0  0  0  0  0  0  0  0  0
   15.8722   13.1177   26.2971 O   0  0  0  0  0  0  0  0  0  0  0  0
   13.6816   13.5170   24.4439 S   0  0  0  0  0  0  0  0  0  0  0  0
    4.9570   11.0086   26.9147 H   0  0  0  0  0  0  0  0  0  0  0  0
    5.9832   13.2562   27.1168 H   0  0  0  0  0  0  0  0  0  0  0  0
    5.9197    9.3425   25.3681 H   0  0  0  0  0  0  0  0  0  0  0  0
    7.9710   13.8406   25.7788 H   0  0  0  0  0  0  0  0  0  0  0  0
    7.8293    8.6188   24.0959 H   0  0  0  0  0  0  0  0  0  0  0  0
    7.5766    9.7356   22.7460 H   0  0  0  0  0  0  0  0  0  0  0  0
   10.1137    9.3241   24.3916 H   0  0  0  0  0  0  0  0  0  0  0  0
    9.8943    9.1070   22.6597 H   0  0  0  0  0  0  0  0  0  0  0  0
    9.9640   13.0633   24.3983 H   0  0  0  0  0  0  0  0  0  0  0  0
   11.1676   11.2140   23.2902 H   0  0  0  0  0  0  0  0  0  0  0  0
    8.3717   11.8565   22.0075 H   0  0  0  0  0  0  0  0  0  0  0  0
   12.8500   17.8463   23.5637 H   0  0  0  0  0  0  0  0  0  0  0  0
   14.2015   17.6490   22.4209 H   0  0  0  0  0  0  0  0  0  0  0  0
   12.6122   17.0056   22.0117 H   0  0  0  0  0  0  0  0  0  0  0  0
   16.6908   11.9026   27.7456 H   0  0  0  0  0  0  0  0  0  0  0  0
   17.5353   13.4570   27.4652 H   0  0  0  0  0  0  0  0  0  0  0  0
   17.6749   12.1345   26.2770 H   0  0  0  0  0  0  0  0  0  0  0  0
   16.9524   13.5783   24.6092 H   0  0  0  0  0  0  0  0  0  0  0  0
   16.7930   14.8871   25.7917 H   0  0  0  0  0  0  0  0  0  0  0  0
   10.1906   12.7340   20.6330 H   0  0  0  0  0  0  0  0  0  0  0  0
    9.4245   14.0732   21.5530 H   0  0  0  0  0  0  0  0  0  0  0  0
   12.1142   12.9637   21.8940 H   0  0  0  0  0  0  0  0  0  0  0  0
  1  2  2  0  0  0  0
  1  3  1  0  0  0  0
  2  4  1  0  0  0  0
  3  5  2  0  0  0  0
  4  6  2  0  0  0  0
  5  6  1  0  0  0  0
  5 11  1  0  0  0  0
  6 13  1  0  0  0  0
  7  8  2  0  0  0  0
  7 10  1  0  0  0  0
  7 24  1  0  0  0  0
  8 16  1  0  0  0  0
  8 20  1  0  0  0  0
  9 18  1  0  0  0  0
  9 20  2  0  0  0  0
  9 24  1  0  0  0  0
 10 21  1  0  0  0  0
 10 22  2  0  0  0  0
 11 12  1  0  0  0  0
 12 14  1  0  0  0  0
 13 14  1  0  0  0  0
 13 15  1  0  0  0  0
 14 15  1  0  0  0  0
 15 19  1  0  0  0  0
 17 23  1  0  0  0  0
 18 23  1  0  0  0  0
 19 21  1  0  0  0  0
  1 25  1  0  0  0  0
  2 26  1  0  0  0  0
  3 27  1  0  0  0  0
  4 28  1  0  0  0  0
 11 29  1  0  0  0  0
 11 30  1  0  0  0  0
 12 31  1  0  0  0  0
 12 32  1  0  0  0  0
 13 33  1  0  0  0  0
 14 34  1  0  0  0  0
 15 35  1  0  0  0  0
 16 36  1  0  0  0  0
 16 37  1  0  0  0  0
 16 38  1  0  0  0  0
 17 39  1  0  0  0  0
 17 40  1  0  0  0  0
 17 41  1  0  0  0  0
 18 42  1  0  0  0  0
 18 43  1  0  0  0  0
 19 44  1  0  0  0  0
 19 45  1  0  0  0  0
 21 46  1  0  0  0  0
M  END
> <Catalog ID>
Z1529532122

> <PlateID>
1041831-R-33

> <Well>
A04

> <MW (desalted)>
342.455

> <ClogP>
2.687

> <HBD>
1

> <TPSA>
51.220

> <RotBonds>
5

> <ROCS_ShapeQuery>
A71EV2A-x0451_0A_A71EV2A-x0310_0A_A71EV2A-x0416_0A_peptide

> <ROCS_TanimotoCombo>
0.519 

> <ROCS_ShapeTanimoto>
0.315 

> <ROCS_ColorTanimoto>
0.204 

> <ROCS_RefTversky>
0.287 

> <ROCS_RefColorTversky>
0.230 

> <ROCS_RefTverskyCombo>
0.517 

> <ROCS_FitTversky>
1.458 

> <ROCS_FitColorTversky>
0.645 

> <ROCS_FitTverskyCombo>
2.103 

> <ROCS_ColorScore>
-7.032

> <ROCS_Overlap>
1992.877

> <ROCS_Rank>
360                 

$$$$
untitled-dbase-1187_9946
  -OEChem-11132311063D

 50 53  0     1  0  0  0  0  0999 V2000
   13.4786   10.9207   25.9665 C   0  0  0  0  0  0  0  0  0  0  0  0
   13.3319   11.6910   24.8132 C   0  0  0  0  0  0  0  0  0  0  0  0
   14.0126   13.6636   26.0352 C   0  0  0  0  0  0  0  0  0  0  0  0
   14.1492   12.9020   27.2007 C   0  0  0  0  0  0  0  0  0  0  0  0
   13.8769   11.5287   27.1594 C   0  0  0  0  0  0  0  0  0  0  0  0
   13.5959   13.0602   24.8479 C   0  0  0  0  0  0  0  0  0  0  0  0
   14.2724   11.2683   29.5726 C   0  0  0  0  0  0  0  0  0  0  0  0
   11.1131   13.3732   23.3895 C   0  0  0  0  0  0  0  0  0  0  0  0
   14.6867   13.5075   28.4652 C   0  0  0  0  0  0  0  0  0  0  0  0
   14.1521   12.7754   29.6870 C   0  0  0  0  0  0  0  0  0  0  0  0
    6.3934   12.1685   25.1578 C   0  0  0  0  0  0  0  0  0  0  0  0
    6.1736   10.6562   25.1245 C   0  0  0  0  0  0  0  0  0  0  0  0
    7.8299   12.5401   25.5116 C   0  0  0  0  0  0  0  0  0  0  0  0
    8.3248   11.0013   22.4703 C   0  0  0  0  0  0  0  0  0  0  0  0
    7.4339    9.8646   25.4703 C   0  0  0  0  0  0  0  0  0  0  0  0
    8.6349    9.7956   23.3332 C   0  0  0  0  0  0  0  0  0  0  0  0
    8.8673   11.7299   24.7147 C   0  0  2  0  0  0  0  0  0  0  0  0
    8.9343   12.1602   23.2386 C   0  0  1  0  0  0  0  0  0  0  0  0
   12.4929   13.3915   22.7671 C   0  0  0  0  0  0  0  0  0  0  0  0
   14.0315   10.7448   28.3167 N   0  0  0  0  0  0  0  0  0  0  0  0
    8.6232   10.2704   24.7207 N   0  0  1  0  0  0  0  0  0  0  0  0
   10.3001   12.3935   22.8276 N   0  0  0  0  0  0  0  0  0  0  0  0
   14.4770   10.5667   30.5631 O   0  0  0  0  0  0  0  0  0  0  0  0
   10.7782   14.1442   24.2848 O   0  0  0  0  0  0  0  0  0  0  0  0
   13.4581   13.8144   23.7066 O   0  0  0  0  0  0  0  0  0  0  0  0
   13.2744    9.8541   25.9255 H   0  0  0  0  0  0  0  0  0  0  0  0
   13.0150   11.2173   23.8880 H   0  0  0  0  0  0  0  0  0  0  0  0
   14.2401   14.7268   26.0488 H   0  0  0  0  0  0  0  0  0  0  0  0
   15.7814   13.4432   28.4389 H   0  0  0  0  0  0  0  0  0  0  0  0
   14.4139   14.5670   28.5324 H   0  0  0  0  0  0  0  0  0  0  0  0
   13.0888   13.0041   29.8316 H   0  0  0  0  0  0  0  0  0  0  0  0
   14.6907   13.1080   30.5811 H   0  0  0  0  0  0  0  0  0  0  0  0
    6.1209   12.6070   24.1848 H   0  0  0  0  0  0  0  0  0  0  0  0
    5.7098   12.6147   25.8992 H   0  0  0  0  0  0  0  0  0  0  0  0
    5.3649   10.3871   25.8197 H   0  0  0  0  0  0  0  0  0  0  0  0
    5.8265   10.3678   24.1196 H   0  0  0  0  0  0  0  0  0  0  0  0
    7.9827   13.6251   25.3335 H   0  0  0  0  0  0  0  0  0  0  0  0
    7.9998   12.3956   26.5973 H   0  0  0  0  0  0  0  0  0  0  0  0
    8.7730   10.8805   21.4789 H   0  0  0  0  0  0  0  0  0  0  0  0
    7.2480   11.1468   22.3439 H   0  0  0  0  0  0  0  0  0  0  0  0
    7.6256    9.9314   26.5712 H   0  0  0  0  0  0  0  0  0  0  0  0
    7.2350    8.7810   25.2854 H   0  0  0  0  0  0  0  0  0  0  0  0
    7.8971    8.9845   23.1872 H   0  0  0  0  0  0  0  0  0  0  0  0
    9.6258    9.3815   23.0594 H   0  0  0  0  0  0  0  0  0  0  0  0
    9.8796   11.9513   25.1862 H   0  0  0  0  0  0  0  0  0  0  0  0
    8.3902   13.0763   23.0636 H   0  0  0  0  0  0  0  0  0  0  0  0
   12.7519   12.3819   22.4339 H   0  0  0  0  0  0  0  0  0  0  0  0
   12.5077   14.0671   21.9062 H   0  0  0  0  0  0  0  0  0  0  0  0
   13.9622    9.7353   28.2241 H   0  0  0  0  0  0  0  0  0  0  0  0
   10.6886   11.8093   22.0866 H   0  0  0  0  0  0  0  0  0  0  0  0
  1  2  1  0  0  0  0
  1  5  2  0  0  0  0
  2  6  2  0  0  0  0
  3  4  2  0  0  0  0
  3  6  1  0  0  0  0
  4  5  1  0  0  0  0
  4  9  1  0  0  0  0
  5 20  1  0  0  0  0
  6 25  1  0  0  0  0
  7 10  1  0  0  0  0
  7 20  1  0  0  0  0
  7 23  2  0  0  0  0
  8 19  1  0  0  0  0
  8 22  1  0  0  0  0
  8 24  2  0  0  0  0
  9 10  1  0  0  0  0
 11 12  1  0  0  0  0
 11 13  1  0  0  0  0
 12 15  1  0  0  0  0
 13 17  1  0  0  0  0
 14 16  1  0  0  0  0
 14 18  1  0  0  0  0
 15 21  1  0  0  0  0
 16 21  1  0  0  0  0
 17 18  1  0  0  0  0
 17 21  1  0  0  0  0
 18 22  1  0  0  0  0
 19 25  1  0  0  0  0
  1 26  1  0  0  0  0
  2 27  1  0  0  0  0
  3 28  1  0  0  0  0
  9 29  1  0  0  0  0
  9 30  1  0  0  0  0
 10 31  1  0  0  0  0
 10 32  1  0  0  0  0
 11 33  1  0  0  0  0
 11 34  1  0  0  0  0
 12 35  1  0  0  0  0
 12 36  1  0  0  0  0
 13 37  1  0  0  0  0
 13 38  1  0  0  0  0
 14 39  1  0  0  0  0
 14 40  1  0  0  0  0
 15 41  1  0  0  0  0
 15 42  1  0  0  0  0
 16 43  1  0  0  0  0
 16 44  1  0  0  0  0
 17 45  1  0  0  0  0
 18 46  1  0  0  0  0
 19 47  1  0  0  0  0
 19 48  1  0  0  0  0
 20 49  1  0  0  0  0
 22 50  1  0  0  0  0
M  END
> <Catalog ID>
Z423019178

> <PlateID>
1041831-R-15

> <Well>
G08

> <MW (desalted)>
343.420

> <ClogP>
1.543

> <HBD>
2

> <TPSA>
70.670

> <RotBonds>
4

> <ROCS_ShapeQuery>
A71EV2A-x0451_0A_A71EV2A-x0310_0A_A71EV2A-x0416_0A_peptide

> <ROCS_TanimotoCombo>
0.519 

> <ROCS_ShapeTanimoto>
0.305 

> <ROCS_ColorTanimoto>
0.214 

> <ROCS_RefTversky>
0.282 

> <ROCS_RefColorTversky>
0.240 

> <ROCS_RefTverskyCombo>
0.522 

> <ROCS_FitTversky>
1.367 

> <ROCS_FitColorTversky>
0.662 

> <ROCS_FitTverskyCombo>
2.028 

> <ROCS_ColorScore>
-7.347

> <ROCS_Overlap>
1962.233

> <ROCS_Rank>
361                 

$$$$
untitled-dbase-660_116
  -OEChem-11132311063D

 38 40  0     0  0  0  0  0  0999 V2000
   13.6574   16.7802   18.8333 C   0  0  0  0  0  0  0  0  0  0  0  0
   12.3443   16.9535   19.2706 C   0  0  0  0  0  0  0  0  0  0  0  0
   14.4753   15.8281   19.4419 C   0  0  0  0  0  0  0  0  0  0  0  0
   11.8490   16.1748   20.3166 C   0  0  0  0  0  0  0  0  0  0  0  0
   13.9801   15.0494   20.4878 C   0  0  0  0  0  0  0  0  0  0  0  0
    7.6766   13.0765   25.4003 C   0  0  0  0  0  0  0  0  0  0  0  0
    6.3544   12.7915   25.6986 C   0  0  0  0  0  0  0  0  0  0  0  0
    6.5132   10.6704   24.8237 C   0  0  0  0  0  0  0  0  0  0  0  0
    8.4244   12.0780   24.7800 C   0  0  0  0  0  0  0  0  0  0  0  0
    7.8471   10.8433   24.4780 C   0  0  0  0  0  0  0  0  0  0  0  0
   12.6669   15.2227   20.9252 C   0  0  0  0  0  0  0  0  0  0  0  0
    9.7929   10.0347   23.5604 C   0  0  0  0  0  0  0  0  0  0  0  0
    9.8445   12.3026   24.4278 C   0  0  0  0  0  0  0  0  0  0  0  0
   12.0332   11.5418   21.9146 C   0  0  0  0  0  0  0  0  0  0  0  0
   11.8666   11.3043   23.4112 C   0  0  0  0  0  0  0  0  0  0  0  0
   11.3549   12.8233   21.4498 C   0  0  0  0  0  0  0  0  0  0  0  0
    5.7518   11.6128   25.4262 N   0  0  0  0  0  0  0  0  0  0  0  0
    8.5553    9.8053   23.8548 N   0  0  0  0  0  0  0  0  0  0  0  0
   10.4704   11.2156   23.8098 N   0  0  0  0  0  0  0  0  0  0  0  0
   10.3732   13.3792   24.6866 O   0  0  0  0  0  0  0  0  0  0  0  0
   13.1825   13.8178   23.0453 O   0  0  0  0  0  0  0  0  0  0  0  0
   10.9479   14.9680   22.8740 O   0  0  0  0  0  0  0  0  0  0  0  0
   12.0398   14.2382   22.2531 S   0  0  0  0  0  0  0  0  0  0  0  0
   14.0439   17.3867   18.0193 H   0  0  0  0  0  0  0  0  0  0  0  0
   11.7075   17.6953   18.7978 H   0  0  0  0  0  0  0  0  0  0  0  0
   15.4978   15.6940   19.1016 H   0  0  0  0  0  0  0  0  0  0  0  0
   10.8248   16.3186   20.6501 H   0  0  0  0  0  0  0  0  0  0  0  0
   14.6263   14.3117   20.9555 H   0  0  0  0  0  0  0  0  0  0  0  0
    8.0944   14.0458   25.6480 H   0  0  0  0  0  0  0  0  0  0  0  0
    5.7236   13.5308   26.1813 H   0  0  0  0  0  0  0  0  0  0  0  0
    5.9983    9.7363   24.6194 H   0  0  0  0  0  0  0  0  0  0  0  0
   10.4025    9.2593   23.0696 H   0  0  0  0  0  0  0  0  0  0  0  0
   11.6056   10.6894   21.3725 H   0  0  0  0  0  0  0  0  0  0  0  0
   13.0992   11.5742   21.6566 H   0  0  0  0  0  0  0  0  0  0  0  0
   12.3622   10.3785   23.7203 H   0  0  0  0  0  0  0  0  0  0  0  0
   12.3071   12.1328   23.9745 H   0  0  0  0  0  0  0  0  0  0  0  0
   11.4860   12.9750   20.3742 H   0  0  0  0  0  0  0  0  0  0  0  0
   10.2851   12.8203   21.6782 H   0  0  0  0  0  0  0  0  0  0  0  0
  1  2  2  0  0  0  0
  1  3  1  0  0  0  0
  2  4  1  0  0  0  0
  3  5  2  0  0  0  0
  4 11  2  0  0  0  0
  5 11  1  0  0  0  0
  6  7  1  0  0  0  0
  6  9  2  0  0  0  0
  7 17  2  0  0  0  0
  8 10  2  0  0  0  0
  8 17  1  0  0  0  0
  9 10  1  0  0  0  0
  9 13  1  0  0  0  0
 10 18  1  0  0  0  0
 11 23  1  0  0  0  0
 12 18  2  0  0  0  0
 12 19  1  0  0  0  0
 13 19  1  0  0  0  0
 13 20  2  0  0  0  0
 14 15  1  0  0  0  0
 14 16  1  0  0  0  0
 15 19  1  0  0  0  0
 16 23  1  0  0  0  0
 21 23  2  0  0  0  0
 22 23  2  0  0  0  0
  1 24  1  0  0  0  0
  2 25  1  0  0  0  0
  3 26  1  0  0  0  0
  4 27  1  0  0  0  0
  5 28  1  0  0  0  0
  6 29  1  0  0  0  0
  7 30  1  0  0  0  0
  8 31  1  0  0  0  0
 12 32  1  0  0  0  0
 14 33  1  0  0  0  0
 14 34  1  0  0  0  0
 15 35  1  0  0  0  0
 15 36  1  0  0  0  0
 16 37  1  0  0  0  0
 16 38  1  0  0  0  0
M  END
> <Catalog ID>
Z1778720749

> <PlateID>
1041831-R-09

> <Well>
B11

> <MW (desalted)>
329.374

> <ClogP>
0.534

> <HBD>
0

> <TPSA>
79.700

> <RotBonds>
5

> <ROCS_ShapeQuery>
A71EV2A-x0451_0A_A71EV2A-x0310_0A_A71EV2A-x0416_0A_peptide

> <ROCS_TanimotoCombo>
0.519 

> <ROCS_ShapeTanimoto>
0.335 

> <ROCS_ColorTanimoto>
0.184 

> <ROCS_RefTversky>
0.300 

> <ROCS_RefColorTversky>
0.202 

> <ROCS_RefTverskyCombo>
0.501 

> <ROCS_FitTversky>
1.555 

> <ROCS_FitColorTversky>
0.670 

> <ROCS_FitTverskyCombo>
2.225 

> <ROCS_ColorScore>
-6.162

> <ROCS_Overlap>
2081.127

> <ROCS_Rank>
362                 

$$$$
untitled-dbase-241_9235
  -OEChem-11132311063D

 45 47  0     1  0  0  0  0  0999 V2000
   14.3762   16.6912   19.9721 C   0  0  0  0  0  0  0  0  0  0  0  0
   14.2354   16.1750   18.6840 C   0  0  0  0  0  0  0  0  0  0  0  0
   13.4337   16.3840   20.9535 C   0  0  0  0  0  0  0  0  0  0  0  0
   13.1521   15.3517   18.3772 C   0  0  0  0  0  0  0  0  0  0  0  0
   12.3504   15.5607   20.6467 C   0  0  0  0  0  0  0  0  0  0  0  0
   12.2096   15.0445   19.3585 C   0  0  0  0  0  0  0  0  0  0  0  0
    7.0038   10.4241   25.9516 C   0  0  0  0  0  0  0  0  0  0  0  0
   10.8800   13.2832   23.1866 C   0  0  0  0  0  0  0  0  0  0  0  0
    9.0575    9.6861   24.6167 C   0  0  0  0  0  0  0  0  0  0  0  0
    9.3144    9.9030   23.1221 C   0  0  0  0  0  0  0  0  0  0  0  0
    6.9184   12.6738   25.2330 C   0  0  0  0  0  0  0  0  0  0  0  0
    8.4660   12.1835   23.2319 C   0  0  0  0  0  0  0  0  0  0  0  0
    8.2183   12.0456   24.7350 C   0  0  2  0  0  0  0  0  0  0  0  0
    9.9768   14.8766   18.5571 C   0  0  0  0  0  0  0  0  0  0  0  0
   11.3456   15.2410   21.7155 C   0  0  0  0  0  0  0  0  0  0  0  0
   10.8679   11.7765   23.1454 C   0  0  0  0  0  0  0  0  0  0  0  0
    6.3305   11.6534   26.0723 N   0  0  0  0  0  0  0  0  0  0  0  0
    8.0889   10.6496   25.0981 N   0  0  0  0  0  0  0  0  0  0  0  0
    9.5452   11.3079   22.7379 N   0  0  1  0  0  0  0  0  0  0  0  0
   11.2523   13.8201   21.9625 N   0  0  0  0  0  0  0  0  0  0  0  0
    6.6822    9.3714   26.4856 O   0  0  0  0  0  0  0  0  0  0  0  0
   10.5909   13.9342   24.1872 O   0  0  0  0  0  0  0  0  0  0  0  0
   11.1569   14.2394   19.0421 O   0  0  0  0  0  0  0  0  0  0  0  0
   15.2194   17.3330   20.2115 H   0  0  0  0  0  0  0  0  0  0  0  0
   14.9689   16.4152   17.9201 H   0  0  0  0  0  0  0  0  0  0  0  0
   13.5516   16.7925   21.9537 H   0  0  0  0  0  0  0  0  0  0  0  0
   13.0477   14.9526   17.3719 H   0  0  0  0  0  0  0  0  0  0  0  0
    8.6987    8.6717   24.8148 H   0  0  0  0  0  0  0  0  0  0  0  0
    9.9785    9.8402   25.1896 H   0  0  0  0  0  0  0  0  0  0  0  0
   10.1944    9.2923   22.8362 H   0  0  0  0  0  0  0  0  0  0  0  0
    8.4615    9.4853   22.5462 H   0  0  0  0  0  0  0  0  0  0  0  0
    7.0921   13.5675   25.8381 H   0  0  0  0  0  0  0  0  0  0  0  0
    6.2097   12.9010   24.4315 H   0  0  0  0  0  0  0  0  0  0  0  0
    7.5267   11.9849   22.6710 H   0  0  0  0  0  0  0  0  0  0  0  0
    8.7196   13.2427   23.0191 H   0  0  0  0  0  0  0  0  0  0  0  0
    9.0693   12.4444   25.3001 H   0  0  0  0  0  0  0  0  0  0  0  0
    9.2161   14.1219   18.3430 H   0  0  0  0  0  0  0  0  0  0  0  0
   10.2120   15.4397   17.6504 H   0  0  0  0  0  0  0  0  0  0  0  0
    9.6025   15.5611   19.3220 H   0  0  0  0  0  0  0  0  0  0  0  0
   11.6154   15.7302   22.6578 H   0  0  0  0  0  0  0  0  0  0  0  0
   10.3486   15.5986   21.4372 H   0  0  0  0  0  0  0  0  0  0  0  0
   11.6128   11.4216   22.4271 H   0  0  0  0  0  0  0  0  0  0  0  0
   11.1011   11.3764   24.1365 H   0  0  0  0  0  0  0  0  0  0  0  0
    5.4913   11.7842   26.6281 H   0  0  0  0  0  0  0  0  0  0  0  0
   11.4700   13.1827   21.2021 H   0  0  0  0  0  0  0  0  0  0  0  0
  1  2  2  0  0  0  0
  1  3  1  0  0  0  0
  2  4  1  0  0  0  0
  3  5  2  0  0  0  0
  4  6  2  0  0  0  0
  5  6  1  0  0  0  0
  5 15  1  0  0  0  0
  6 23  1  0  0  0  0
  7 17  1  0  0  0  0
  7 18  1  0  0  0  0
  7 21  2  0  0  0  0
  8 16  1  0  0  0  0
  8 20  1  0  0  0  0
  8 22  2  0  0  0  0
  9 10  1  0  0  0  0
  9 18  1  0  0  0  0
 10 19  1  0  0  0  0
 11 13  1  0  0  0  0
 11 17  1  0  0  0  0
 12 13  1  0  0  0  0
 12 19  1  0  0  0  0
 13 18  1  0  0  0  0
 14 23  1  0  0  0  0
 15 20  1  0  0  0  0
 16 19  1  0  0  0  0
  1 24  1  0  0  0  0
  2 25  1  0  0  0  0
  3 26  1  0  0  0  0
  4 27  1  0  0  0  0
  9 28  1  0  0  0  0
  9 29  1  0  0  0  0
 10 30  1  0  0  0  0
 10 31  1  0  0  0  0
 11 32  1  0  0  0  0
 11 33  1  0  0  0  0
 12 34  1  0  0  0  0
 12 35  1  0  0  0  0
 13 36  1  0  0  0  0
 14 37  1  0  0  0  0
 14 38  1  0  0  0  0
 14 39  1  0  0  0  0
 15 40  1  0  0  0  0
 15 41  1  0  0  0  0
 16 42  1  0  0  0  0
 16 43  1  0  0  0  0
 17 44  1  0  0  0  0
 20 45  1  0  0  0  0
M  END
> <Catalog ID>
Z1354822190

> <PlateID>
1041831-R-04

> <Well>
A02

> <MW (desalted)>
318.371

> <ClogP>
0.614

> <HBD>
2

> <TPSA>
73.910

> <RotBonds>
5

> <ROCS_ShapeQuery>
A71EV2A-x0451_0A_A71EV2A-x0310_0A_A71EV2A-x0416_0A_peptide

> <ROCS_TanimotoCombo>
0.519 

> <ROCS_ShapeTanimoto>
0.341 

> <ROCS_ColorTanimoto>
0.178 

> <ROCS_RefTversky>
0.304 

> <ROCS_RefColorTversky>
0.201 

> <ROCS_RefTverskyCombo>
0.505 

> <ROCS_FitTversky>
1.568 

> <ROCS_FitColorTversky>
0.606 

> <ROCS_FitTverskyCombo>
2.174 

> <ROCS_ColorScore>
-6.148

> <ROCS_Overlap>
2109.656

> <ROCS_Rank>
363                 

$$$$
untitled-dbase-1307_562
  -OEChem-11132311063D

 52 55  0     1  0  0  0  0  0999 V2000
    7.0913   10.4774   24.9675 C   0  0  0  0  0  0  0  0  0  0  0  0
    8.0399    9.6638   24.3480 C   0  0  0  0  0  0  0  0  0  0  0  0
    8.2845   12.4397   24.2173 C   0  0  0  0  0  0  0  0  0  0  0  0
    7.2135   11.8654   24.9021 C   0  0  0  0  0  0  0  0  0  0  0  0
    9.2331   11.6261   23.5979 C   0  0  0  0  0  0  0  0  0  0  0  0
    9.1108   10.2381   23.6633 C   0  0  0  0  0  0  0  0  0  0  0  0
    6.2137   12.7215   25.5543 C   0  0  0  0  0  0  0  0  0  0  0  0
   10.9242   13.4404   23.1823 C   0  0  0  0  0  0  0  0  0  0  0  0
   13.5181   15.2350   20.2139 C   0  0  0  0  0  0  0  0  0  0  0  0
   13.9948   15.1670   21.6736 C   0  0  0  0  0  0  0  0  0  0  0  0
   11.5163   13.8297   20.7737 C   0  0  0  0  0  0  0  0  0  0  0  0
   11.7846   16.0325   21.6338 C   0  0  0  0  0  0  0  0  0  0  0  0
    6.1510   11.3024   27.6711 C   0  0  0  0  0  0  0  0  0  0  0  0
    4.1793   12.5912   26.9535 C   0  0  0  0  0  0  0  0  0  0  0  0
    5.8853   11.7939   29.0891 C   0  0  0  0  0  0  0  0  0  0  0  0
    4.0049   13.0361   28.3983 C   0  0  0  0  0  0  0  0  0  0  0  0
   12.0357   13.7176   22.2170 C   0  0  1  0  0  0  0  0  0  0  0  0
   11.9846   15.2344   20.3482 C   0  0  1  0  0  0  0  0  0  0  0  0
   12.6748   15.1006   22.4619 C   0  0  1  0  0  0  0  0  0  0  0  0
    9.7761    9.0491   21.7141 C   0  0  0  0  0  0  0  0  0  0  0  0
    5.5731   12.2336   26.6945 N   0  0  0  0  0  0  0  0  0  0  0  0
   10.3141   12.2233   22.9069 N   0  0  0  0  0  0  0  0  0  0  0  0
    6.0114   13.8174   25.0334 O   0  0  0  0  0  0  0  0  0  0  0  0
   10.6543   14.2373   24.0751 O   0  0  0  0  0  0  0  0  0  0  0  0
    4.4882   12.0245   29.2863 O   0  0  0  0  0  0  0  0  0  0  0  0
   10.0276    9.4250   23.0663 O   0  0  0  0  0  0  0  0  0  0  0  0
    6.2607   10.0196   25.4988 H   0  0  0  0  0  0  0  0  0  0  0  0
    7.9376    8.5832   24.4023 H   0  0  0  0  0  0  0  0  0  0  0  0
    8.3788   13.5226   24.1670 H   0  0  0  0  0  0  0  0  0  0  0  0
   13.8691   16.1618   19.7466 H   0  0  0  0  0  0  0  0  0  0  0  0
   13.8874   14.3922   19.6211 H   0  0  0  0  0  0  0  0  0  0  0  0
   14.6418   14.3035   21.8567 H   0  0  0  0  0  0  0  0  0  0  0  0
   14.5558   16.0731   21.9294 H   0  0  0  0  0  0  0  0  0  0  0  0
   11.9373   13.0499   20.1300 H   0  0  0  0  0  0  0  0  0  0  0  0
   10.4234   13.7565   20.7254 H   0  0  0  0  0  0  0  0  0  0  0  0
   12.1715   17.0554   21.5720 H   0  0  0  0  0  0  0  0  0  0  0  0
   10.7427   16.0577   21.9679 H   0  0  0  0  0  0  0  0  0  0  0  0
    7.2234   11.1618   27.5166 H   0  0  0  0  0  0  0  0  0  0  0  0
    5.6547   10.3383   27.5083 H   0  0  0  0  0  0  0  0  0  0  0  0
    3.5868   11.6891   26.7602 H   0  0  0  0  0  0  0  0  0  0  0  0
    3.8416   13.3730   26.2664 H   0  0  0  0  0  0  0  0  0  0  0  0
    6.2000   11.0335   29.8109 H   0  0  0  0  0  0  0  0  0  0  0  0
    6.4451   12.7110   29.3075 H   0  0  0  0  0  0  0  0  0  0  0  0
    4.5247   13.9812   28.5955 H   0  0  0  0  0  0  0  0  0  0  0  0
    2.9430   13.1886   28.6153 H   0  0  0  0  0  0  0  0  0  0  0  0
   12.7639   12.9049   22.3155 H   0  0  0  0  0  0  0  0  0  0  0  0
   11.4676   15.6190   19.4669 H   0  0  0  0  0  0  0  0  0  0  0  0
   12.7747   15.3762   23.5143 H   0  0  0  0  0  0  0  0  0  0  0  0
   10.5817    8.4017   21.3592 H   0  0  0  0  0  0  0  0  0  0  0  0
    9.7133    9.9451   21.0915 H   0  0  0  0  0  0  0  0  0  0  0  0
    8.8285    8.5074   21.6661 H   0  0  0  0  0  0  0  0  0  0  0  0
   10.6772   11.6888   22.1204 H   0  0  0  0  0  0  0  0  0  0  0  0
  1  2  1  0  0  0  0
  1  4  2  0  0  0  0
  2  6  2  0  0  0  0
  3  4  1  0  0  0  0
  3  5  2  0  0  0  0
  4  7  1  0  0  0  0
  5  6  1  0  0  0  0
  5 22  1  0  0  0  0
  6 26  1  0  0  0  0
  7 21  1  0  0  0  0
  7 23  2  0  0  0  0
  8 17  1  0  0  0  0
  8 22  1  0  0  0  0
  8 24  2  0  0  0  0
  9 10  1  0  0  0  0
  9 18  1  0  0  0  0
 10 19  1  0  0  0  0
 11 17  1  0  0  0  0
 11 18  1  0  0  0  0
 12 18  1  0  0  0  0
 12 19  1  0  0  0  0
 13 15  1  0  0  0  0
 13 21  1  0  0  0  0
 14 16  1  0  0  0  0
 14 21  1  0  0  0  0
 15 25  1  0  0  0  0
 16 25  1  0  0  0  0
 17 19  1  0  0  0  0
 20 26  1  0  0  0  0
  1 27  1  0  0  0  0
  2 28  1  0  0  0  0
  3 29  1  0  0  0  0
  9 30  1  0  0  0  0
  9 31  1  0  0  0  0
 10 32  1  0  0  0  0
 10 33  1  0  0  0  0
 11 34  1  0  0  0  0
 11 35  1  0  0  0  0
 12 36  1  0  0  0  0
 12 37  1  0  0  0  0
 13 38  1  0  0  0  0
 13 39  1  0  0  0  0
 14 40  1  0  0  0  0
 14 41  1  0  0  0  0
 15 42  1  0  0  0  0
 15 43  1  0  0  0  0
 16 44  1  0  0  0  0
 16 45  1  0  0  0  0
 17 46  1  0  0  0  0
 18 47  1  0  0  0  0
 19 48  1  0  0  0  0
 20 49  1  0  0  0  0
 20 50  1  0  0  0  0
 20 51  1  0  0  0  0
 22 52  1  0  0  0  0
M  END
> <Catalog ID>
Z913731318

> <PlateID>
1041831-R-17

> <Well>
C08

> <MW (desalted)>
358.431

> <ClogP>
2.040

> <HBD>
1

> <TPSA>
67.870

> <RotBonds>
4

> <ROCS_ShapeQuery>
A71EV2A-x0451_0A_A71EV2A-x0310_0A_A71EV2A-x0416_0A_peptide

> <ROCS_TanimotoCombo>
0.519 

> <ROCS_ShapeTanimoto>
0.388 

> <ROCS_ColorTanimoto>
0.131 

> <ROCS_RefTversky>
0.339 

> <ROCS_RefColorTversky>
0.170 

> <ROCS_RefTverskyCombo>
0.509 

> <ROCS_FitTversky>
1.586 

> <ROCS_FitColorTversky>
0.367 

> <ROCS_FitTverskyCombo>
1.954 

> <ROCS_ColorScore>
-5.230

> <ROCS_Overlap>
2357.751

> <ROCS_Rank>
364                 

$$$$
untitled-dbase-439_83
  -OEChem-11132311063D

 41 44  0     1  0  0  0  0  0999 V2000
    9.9656   11.0115   23.0459 C   0  0  0  0  0  0  0  0  0  0  0  0
    8.4972   12.2117   24.5249 C   0  0  0  0  0  0  0  0  0  0  0  0
    9.1342    9.9137   23.1987 C   0  0  0  0  0  0  0  0  0  0  0  0
    4.8736   10.4916   26.3748 C   0  0  0  0  0  0  0  0  0  0  0  0
    6.1319   12.1394   26.1337 C   0  0  0  0  0  0  0  0  0  0  0  0
    9.6340   12.1785   23.7251 C   0  0  0  0  0  0  0  0  0  0  0  0
    7.7313   11.0603   24.6113 C   0  0  0  0  0  0  0  0  0  0  0  0
   10.4911   13.3851   23.5960 C   0  0  0  0  0  0  0  0  0  0  0  0
   13.3087   15.6755   18.0233 C   0  0  0  0  0  0  0  0  0  0  0  0
   13.9467   16.3607   19.2313 C   0  0  0  0  0  0  0  0  0  0  0  0
   11.8696   15.2542   18.3187 C   0  0  0  0  0  0  0  0  0  0  0  0
   13.8722   15.4794   20.4768 C   0  0  0  0  0  0  0  0  0  0  0  0
   11.7871   14.3713   19.5636 C   0  0  0  0  0  0  0  0  0  0  0  0
   11.5897   15.9135   21.6418 C   0  0  0  0  0  0  0  0  0  0  0  0
   12.1063   14.5950   22.1524 C   0  0  2  0  0  0  0  0  0  0  0  0
   12.4462   15.0500   20.7456 C   0  0  0  0  0  0  0  0  0  0  0  0
    8.0216    9.9080   23.9666 N   0  0  0  0  0  0  0  0  0  0  0  0
    5.0336   11.7910   26.7628 N   0  0  0  0  0  0  0  0  0  0  0  0
    5.8038   10.0141   25.5453 N   0  0  0  0  0  0  0  0  0  0  0  0
    6.5965   11.0877   25.4072 N   0  0  0  0  0  0  0  0  0  0  0  0
   11.2261   13.5112   22.4117 N   0  0  0  0  0  0  0  0  0  0  0  0
   10.5339   14.1924   24.5207 O   0  0  0  0  0  0  0  0  0  0  0  0
   10.8455   10.9519   22.4135 H   0  0  0  0  0  0  0  0  0  0  0  0
    8.2235   13.1153   25.0622 H   0  0  0  0  0  0  0  0  0  0  0  0
    9.3491    8.9793   22.6904 H   0  0  0  0  0  0  0  0  0  0  0  0
    4.0522    9.8737   26.7056 H   0  0  0  0  0  0  0  0  0  0  0  0
    6.6118   13.1081   26.1690 H   0  0  0  0  0  0  0  0  0  0  0  0
   13.3212   16.3592   17.1662 H   0  0  0  0  0  0  0  0  0  0  0  0
   13.8997   14.7969   17.7431 H   0  0  0  0  0  0  0  0  0  0  0  0
   14.9963   16.5865   19.0045 H   0  0  0  0  0  0  0  0  0  0  0  0
   13.4449   17.3157   19.4228 H   0  0  0  0  0  0  0  0  0  0  0  0
   11.2440   16.1441   18.4548 H   0  0  0  0  0  0  0  0  0  0  0  0
   11.4697   14.7088   17.4542 H   0  0  0  0  0  0  0  0  0  0  0  0
   14.5317   14.6113   20.3469 H   0  0  0  0  0  0  0  0  0  0  0  0
   14.2495   16.0338   21.3467 H   0  0  0  0  0  0  0  0  0  0  0  0
   10.7343   14.1775   19.8072 H   0  0  0  0  0  0  0  0  0  0  0  0
   12.2414   13.3961   19.3505 H   0  0  0  0  0  0  0  0  0  0  0  0
   10.5327   15.9993   21.4187 H   0  0  0  0  0  0  0  0  0  0  0  0
   12.0219   16.8165   22.0564 H   0  0  0  0  0  0  0  0  0  0  0  0
   12.8974   14.6446   22.8937 H   0  0  0  0  0  0  0  0  0  0  0  0
   11.1722   12.7522   21.7227 H   0  0  0  0  0  0  0  0  0  0  0  0
  1  3  1  0  0  0  0
  1  6  2  0  0  0  0
  2  6  1  0  0  0  0
  2  7  2  0  0  0  0
  3 17  2  0  0  0  0
  4 18  1  0  0  0  0
  4 19  2  0  0  0  0
  5 18  2  0  0  0  0
  5 20  1  0  0  0  0
  6  8  1  0  0  0  0
  7 17  1  0  0  0  0
  7 20  1  0  0  0  0
  8 21  1  0  0  0  0
  8 22  2  0  0  0  0
  9 10  1  0  0  0  0
  9 11  1  0  0  0  0
 10 12  1  0  0  0  0
 11 13  1  0  0  0  0
 12 16  1  0  0  0  0
 13 16  1  0  0  0  0
 14 15  1  0  0  0  0
 14 16  1  0  0  0  0
 15 16  1  0  0  0  0
 15 21  1  0  0  0  0
 19 20  1  0  0  0  0
  1 23  1  0  0  0  0
  2 24  1  0  0  0  0
  3 25  1  0  0  0  0
  4 26  1  0  0  0  0
  5 27  1  0  0  0  0
  9 28  1  0  0  0  0
  9 29  1  0  0  0  0
 10 30  1  0  0  0  0
 10 31  1  0  0  0  0
 11 32  1  0  0  0  0
 11 33  1  0  0  0  0
 12 34  1  0  0  0  0
 12 35  1  0  0  0  0
 13 36  1  0  0  0  0
 13 37  1  0  0  0  0
 14 38  1  0  0  0  0
 14 39  1  0  0  0  0
 15 40  1  0  0  0  0
 21 41  1  0  0  0  0
M  END
> <Catalog ID>
Z1576129331

> <PlateID>
1041831-R-06

> <Well>
D10

> <MW (desalted)>
297.355

> <ClogP>
1.730

> <HBD>
1

> <TPSA>
72.700

> <RotBonds>
3

> <ROCS_ShapeQuery>
A71EV2A-x0451_0A_A71EV2A-x0310_0A_A71EV2A-x0416_0A_peptide

> <ROCS_TanimotoCombo>
0.519 

> <ROCS_ShapeTanimoto>
0.341 

> <ROCS_ColorTanimoto>
0.178 

> <ROCS_RefTversky>
0.303 

> <ROCS_RefColorTversky>
0.196 

> <ROCS_RefTverskyCombo>
0.499 

> <ROCS_FitTversky>
1.589 

> <ROCS_FitColorTversky>
0.652 

> <ROCS_FitTverskyCombo>
2.241 

> <ROCS_ColorScore>
-5.993

> <ROCS_Overlap>
2103.723

> <ROCS_Rank>
365                 

$$$$
untitled-dbase-2242_365
  -OEChem-11132311063D

 41 43  0     1  0  0  0  0  0999 V2000
   11.8098   15.5390   18.7209 C   0  0  0  0  0  0  0  0  0  0  0  0
   11.6916   15.4100   20.1047 C   0  0  0  0  0  0  0  0  0  0  0  0
   13.0410   15.8678   18.1537 C   0  0  0  0  0  0  0  0  0  0  0  0
   14.0358   15.9388   20.3543 C   0  0  0  0  0  0  0  0  0  0  0  0
   12.8046   15.6100   20.9214 C   0  0  0  0  0  0  0  0  0  0  0  0
   14.1540   16.0678   18.9704 C   0  0  0  0  0  0  0  0  0  0  0  0
   10.6782   13.1516   23.6187 C   0  0  0  0  0  0  0  0  0  0  0  0
    7.5929   10.1335   23.4976 C   0  0  0  0  0  0  0  0  0  0  0  0
    7.1923   11.5808   23.7933 C   0  0  0  0  0  0  0  0  0  0  0  0
    9.9371   10.8671   22.9397 C   0  0  0  0  0  0  0  0  0  0  0  0
    9.5121   12.3181   23.1845 C   0  0  1  0  0  0  0  0  0  0  0  0
    9.0574   10.1094   23.9350 C   0  0  1  0  0  0  0  0  0  0  0  0
    8.4986   12.1693   24.3236 C   0  0  2  0  0  0  0  0  0  0  0  0
   11.3132   17.3317   22.8747 C   0  0  0  0  0  0  0  0  0  0  0  0
   12.8850   14.0253   22.8776 C   0  0  0  0  0  0  0  0  0  0  0  0
   12.6754   15.4712   22.4210 C   0  0  2  0  0  0  0  0  0  0  0  0
   11.6735   13.2657   22.6669 N   0  0  0  0  0  0  0  0  0  0  0  0
   10.6772   13.6570   24.7350 O   0  0  0  0  0  0  0  0  0  0  0  0
    9.0338   11.0321   25.0466 O   0  0  0  0  0  0  0  0  0  0  0  0
   11.3739   15.9160   22.8045 O   0  0  0  0  0  0  0  0  0  0  0  0
   15.6725   16.4746   18.2701 Cl  0  0  0  0  0  0  0  0  0  0  0  0
   10.9429   15.3833   18.0853 H   0  0  0  0  0  0  0  0  0  0  0  0
   10.7284   15.1536   20.5380 H   0  0  0  0  0  0  0  0  0  0  0  0
   13.1183   15.9653   17.0736 H   0  0  0  0  0  0  0  0  0  0  0  0
   14.9007   16.0932   20.9953 H   0  0  0  0  0  0  0  0  0  0  0  0
    6.9939    9.4557   24.1161 H   0  0  0  0  0  0  0  0  0  0  0  0
    7.4552    9.8558   22.4485 H   0  0  0  0  0  0  0  0  0  0  0  0
    6.8074   12.1080   22.9155 H   0  0  0  0  0  0  0  0  0  0  0  0
    6.4204   11.5938   24.5711 H   0  0  0  0  0  0  0  0  0  0  0  0
    9.7639   10.5456   21.9079 H   0  0  0  0  0  0  0  0  0  0  0  0
   10.9971   10.7145   23.1734 H   0  0  0  0  0  0  0  0  0  0  0  0
    9.0800   12.7853   22.2938 H   0  0  0  0  0  0  0  0  0  0  0  0
    9.4332    9.1231   24.2156 H   0  0  0  0  0  0  0  0  0  0  0  0
    8.3789   13.0419   24.9703 H   0  0  0  0  0  0  0  0  0  0  0  0
   10.3072   17.6399   23.1698 H   0  0  0  0  0  0  0  0  0  0  0  0
   11.5648   17.7568   21.8997 H   0  0  0  0  0  0  0  0  0  0  0  0
   12.0322   17.6819   23.6191 H   0  0  0  0  0  0  0  0  0  0  0  0
   13.1403   13.9854   23.9422 H   0  0  0  0  0  0  0  0  0  0  0  0
   13.6954   13.5471   22.3165 H   0  0  0  0  0  0  0  0  0  0  0  0
   13.3950   16.1344   22.9169 H   0  0  0  0  0  0  0  0  0  0  0  0
   11.5477   12.7933   21.7768 H   0  0  0  0  0  0  0  0  0  0  0  0
  1  2  1  0  0  0  0
  1  3  2  0  0  0  0
  2  5  2  0  0  0  0
  3  6  1  0  0  0  0
  4  5  1  0  0  0  0
  4  6  2  0  0  0  0
  5 16  1  0  0  0  0
  6 21  1  0  0  0  0
  7 11  1  0  0  0  0
  7 17  1  0  0  0  0
  7 18  2  0  0  0  0
  8  9  1  0  0  0  0
  8 12  1  0  0  0  0
  9 13  1  0  0  0  0
 10 11  1  0  0  0  0
 10 12  1  0  0  0  0
 11 13  1  0  0  0  0
 12 19  1  0  0  0  0
 13 19  1  0  0  0  0
 14 20  1  0  0  0  0
 15 16  1  0  0  0  0
 15 17  1  0  0  0  0
 16 20  1  0  0  0  0
  1 22  1  0  0  0  0
  2 23  1  0  0  0  0
  3 24  1  0  0  0  0
  4 25  1  0  0  0  0
  8 26  1  0  0  0  0
  8 27  1  0  0  0  0
  9 28  1  0  0  0  0
  9 29  1  0  0  0  0
 10 30  1  0  0  0  0
 10 31  1  0  0  0  0
 11 32  1  0  0  0  0
 12 33  1  0  0  0  0
 13 34  1  0  0  0  0
 14 35  1  0  0  0  0
 14 36  1  0  0  0  0
 14 37  1  0  0  0  0
 15 38  1  0  0  0  0
 15 39  1  0  0  0  0
 16 40  1  0  0  0  0
 17 41  1  0  0  0  0
M  END
> <Catalog ID>
Z1275714567

> <PlateID>
1041831-R-29

> <Well>
A03

> <MW (desalted)>
309.788

> <ClogP>
2.272

> <HBD>
1

> <TPSA>
47.560

> <RotBonds>
5

> <ROCS_ShapeQuery>
A71EV2A-x0451_0A_A71EV2A-x0310_0A_A71EV2A-x0416_0A_peptide

> <ROCS_TanimotoCombo>
0.519 

> <ROCS_ShapeTanimoto>
0.292 

> <ROCS_ColorTanimoto>
0.227 

> <ROCS_RefTversky>
0.266 

> <ROCS_RefColorTversky>
0.260 

> <ROCS_RefTverskyCombo>
0.526 

> <ROCS_FitTversky>
1.479 

> <ROCS_FitColorTversky>
0.644 

> <ROCS_FitTverskyCombo>
2.123 

> <ROCS_ColorScore>
-7.974

> <ROCS_Overlap>
1849.735

> <ROCS_Rank>
366                 

$$$$
untitled-dbase-1184_5703
  -OEChem-11132311063D

 40 41  0     0  0  0  0  0  0999 V2000
   13.0103   15.1828   18.4124 C   0  0  0  0  0  0  0  0  0  0  0  0
   11.9816   15.1710   19.3478 C   0  0  0  0  0  0  0  0  0  0  0  0
    9.1401    9.6386   23.7912 C   0  0  0  0  0  0  0  0  0  0  0  0
   10.1786   10.5499   23.6003 C   0  0  0  0  0  0  0  0  0  0  0  0
    8.7139   12.3562   24.2553 C   0  0  0  0  0  0  0  0  0  0  0  0
   14.1187   15.9708   18.6774 C   0  0  0  0  0  0  0  0  0  0  0  0
   13.2409   16.6908   20.6747 C   0  0  0  0  0  0  0  0  0  0  0  0
    7.6753   11.4448   24.4461 C   0  0  0  0  0  0  0  0  0  0  0  0
   12.0912   15.9367   20.5032 C   0  0  0  0  0  0  0  0  0  0  0  0
    7.8884   10.0860   24.2140 C   0  0  0  0  0  0  0  0  0  0  0  0
    9.9656   11.9087   23.8324 C   0  0  0  0  0  0  0  0  0  0  0  0
    6.3762   11.9326   24.8881 C   0  0  0  0  0  0  0  0  0  0  0  0
    7.1954    7.8124   24.1334 C   0  0  0  0  0  0  0  0  0  0  0  0
   10.9926   15.9447   21.5376 C   0  0  0  0  0  0  0  0  0  0  0  0
   10.2195   14.6294   21.5956 C   0  0  0  0  0  0  0  0  0  0  0  0
   14.2611   16.7278   19.7884 N   0  0  0  0  0  0  0  0  0  0  0  0
    6.2380   13.3004   25.0994 N   0  0  0  0  0  0  0  0  0  0  0  0
   11.0741   13.4881   21.9529 N   0  0  0  0  0  0  0  0  0  0  0  0
    5.4274   11.1553   25.0867 O   0  0  0  0  0  0  0  0  0  0  0  0
   11.0189   14.2225   24.4216 O   0  0  0  0  0  0  0  0  0  0  0  0
   12.5228   12.3265   23.7376 O   0  0  0  0  0  0  0  0  0  0  0  0
    6.8865    9.1798   24.3946 O   0  0  0  0  0  0  0  0  0  0  0  0
   11.2661   13.0491   23.5935 S   0  0  0  0  0  0  0  0  0  0  0  0
   12.9466   14.5937   17.5047 H   0  0  0  0  0  0  0  0  0  0  0  0
   11.0993   14.5627   19.1683 H   0  0  0  0  0  0  0  0  0  0  0  0
    9.3130    8.5814   23.6084 H   0  0  0  0  0  0  0  0  0  0  0  0
   11.1498   10.1904   23.2707 H   0  0  0  0  0  0  0  0  0  0  0  0
    8.5489   13.4159   24.4361 H   0  0  0  0  0  0  0  0  0  0  0  0
   14.9479   16.0147   17.9789 H   0  0  0  0  0  0  0  0  0  0  0  0
   13.3827   17.3079   21.5565 H   0  0  0  0  0  0  0  0  0  0  0  0
    6.3110    7.1970   24.3158 H   0  0  0  0  0  0  0  0  0  0  0  0
    8.0150    7.4928   24.7818 H   0  0  0  0  0  0  0  0  0  0  0  0
    7.4987    7.7098   23.0887 H   0  0  0  0  0  0  0  0  0  0  0  0
   10.2995   16.7625   21.3029 H   0  0  0  0  0  0  0  0  0  0  0  0
   11.4132   16.1793   22.5238 H   0  0  0  0  0  0  0  0  0  0  0  0
    9.4377   14.6897   22.3593 H   0  0  0  0  0  0  0  0  0  0  0  0
    9.7433   14.3981   20.6371 H   0  0  0  0  0  0  0  0  0  0  0  0
    7.0333   13.9099   24.9423 H   0  0  0  0  0  0  0  0  0  0  0  0
    5.3580   13.7013   25.4076 H   0  0  0  0  0  0  0  0  0  0  0  0
   11.8256   13.2628   21.2897 H   0  0  0  0  0  0  0  0  0  0  0  0
  1  2  1  0  0  0  0
  1  6  2  0  0  0  0
  2  9  2  0  0  0  0
  3  4  1  0  0  0  0
  3 10  2  0  0  0  0
  4 11  2  0  0  0  0
  5  8  2  0  0  0  0
  5 11  1  0  0  0  0
  6 16  1  0  0  0  0
  7  9  1  0  0  0  0
  7 16  2  0  0  0  0
  8 10  1  0  0  0  0
  8 12  1  0  0  0  0
  9 14  1  0  0  0  0
 10 22  1  0  0  0  0
 11 23  1  0  0  0  0
 12 17  1  0  0  0  0
 12 19  2  0  0  0  0
 13 22  1  0  0  0  0
 14 15  1  0  0  0  0
 15 18  1  0  0  0  0
 18 23  1  0  0  0  0
 20 23  2  0  0  0  0
 21 23  2  0  0  0  0
  1 24  1  0  0  0  0
  2 25  1  0  0  0  0
  3 26  1  0  0  0  0
  4 27  1  0  0  0  0
  5 28  1  0  0  0  0
  6 29  1  0  0  0  0
  7 30  1  0  0  0  0
 13 31  1  0  0  0  0
 13 32  1  0  0  0  0
 13 33  1  0  0  0  0
 14 34  1  0  0  0  0
 14 35  1  0  0  0  0
 15 36  1  0  0  0  0
 15 37  1  0  0  0  0
 17 38  1  0  0  0  0
 17 39  1  0  0  0  0
 18 40  1  0  0  0  0
M  END
> <Catalog ID>
Z369230324

> <PlateID>
1041831-R-15

> <Well>
G05

> <MW (desalted)>
335.378

> <ClogP>
0.583

> <HBD>
2

> <TPSA>
111.380

> <RotBonds>
6

> <ROCS_ShapeQuery>
A71EV2A-x0451_0A_A71EV2A-x0310_0A_A71EV2A-x0416_0A_peptide

> <ROCS_TanimotoCombo>
0.519 

> <ROCS_ShapeTanimoto>
0.346 

> <ROCS_ColorTanimoto>
0.173 

> <ROCS_RefTversky>
0.306 

> <ROCS_RefColorTversky>
0.196 

> <ROCS_RefTverskyCombo>
0.502 

> <ROCS_FitTversky>
1.614 

> <ROCS_FitColorTversky>
0.591 

> <ROCS_FitTverskyCombo>
2.206 

> <ROCS_ColorScore>
-5.996

> <ROCS_Overlap>
2124.137

> <ROCS_Rank>
367                 

$$$$
untitled-dbase-3450_1069
  -OEChem-11132311063D

 49 51  0     1  0  0  0  0  0999 V2000
    6.3375   10.8559   24.9466 C   0  0  0  0  0  0  0  0  0  0  0  0
    7.4098   10.4416   24.1958 C   0  0  0  0  0  0  0  0  0  0  0  0
    8.4689   11.2988   24.5849 C   0  0  0  0  0  0  0  0  0  0  0  0
   10.4391   13.5882   23.4680 C   0  0  0  0  0  0  0  0  0  0  0  0
    7.5508    9.3430   23.2079 C   0  0  0  0  0  0  0  0  0  0  0  0
    8.8545    9.4838   22.4002 C   0  0  0  0  0  0  0  0  0  0  0  0
    5.4785   11.9850   28.9606 C   0  0  0  0  0  0  0  0  0  0  0  0
    4.1980   12.3805   28.2453 C   0  0  0  0  0  0  0  0  0  0  0  0
   10.0507    9.8752   23.2922 C   0  0  0  0  0  0  0  0  0  0  0  0
    6.5776   12.6206   28.1166 C   0  0  0  0  0  0  0  0  0  0  0  0
    4.5536   12.2133   26.7753 C   0  0  0  0  0  0  0  0  0  0  0  0
    9.8446   11.2293   24.0147 C   0  0  1  0  0  0  0  0  0  0  0  0
    6.0222   12.6602   26.6790 C   0  0  0  0  0  0  0  0  0  0  0  0
    9.1721   14.8178   21.6648 C   0  0  0  0  0  0  0  0  0  0  0  0
   11.5905   14.2050   21.2981 C   0  0  0  0  0  0  0  0  0  0  0  0
   12.3136   15.9021   23.1439 C   0  0  0  0  0  0  0  0  0  0  0  0
   10.5326   14.6060   22.3247 C   0  0  0  0  0  0  0  0  0  0  0  0
    8.0983   12.1821   25.5167 N   0  0  0  0  0  0  0  0  0  0  0  0
    6.7983   11.8907   25.7100 N   0  0  0  0  0  0  0  0  0  0  0  0
   10.0006   12.3355   23.0691 N   0  0  0  0  0  0  0  0  0  0  0  0
   10.7313   13.8802   24.6276 O   0  0  0  0  0  0  0  0  0  0  0  0
   10.9164   15.8542   22.8988 O   0  0  0  0  0  0  0  0  0  0  0  0
    5.3154   10.5083   25.0078 H   0  0  0  0  0  0  0  0  0  0  0  0
    7.5618    8.3867   23.7450 H   0  0  0  0  0  0  0  0  0  0  0  0
    6.6946    9.3247   22.5245 H   0  0  0  0  0  0  0  0  0  0  0  0
    9.0668    8.5397   21.8857 H   0  0  0  0  0  0  0  0  0  0  0  0
    8.7220   10.2465   21.6224 H   0  0  0  0  0  0  0  0  0  0  0  0
    5.5004   12.3297   29.9983 H   0  0  0  0  0  0  0  0  0  0  0  0
    5.5894   10.8940   28.9597 H   0  0  0  0  0  0  0  0  0  0  0  0
    3.3465   11.7601   28.5388 H   0  0  0  0  0  0  0  0  0  0  0  0
    3.9498   13.4268   28.4595 H   0  0  0  0  0  0  0  0  0  0  0  0
   10.1948    9.0887   24.0454 H   0  0  0  0  0  0  0  0  0  0  0  0
   10.9695    9.9020   22.6940 H   0  0  0  0  0  0  0  0  0  0  0  0
    6.7481   13.6476   28.4622 H   0  0  0  0  0  0  0  0  0  0  0  0
    7.5241   12.0785   28.2116 H   0  0  0  0  0  0  0  0  0  0  0  0
    4.4348   11.1629   26.4808 H   0  0  0  0  0  0  0  0  0  0  0  0
    3.9032   12.8129   26.1305 H   0  0  0  0  0  0  0  0  0  0  0  0
   10.6034   11.3629   24.7812 H   0  0  0  0  0  0  0  0  0  0  0  0
    6.0711   13.7142   26.2980 H   0  0  0  0  0  0  0  0  0  0  0  0
    9.2156   15.5417   20.8447 H   0  0  0  0  0  0  0  0  0  0  0  0
    8.4351   15.1698   22.3957 H   0  0  0  0  0  0  0  0  0  0  0  0
    8.7867   13.8744   21.2604 H   0  0  0  0  0  0  0  0  0  0  0  0
   11.6445   14.9423   20.4885 H   0  0  0  0  0  0  0  0  0  0  0  0
   11.3377   13.2455   20.8329 H   0  0  0  0  0  0  0  0  0  0  0  0
   12.5878   14.1211   21.7411 H   0  0  0  0  0  0  0  0  0  0  0  0
   12.5744   16.8684   23.5825 H   0  0  0  0  0  0  0  0  0  0  0  0
   12.8543   15.7582   22.2051 H   0  0  0  0  0  0  0  0  0  0  0  0
   12.5797   15.1043   23.8413 H   0  0  0  0  0  0  0  0  0  0  0  0
    9.7587   12.1667   22.0983 H   0  0  0  0  0  0  0  0  0  0  0  0
  1  2  2  0  0  0  0
  1 19  1  0  0  0  0
  2  3  1  0  0  0  0
  2  5  1  0  0  0  0
  3 12  1  0  0  0  0
  3 18  2  0  0  0  0
  4 17  1  0  0  0  0
  4 20  1  0  0  0  0
  4 21  2  0  0  0  0
  5  6  1  0  0  0  0
  6  9  1  0  0  0  0
  7  8  1  0  0  0  0
  7 10  1  0  0  0  0
  8 11  1  0  0  0  0
  9 12  1  0  0  0  0
 10 13  1  0  0  0  0
 11 13  1  0  0  0  0
 12 20  1  0  0  0  0
 13 19  1  0  0  0  0
 14 17  1  0  0  0  0
 15 17  1  0  0  0  0
 16 22  1  0  0  0  0
 17 22  1  0  0  0  0
 18 19  1  0  0  0  0
  1 23  1  0  0  0  0
  5 24  1  0  0  0  0
  5 25  1  0  0  0  0
  6 26  1  0  0  0  0
  6 27  1  0  0  0  0
  7 28  1  0  0  0  0
  7 29  1  0  0  0  0
  8 30  1  0  0  0  0
  8 31  1  0  0  0  0
  9 32  1  0  0  0  0
  9 33  1  0  0  0  0
 10 34  1  0  0  0  0
 10 35  1  0  0  0  0
 11 36  1  0  0  0  0
 11 37  1  0  0  0  0
 12 38  1  0  0  0  0
 13 39  1  0  0  0  0
 14 40  1  0  0  0  0
 14 41  1  0  0  0  0
 14 42  1  0  0  0  0
 15 43  1  0  0  0  0
 15 44  1  0  0  0  0
 15 45  1  0  0  0  0
 16 46  1  0  0  0  0
 16 47  1  0  0  0  0
 16 48  1  0  0  0  0
 20 49  1  0  0  0  0
M  END
> <Catalog ID>
Z1629680925

> <PlateID>
1041831-R-44

> <Well>
A11

> <MW (desalted)>
305.415

> <ClogP>
1.929

> <HBD>
1

> <TPSA>
56.150

> <RotBonds>
4

> <ROCS_ShapeQuery>
A71EV2A-x0451_0A_A71EV2A-x0310_0A_A71EV2A-x0416_0A_peptide

> <ROCS_TanimotoCombo>
0.519 

> <ROCS_ShapeTanimoto>
0.345 

> <ROCS_ColorTanimoto>
0.174 

> <ROCS_RefTversky>
0.304 

> <ROCS_RefColorTversky>
0.193 

> <ROCS_RefTverskyCombo>
0.497 

> <ROCS_FitTversky>
1.632 

> <ROCS_FitColorTversky>
0.640 

> <ROCS_FitTverskyCombo>
2.272 

> <ROCS_ColorScore>
-5.890

> <ROCS_Overlap>
2111.854

> <ROCS_Rank>
368                 

$$$$
untitled-dbase-1718_3183
  -OEChem-11132311063D

 44 47  0     1  0  0  0  0  0999 V2000
    9.3155    9.9742   22.3846 C   0  0  0  0  0  0  0  0  0  0  0  0
    7.3193   12.8045   26.0183 C   0  0  0  0  0  0  0  0  0  0  0  0
   12.8552   15.9084   18.2336 C   0  0  0  0  0  0  0  0  0  0  0  0
   16.0941   13.1914   24.0617 C   0  0  0  0  0  0  0  0  0  0  0  0
    8.2634   13.0475   25.0311 C   0  0  0  0  0  0  0  0  0  0  0  0
   12.4125   14.7094   18.7808 C   0  0  0  0  0  0  0  0  0  0  0  0
    8.3683    9.7617   23.3893 C   0  0  0  0  0  0  0  0  0  0  0  0
    9.9221   11.2172   22.2531 C   0  0  0  0  0  0  0  0  0  0  0  0
   15.2936   12.3474   23.2554 C   0  0  0  0  0  0  0  0  0  0  0  0
   13.3906   16.8548   19.0924 C   0  0  0  0  0  0  0  0  0  0  0  0
    6.7677   11.5407   26.0764 C   0  0  0  0  0  0  0  0  0  0  0  0
   13.0678   15.5058   20.9239 C   0  0  0  0  0  0  0  0  0  0  0  0
   15.2234   14.0269   24.7219 C   0  0  0  0  0  0  0  0  0  0  0  0
    8.6268   12.0308   24.1377 C   0  0  0  0  0  0  0  0  0  0  0  0
   12.5171   14.4963   20.1509 C   0  0  0  0  0  0  0  0  0  0  0  0
    8.0070   10.7713   24.2772 C   0  0  0  0  0  0  0  0  0  0  0  0
    9.5796   12.2448   23.1272 C   0  0  0  0  0  0  0  0  0  0  0  0
   13.9909   12.7270   23.4807 C   0  0  0  0  0  0  0  0  0  0  0  0
   12.0487   13.2122   20.7719 C   0  0  0  0  0  0  0  0  0  0  0  0
   12.6735   12.2432   22.9471 C   0  0  0  0  0  0  0  0  0  0  0  0
   13.5087   16.6838   20.4282 N   0  0  0  0  0  0  0  0  0  0  0  0
    7.0904   10.5325   25.2342 N   0  0  0  0  0  0  0  0  0  0  0  0
   11.9277   13.3205   22.2480 N   0  0  2  0  0  0  0  0  0  0  0  0
    9.6578   14.5297   21.8855 O   0  0  0  0  0  0  0  0  0  0  0  0
   10.5931   14.3837   24.2067 O   0  0  0  0  0  0  0  0  0  0  0  0
   13.9395   13.7502   24.3734 O   0  0  0  0  0  0  0  0  0  0  0  0
   10.3943   13.7837   22.8954 S   0  0  0  0  0  0  0  0  0  0  0  0
    9.5767    9.1665   21.7070 H   0  0  0  0  0  0  0  0  0  0  0  0
    7.0261   13.5785   26.7178 H   0  0  0  0  0  0  0  0  0  0  0  0
   12.7838   16.0963   17.1683 H   0  0  0  0  0  0  0  0  0  0  0  0
   17.1708   13.1913   24.1501 H   0  0  0  0  0  0  0  0  0  0  0  0
    8.6990   14.0416   24.9831 H   0  0  0  0  0  0  0  0  0  0  0  0
   11.9879   13.9474   18.1328 H   0  0  0  0  0  0  0  0  0  0  0  0
    7.9070    8.7792   23.4723 H   0  0  0  0  0  0  0  0  0  0  0  0
   10.6584   11.3709   21.4690 H   0  0  0  0  0  0  0  0  0  0  0  0
   15.6279   11.5614   22.5933 H   0  0  0  0  0  0  0  0  0  0  0  0
   13.7497   17.8065   18.7148 H   0  0  0  0  0  0  0  0  0  0  0  0
    6.0248   11.2929   26.8275 H   0  0  0  0  0  0  0  0  0  0  0  0
   13.1752   15.3966   21.9986 H   0  0  0  0  0  0  0  0  0  0  0  0
   15.3522   14.8280   25.4348 H   0  0  0  0  0  0  0  0  0  0  0  0
   11.0695   12.9252   20.3734 H   0  0  0  0  0  0  0  0  0  0  0  0
   12.7420   12.3935   20.5520 H   0  0  0  0  0  0  0  0  0  0  0  0
   12.8224   11.4214   22.2383 H   0  0  0  0  0  0  0  0  0  0  0  0
   12.0375   11.8653   23.7544 H   0  0  0  0  0  0  0  0  0  0  0  0
  1  7  2  0  0  0  0
  1  8  1  0  0  0  0
  2  5  1  0  0  0  0
  2 11  2  0  0  0  0
  3  6  1  0  0  0  0
  3 10  2  0  0  0  0
  4  9  1  0  0  0  0
  4 13  2  0  0  0  0
  5 14  2  0  0  0  0
  6 15  2  0  0  0  0
  7 16  1  0  0  0  0
  8 17  2  0  0  0  0
  9 18  2  0  0  0  0
 10 21  1  0  0  0  0
 11 22  1  0  0  0  0
 12 15  1  0  0  0  0
 12 21  2  0  0  0  0
 13 26  1  0  0  0  0
 14 16  1  0  0  0  0
 14 17  1  0  0  0  0
 15 19  1  0  0  0  0
 16 22  2  0  0  0  0
 17 27  1  0  0  0  0
 18 20  1  0  0  0  0
 18 26  1  0  0  0  0
 19 23  1  0  0  0  0
 20 23  1  0  0  0  0
 23 27  1  0  0  0  0
 24 27  2  0  0  0  0
 25 27  2  0  0  0  0
  1 28  1  0  0  0  0
  2 29  1  0  0  0  0
  3 30  1  0  0  0  0
  4 31  1  0  0  0  0
  5 32  1  0  0  0  0
  6 33  1  0  0  0  0
  7 34  1  0  0  0  0
  8 35  1  0  0  0  0
  9 36  1  0  0  0  0
 10 37  1  0  0  0  0
 11 38  1  0  0  0  0
 12 39  1  0  0  0  0
 13 40  1  0  0  0  0
 19 41  1  0  0  0  0
 19 42  1  0  0  0  0
 20 43  1  0  0  0  0
 20 44  1  0  0  0  0
M  END
> <Catalog ID>
Z981544982

> <PlateID>
1041831-R-22

> <Well>
D09

> <MW (desalted)>
379.432

> <ClogP>
2.451

> <HBD>
0

> <TPSA>
76.300

> <RotBonds>
5

> <ROCS_ShapeQuery>
A71EV2A-x0451_0A_A71EV2A-x0310_0A_A71EV2A-x0416_0A_peptide

> <ROCS_TanimotoCombo>
0.519 

> <ROCS_ShapeTanimoto>
0.341 

> <ROCS_ColorTanimoto>
0.178 

> <ROCS_RefTversky>
0.310 

> <ROCS_RefColorTversky>
0.201 

> <ROCS_RefTverskyCombo>
0.511 

> <ROCS_FitTversky>
1.409 

> <ROCS_FitColorTversky>
0.607 

> <ROCS_FitTverskyCombo>
2.016 

> <ROCS_ColorScore>
-6.154

> <ROCS_Overlap>
2156.590

> <ROCS_Rank>
369                 

$$$$
untitled-dbase-1399_9384
  -OEChem-11132311063D

 44 46  0     0  0  0  0  0  0999 V2000
    9.9963   10.3565   23.1270 C   0  0  0  0  0  0  0  0  0  0  0  0
    9.1187   12.2473   24.3267 C   0  0  0  0  0  0  0  0  0  0  0  0
    8.8328    9.6783   23.4525 C   0  0  0  0  0  0  0  0  0  0  0  0
   10.1342   11.6651   23.5763 C   0  0  0  0  0  0  0  0  0  0  0  0
    7.9944   11.4844   24.5984 C   0  0  0  0  0  0  0  0  0  0  0  0
   13.0949   15.5223   21.0888 C   0  0  0  0  0  0  0  0  0  0  0  0
   10.7334   14.7260   22.4721 C   0  0  0  0  0  0  0  0  0  0  0  0
   14.1099   15.7256   19.9883 C   0  0  0  0  0  0  0  0  0  0  0  0
   13.3235   15.4105   18.7214 C   0  0  0  0  0  0  0  0  0  0  0  0
    5.3234   13.6232   26.0824 C   0  0  0  0  0  0  0  0  0  0  0  0
    5.3758   12.4709   27.0651 C   0  0  0  0  0  0  0  0  0  0  0  0
   11.9004   15.7974   19.0706 C   0  0  0  0  0  0  0  0  0  0  0  0
    6.6694   13.5228   25.3739 C   0  0  0  0  0  0  0  0  0  0  0  0
    6.0605   11.3726   26.2597 C   0  0  0  0  0  0  0  0  0  0  0  0
   11.3743   12.4464   23.2507 C   0  0  0  0  0  0  0  0  0  0  0  0
   10.5736   15.5159   21.1982 C   0  0  0  0  0  0  0  0  0  0  0  0
    7.8247   10.2104   24.1793 N   0  0  0  0  0  0  0  0  0  0  0  0
    6.9755   12.0870   25.3608 N   0  0  0  0  0  0  0  0  0  0  0  0
   11.8363   15.5610   20.4935 N   0  0  0  0  0  0  0  0  0  0  0  0
   11.1403   13.4250   22.2133 N   0  0  0  0  0  0  0  0  0  0  0  0
   13.3685   15.3987   22.2732 O   0  0  0  0  0  0  0  0  0  0  0  0
   10.5270   15.1949   23.5883 O   0  0  0  0  0  0  0  0  0  0  0  0
   10.7705    9.8744   22.5400 H   0  0  0  0  0  0  0  0  0  0  0  0
    9.2102   13.2677   24.6866 H   0  0  0  0  0  0  0  0  0  0  0  0
    8.6770    8.6553   23.1265 H   0  0  0  0  0  0  0  0  0  0  0  0
   14.4885   16.7505   19.9876 H   0  0  0  0  0  0  0  0  0  0  0  0
   14.9335   15.0197   20.1347 H   0  0  0  0  0  0  0  0  0  0  0  0
   13.6888   16.0306   17.8936 H   0  0  0  0  0  0  0  0  0  0  0  0
   13.4151   14.3613   18.4266 H   0  0  0  0  0  0  0  0  0  0  0  0
    4.4813   13.5430   25.3895 H   0  0  0  0  0  0  0  0  0  0  0  0
    5.2448   14.5775   26.6166 H   0  0  0  0  0  0  0  0  0  0  0  0
    5.9263   12.7242   27.9754 H   0  0  0  0  0  0  0  0  0  0  0  0
    4.3622   12.1618   27.3461 H   0  0  0  0  0  0  0  0  0  0  0  0
   11.6887   16.8457   18.8419 H   0  0  0  0  0  0  0  0  0  0  0  0
   11.1669   15.1502   18.5790 H   0  0  0  0  0  0  0  0  0  0  0  0
    6.6040   13.8860   24.3380 H   0  0  0  0  0  0  0  0  0  0  0  0
    7.4418   14.1045   25.8962 H   0  0  0  0  0  0  0  0  0  0  0  0
    6.6445   10.7055   26.9105 H   0  0  0  0  0  0  0  0  0  0  0  0
    5.3304   10.7648   25.7079 H   0  0  0  0  0  0  0  0  0  0  0  0
   11.7410   12.9755   24.1371 H   0  0  0  0  0  0  0  0  0  0  0  0
   12.1780   11.7845   22.9114 H   0  0  0  0  0  0  0  0  0  0  0  0
    9.8224   15.0396   20.5612 H   0  0  0  0  0  0  0  0  0  0  0  0
   10.2559   16.5362   21.4318 H   0  0  0  0  0  0  0  0  0  0  0  0
   11.2806   13.1464   21.2465 H   0  0  0  0  0  0  0  0  0  0  0  0
  1  3  1  0  0  0  0
  1  4  2  0  0  0  0
  2  4  1  0  0  0  0
  2  5  2  0  0  0  0
  3 17  2  0  0  0  0
  4 15  1  0  0  0  0
  5 17  1  0  0  0  0
  5 18  1  0  0  0  0
  6  8  1  0  0  0  0
  6 19  1  0  0  0  0
  6 21  2  0  0  0  0
  7 16  1  0  0  0  0
  7 20  1  0  0  0  0
  7 22  2  0  0  0  0
  8  9  1  0  0  0  0
  9 12  1  0  0  0  0
 10 11  1  0  0  0  0
 10 13  1  0  0  0  0
 11 14  1  0  0  0  0
 12 19  1  0  0  0  0
 13 18  1  0  0  0  0
 14 18  1  0  0  0  0
 15 20  1  0  0  0  0
 16 19  1  0  0  0  0
  1 23  1  0  0  0  0
  2 24  1  0  0  0  0
  3 25  1  0  0  0  0
  8 26  1  0  0  0  0
  8 27  1  0  0  0  0
  9 28  1  0  0  0  0
  9 29  1  0  0  0  0
 10 30  1  0  0  0  0
 10 31  1  0  0  0  0
 11 32  1  0  0  0  0
 11 33  1  0  0  0  0
 12 34  1  0  0  0  0
 12 35  1  0  0  0  0
 13 36  1  0  0  0  0
 13 37  1  0  0  0  0
 14 38  1  0  0  0  0
 14 39  1  0  0  0  0
 15 40  1  0  0  0  0
 15 41  1  0  0  0  0
 16 42  1  0  0  0  0
 16 43  1  0  0  0  0
 20 44  1  0  0  0  0
M  END
> <Catalog ID>
Z279205422

> <PlateID>
1041831-R-18

> <Well>
D10

> <MW (desalted)>
302.371

> <ClogP>
0.296

> <HBD>
1

> <TPSA>
65.540

> <RotBonds>
5

> <ROCS_ShapeQuery>
A71EV2A-x0451_0A_A71EV2A-x0310_0A_A71EV2A-x0416_0A_peptide

> <ROCS_TanimotoCombo>
0.519 

> <ROCS_ShapeTanimoto>
0.357 

> <ROCS_ColorTanimoto>
0.162 

> <ROCS_RefTversky>
0.312 

> <ROCS_RefColorTversky>
0.177 

> <ROCS_RefTverskyCombo>
0.489 

> <ROCS_FitTversky>
1.670 

> <ROCS_FitColorTversky>
0.656 

> <ROCS_FitTverskyCombo>
2.326 

> <ROCS_ColorScore>
-5.400

> <ROCS_Overlap>
2166.397

> <ROCS_Rank>
370                 

$$$$
untitled-dbase-255_18
  -OEChem-11132311063D

 49 52  0     0  0  0  0  0  0999 V2000
    8.8495    9.3592   23.4628 C   0  0  0  0  0  0  0  0  0  0  0  0
    9.7438   10.2859   22.9193 C   0  0  0  0  0  0  0  0  0  0  0  0
    6.5745   11.3287   25.4604 C   0  0  0  0  0  0  0  0  0  0  0  0
    8.6109   12.1209   24.0357 C   0  0  0  0  0  0  0  0  0  0  0  0
    6.0639   10.0678   25.6661 C   0  0  0  0  0  0  0  0  0  0  0  0
    7.6974   11.2054   24.5951 C   0  0  0  0  0  0  0  0  0  0  0  0
    7.8375    9.8484   24.2963 C   0  0  0  0  0  0  0  0  0  0  0  0
    9.6282   11.6459   23.2001 C   0  0  0  0  0  0  0  0  0  0  0  0
   10.9852   13.7672   23.1707 C   0  0  0  0  0  0  0  0  0  0  0  0
    9.5871   17.2746   21.4936 C   0  0  0  0  0  0  0  0  0  0  0  0
   10.6145   17.9605   22.3942 C   0  0  0  0  0  0  0  0  0  0  0  0
    9.9901   15.8020   21.4344 C   0  0  0  0  0  0  0  0  0  0  0  0
   11.5866   16.8682   22.8376 C   0  0  0  0  0  0  0  0  0  0  0  0
   12.0211   15.2656   19.4533 C   0  0  0  0  0  0  0  0  0  0  0  0
   13.6973   16.2433   20.8791 C   0  0  0  0  0  0  0  0  0  0  0  0
   12.8455   15.6898   18.2412 C   0  0  0  0  0  0  0  0  0  0  0  0
   14.4816   16.6454   19.6334 C   0  0  0  0  0  0  0  0  0  0  0  0
   11.4908   15.7965   21.7462 C   0  0  0  0  0  0  0  0  0  0  0  0
   11.9745   14.4339   22.2313 C   0  0  0  0  0  0  0  0  0  0  0  0
    6.8326    9.1816   24.9601 N   0  0  0  0  0  0  0  0  0  0  0  0
   12.2619   16.1911   20.5691 N   0  0  0  0  0  0  0  0  0  0  0  0
   10.5482   12.5598   22.6333 N   0  0  0  0  0  0  0  0  0  0  0  0
   10.6560   14.2699   24.2401 O   0  0  0  0  0  0  0  0  0  0  0  0
   14.2345   15.7235   18.5712 O   0  0  0  0  0  0  0  0  0  0  0  0
    8.9389    8.3008   23.2427 H   0  0  0  0  0  0  0  0  0  0  0  0
   10.5383    9.9269   22.2681 H   0  0  0  0  0  0  0  0  0  0  0  0
    6.1806   12.2412   25.8867 H   0  0  0  0  0  0  0  0  0  0  0  0
    8.5227   13.1818   24.2545 H   0  0  0  0  0  0  0  0  0  0  0  0
    5.2224    9.7229   26.2502 H   0  0  0  0  0  0  0  0  0  0  0  0
    8.5687   17.3906   21.8786 H   0  0  0  0  0  0  0  0  0  0  0  0
    9.6107   17.7204   20.4925 H   0  0  0  0  0  0  0  0  0  0  0  0
   11.1424   18.7402   21.8330 H   0  0  0  0  0  0  0  0  0  0  0  0
   10.1414   18.4426   23.2559 H   0  0  0  0  0  0  0  0  0  0  0  0
    9.4375   15.2459   22.2028 H   0  0  0  0  0  0  0  0  0  0  0  0
    9.7448   15.3500   20.4671 H   0  0  0  0  0  0  0  0  0  0  0  0
   12.6011   17.2570   22.9786 H   0  0  0  0  0  0  0  0  0  0  0  0
   11.2570   16.4630   23.8030 H   0  0  0  0  0  0  0  0  0  0  0  0
   10.9589   15.2663   19.1803 H   0  0  0  0  0  0  0  0  0  0  0  0
   12.2962   14.2419   19.7414 H   0  0  0  0  0  0  0  0  0  0  0  0
   14.0474   15.2632   21.2308 H   0  0  0  0  0  0  0  0  0  0  0  0
   13.8896   16.9759   21.6722 H   0  0  0  0  0  0  0  0  0  0  0  0
   12.7130   14.9667   17.4299 H   0  0  0  0  0  0  0  0  0  0  0  0
   12.5345   16.6719   17.8648 H   0  0  0  0  0  0  0  0  0  0  0  0
   14.2268   17.6602   19.3037 H   0  0  0  0  0  0  0  0  0  0  0  0
   15.5551   16.6270   19.8464 H   0  0  0  0  0  0  0  0  0  0  0  0
   12.9279   14.5574   22.7525 H   0  0  0  0  0  0  0  0  0  0  0  0
   12.1350   13.7826   21.3675 H   0  0  0  0  0  0  0  0  0  0  0  0
    6.6846    8.1823   24.9305 H   0  0  0  0  0  0  0  0  0  0  0  0
   10.9267   12.2905   21.7275 H   0  0  0  0  0  0  0  0  0  0  0  0
  1  2  1  0  0  0  0
  1  7  2  0  0  0  0
  2  8  2  0  0  0  0
  3  5  2  0  0  0  0
  3  6  1  0  0  0  0
  4  6  2  0  0  0  0
  4  8  1  0  0  0  0
  5 20  1  0  0  0  0
  6  7  1  0  0  0  0
  7 20  1  0  0  0  0
  8 22  1  0  0  0  0
  9 19  1  0  0  0  0
  9 22  1  0  0  0  0
  9 23  2  0  0  0  0
 10 11  1  0  0  0  0
 10 12  1  0  0  0  0
 11 13  1  0  0  0  0
 12 18  1  0  0  0  0
 13 18  1  0  0  0  0
 14 16  1  0  0  0  0
 14 21  1  0  0  0  0
 15 17  1  0  0  0  0
 15 21  1  0  0  0  0
 16 24  1  0  0  0  0
 17 24  1  0  0  0  0
 18 19  1  0  0  0  0
 18 21  1  0  0  0  0
  1 25  1  0  0  0  0
  2 26  1  0  0  0  0
  3 27  1  0  0  0  0
  4 28  1  0  0  0  0
  5 29  1  0  0  0  0
 10 30  1  0  0  0  0
 10 31  1  0  0  0  0
 11 32  1  0  0  0  0
 11 33  1  0  0  0  0
 12 34  1  0  0  0  0
 12 35  1  0  0  0  0
 13 36  1  0  0  0  0
 13 37  1  0  0  0  0
 14 38  1  0  0  0  0
 14 39  1  0  0  0  0
 15 40  1  0  0  0  0
 15 41  1  0  0  0  0
 16 42  1  0  0  0  0
 16 43  1  0  0  0  0
 17 44  1  0  0  0  0
 17 45  1  0  0  0  0
 19 46  1  0  0  0  0
 19 47  1  0  0  0  0
 20 48  1  0  0  0  0
 22 49  1  0  0  0  0
M  END
> <Catalog ID>
Z1312816538

> <PlateID>
1041831-R-04

> <Well>
B06

> <MW (desalted)>
327.421

> <ClogP>
2.849

> <HBD>
2

> <TPSA>
57.360

> <RotBonds>
4

> <ROCS_ShapeQuery>
A71EV2A-x0451_0A_A71EV2A-x0310_0A_A71EV2A-x0416_0A_peptide

> <ROCS_TanimotoCombo>
0.519 

> <ROCS_ShapeTanimoto>
0.347 

> <ROCS_ColorTanimoto>
0.172 

> <ROCS_RefTversky>
0.310 

> <ROCS_RefColorTversky>
0.195 

> <ROCS_RefTverskyCombo>
0.505 

> <ROCS_FitTversky>
1.531 

> <ROCS_FitColorTversky>
0.588 

> <ROCS_FitTverskyCombo>
2.119 

> <ROCS_ColorScore>
-5.971

> <ROCS_Overlap>
2152.031

> <ROCS_Rank>
371                 

$$$$
untitled-dbase-1715_4295
  -OEChem-11132311063D

 44 46  0     0  0  0  0  0  0999 V2000
    6.0943   11.9373   25.8415 C   0  0  0  0  0  0  0  0  0  0  0  0
    6.4833   13.1447   25.2570 C   0  0  0  0  0  0  0  0  0  0  0  0
    6.7605   10.7426   25.5410 C   0  0  0  0  0  0  0  0  0  0  0  0
    7.5493   13.2034   24.3532 C   0  0  0  0  0  0  0  0  0  0  0  0
   12.5509   16.6873   19.1274 C   0  0  0  0  0  0  0  0  0  0  0  0
   11.7552   15.7366   19.8101 C   0  0  0  0  0  0  0  0  0  0  0  0
    7.8337   10.7830   24.6349 C   0  0  0  0  0  0  0  0  0  0  0  0
    8.1981   12.0014   24.0688 C   0  0  0  0  0  0  0  0  0  0  0  0
   13.8554   16.2840   19.2942 C   0  0  0  0  0  0  0  0  0  0  0  0
   12.6301   14.8199   20.3453 C   0  0  0  0  0  0  0  0  0  0  0  0
    9.4828   10.3501   23.3493 C   0  0  0  0  0  0  0  0  0  0  0  0
   10.9659   13.4742   23.2369 C   0  0  0  0  0  0  0  0  0  0  0  0
   15.1427   16.8293   18.8409 C   0  0  0  0  0  0  0  0  0  0  0  0
   13.1024   14.7104   23.2592 C   0  0  0  0  0  0  0  0  0  0  0  0
   12.2471   10.2363   23.0341 C   0  0  0  0  0  0  0  0  0  0  0  0
   12.4408   13.5807   21.1715 C   0  0  0  0  0  0  0  0  0  0  0  0
    9.9952   12.6278   22.4323 C   0  0  0  0  0  0  0  0  0  0  0  0
    8.6429    9.7689   24.1763 N   0  0  0  0  0  0  0  0  0  0  0  0
    9.2553   11.6946   23.2509 N   0  0  0  0  0  0  0  0  0  0  0  0
   12.1167   13.8944   22.5612 N   0  0  0  0  0  0  0  0  0  0  0  0
   10.7286   13.7582   24.4140 O   0  0  0  0  0  0  0  0  0  0  0  0
   10.7238    8.1033   22.9672 O   0  0  0  0  0  0  0  0  0  0  0  0
   10.6050    9.7542   21.0682 O   0  0  0  0  0  0  0  0  0  0  0  0
   13.9123   15.1465   20.0354 O   0  0  0  0  0  0  0  0  0  0  0  0
   10.7343    9.4776   22.4908 S   0  0  0  0  0  0  0  0  0  0  0  0
    5.2618   11.9234   26.5406 H   0  0  0  0  0  0  0  0  0  0  0  0
    5.9479   14.0569   25.5088 H   0  0  0  0  0  0  0  0  0  0  0  0
    6.4507    9.8095   26.0005 H   0  0  0  0  0  0  0  0  0  0  0  0
    7.8503   14.1414   23.9003 H   0  0  0  0  0  0  0  0  0  0  0  0
   12.2134   17.5572   18.5824 H   0  0  0  0  0  0  0  0  0  0  0  0
   10.6783   15.7239   19.8989 H   0  0  0  0  0  0  0  0  0  0  0  0
   15.5603   17.5415   19.5747 H   0  0  0  0  0  0  0  0  0  0  0  0
   15.9000   16.0398   18.6797 H   0  0  0  0  0  0  0  0  0  0  0  0
   15.0565   17.3626   17.8759 H   0  0  0  0  0  0  0  0  0  0  0  0
   13.8444   14.0572   23.7418 H   0  0  0  0  0  0  0  0  0  0  0  0
   13.6083   15.3702   22.5390 H   0  0  0  0  0  0  0  0  0  0  0  0
   12.5984   15.3199   24.0237 H   0  0  0  0  0  0  0  0  0  0  0  0
   13.0804    9.7388   22.5353 H   0  0  0  0  0  0  0  0  0  0  0  0
   12.2175   11.2936   22.7666 H   0  0  0  0  0  0  0  0  0  0  0  0
   12.3228   10.1172   24.1160 H   0  0  0  0  0  0  0  0  0  0  0  0
   11.6291   12.9667   20.7662 H   0  0  0  0  0  0  0  0  0  0  0  0
   13.3464   12.9650   21.1697 H   0  0  0  0  0  0  0  0  0  0  0  0
    9.2650   13.2702   21.9284 H   0  0  0  0  0  0  0  0  0  0  0  0
   10.5381   12.0434   21.6817 H   0  0  0  0  0  0  0  0  0  0  0  0
  1  2  2  0  0  0  0
  1  3  1  0  0  0  0
  2  4  1  0  0  0  0
  3  7  2  0  0  0  0
  4  8  2  0  0  0  0
  5  6  1  0  0  0  0
  5  9  2  0  0  0  0
  6 10  2  0  0  0  0
  7  8  1  0  0  0  0
  7 18  1  0  0  0  0
  8 19  1  0  0  0  0
  9 13  1  0  0  0  0
  9 24  1  0  0  0  0
 10 16  1  0  0  0  0
 10 24  1  0  0  0  0
 11 18  2  0  0  0  0
 11 19  1  0  0  0  0
 11 25  1  0  0  0  0
 12 17  1  0  0  0  0
 12 20  1  0  0  0  0
 12 21  2  0  0  0  0
 14 20  1  0  0  0  0
 15 25  1  0  0  0  0
 16 20  1  0  0  0  0
 17 19  1  0  0  0  0
 22 25  2  0  0  0  0
 23 25  2  0  0  0  0
  1 26  1  0  0  0  0
  2 27  1  0  0  0  0
  3 28  1  0  0  0  0
  4 29  1  0  0  0  0
  5 30  1  0  0  0  0
  6 31  1  0  0  0  0
 13 32  1  0  0  0  0
 13 33  1  0  0  0  0
 13 34  1  0  0  0  0
 14 35  1  0  0  0  0
 14 36  1  0  0  0  0
 14 37  1  0  0  0  0
 15 38  1  0  0  0  0
 15 39  1  0  0  0  0
 15 40  1  0  0  0  0
 16 41  1  0  0  0  0
 16 42  1  0  0  0  0
 17 43  1  0  0  0  0
 17 44  1  0  0  0  0
M  END
> <Catalog ID>
Z236337924

> <PlateID>
1041831-R-22

> <Well>
D06

> <MW (desalted)>
361.415

> <ClogP>
2.060

> <HBD>
0

> <TPSA>
85.410

> <RotBonds>
5

> <ROCS_ShapeQuery>
A71EV2A-x0451_0A_A71EV2A-x0310_0A_A71EV2A-x0416_0A_peptide

> <ROCS_TanimotoCombo>
0.519 

> <ROCS_ShapeTanimoto>
0.360 

> <ROCS_ColorTanimoto>
0.158 

> <ROCS_RefTversky>
0.319 

> <ROCS_RefColorTversky>
0.182 

> <ROCS_RefTverskyCombo>
0.502 

> <ROCS_FitTversky>
1.552 

> <ROCS_FitColorTversky>
0.548 

> <ROCS_FitTverskyCombo>
2.100 

> <ROCS_ColorScore>
-5.567

> <ROCS_Overlap>
2220.886

> <ROCS_Rank>
372                 

$$$$
untitled-dbase-1237_1701
  -OEChem-11132311063D

 43 45  0     0  0  0  0  0  0999 V2000
    6.1815   11.1661   26.4625 C   0  0  0  0  0  0  0  0  0  0  0  0
    6.4816   12.5232   26.3523 C   0  0  0  0  0  0  0  0  0  0  0  0
    6.8582   10.2346   25.6768 C   0  0  0  0  0  0  0  0  0  0  0  0
    7.4606   12.9546   25.4550 C   0  0  0  0  0  0  0  0  0  0  0  0
   14.3766   15.9886   19.9501 C   0  0  0  0  0  0  0  0  0  0  0  0
   13.4935   16.9620   19.4457 C   0  0  0  0  0  0  0  0  0  0  0  0
   13.5912   14.8779   20.1398 C   0  0  0  0  0  0  0  0  0  0  0  0
    7.8375   10.6718   24.7801 C   0  0  0  0  0  0  0  0  0  0  0  0
    8.1501   12.0341   24.6585 C   0  0  0  0  0  0  0  0  0  0  0  0
    8.5681    9.7011   23.9365 C   0  0  0  0  0  0  0  0  0  0  0  0
    9.7508   11.6283   23.0413 C   0  0  0  0  0  0  0  0  0  0  0  0
   10.9342   14.5165   22.2921 C   0  0  0  0  0  0  0  0  0  0  0  0
   12.2293   12.8800   24.8632 C   0  0  0  0  0  0  0  0  0  0  0  0
   10.8101   12.0420   22.0639 C   0  0  0  0  0  0  0  0  0  0  0  0
   10.2339   14.7053   20.9535 C   0  0  0  0  0  0  0  0  0  0  0  0
   11.1468   14.3927   19.7686 C   0  0  0  0  0  0  0  0  0  0  0  0
   12.6134   13.0189   23.4294 C   0  0  0  0  0  0  0  0  0  0  0  0
   12.2429   16.5094   19.3224 N   0  0  0  0  0  0  0  0  0  0  0  0
    9.1305   12.5054   23.7653 N   0  0  0  0  0  0  0  0  0  0  0  0
   12.3345   15.2393   19.7522 N   0  0  0  0  0  0  0  0  0  0  0  0
    9.5095   10.2711   23.0949 N   0  0  0  0  0  0  0  0  0  0  0  0
   11.4297   13.2274   22.5805 N   0  0  0  0  0  0  0  0  0  0  0  0
    8.3385    8.4990   23.9986 O   0  0  0  0  0  0  0  0  0  0  0  0
   11.0524   15.4632   23.0744 O   0  0  0  0  0  0  0  0  0  0  0  0
    5.4194   10.8347   27.1619 H   0  0  0  0  0  0  0  0  0  0  0  0
    5.9522   13.2465   26.9660 H   0  0  0  0  0  0  0  0  0  0  0  0
    6.6117    9.1813   25.7757 H   0  0  0  0  0  0  0  0  0  0  0  0
    7.6821   14.0167   25.3816 H   0  0  0  0  0  0  0  0  0  0  0  0
   15.4341   16.0799   20.1485 H   0  0  0  0  0  0  0  0  0  0  0  0
   13.7110   17.9819   19.1626 H   0  0  0  0  0  0  0  0  0  0  0  0
   13.8159   13.8869   20.5094 H   0  0  0  0  0  0  0  0  0  0  0  0
   11.5527   12.0206   24.9805 H   0  0  0  0  0  0  0  0  0  0  0  0
   13.1323   12.7211   25.4708 H   0  0  0  0  0  0  0  0  0  0  0  0
   11.7195   13.7960   25.1965 H   0  0  0  0  0  0  0  0  0  0  0  0
   10.3383   12.2374   21.1025 H   0  0  0  0  0  0  0  0  0  0  0  0
   11.5333   11.2334   21.9724 H   0  0  0  0  0  0  0  0  0  0  0  0
    9.3591   14.0453   20.9215 H   0  0  0  0  0  0  0  0  0  0  0  0
    9.8902   15.7440   20.8830 H   0  0  0  0  0  0  0  0  0  0  0  0
   10.6207   14.5358   18.8167 H   0  0  0  0  0  0  0  0  0  0  0  0
   11.4810   13.3482   19.7915 H   0  0  0  0  0  0  0  0  0  0  0  0
   13.2895   13.8797   23.3206 H   0  0  0  0  0  0  0  0  0  0  0  0
   13.1304   12.1034   23.1059 H   0  0  0  0  0  0  0  0  0  0  0  0
   10.0482    9.6599   22.4876 H   0  0  0  0  0  0  0  0  0  0  0  0
  1  2  2  0  0  0  0
  1  3  1  0  0  0  0
  2  4  1  0  0  0  0
  3  8  2  0  0  0  0
  4  9  2  0  0  0  0
  5  6  1  0  0  0  0
  5  7  2  0  0  0  0
  6 18  2  0  0  0  0
  7 20  1  0  0  0  0
  8  9  1  0  0  0  0
  8 10  1  0  0  0  0
  9 19  1  0  0  0  0
 10 21  1  0  0  0  0
 10 23  2  0  0  0  0
 11 14  1  0  0  0  0
 11 19  2  0  0  0  0
 11 21  1  0  0  0  0
 12 15  1  0  0  0  0
 12 22  1  0  0  0  0
 12 24  2  0  0  0  0
 13 17  1  0  0  0  0
 14 22  1  0  0  0  0
 15 16  1  0  0  0  0
 16 20  1  0  0  0  0
 17 22  1  0  0  0  0
 18 20  1  0  0  0  0
  1 25  1  0  0  0  0
  2 26  1  0  0  0  0
  3 27  1  0  0  0  0
  4 28  1  0  0  0  0
  5 29  1  0  0  0  0
  6 30  1  0  0  0  0
  7 31  1  0  0  0  0
 13 32  1  0  0  0  0
 13 33  1  0  0  0  0
 13 34  1  0  0  0  0
 14 35  1  0  0  0  0
 14 36  1  0  0  0  0
 15 37  1  0  0  0  0
 15 38  1  0  0  0  0
 16 39  1  0  0  0  0
 16 40  1  0  0  0  0
 17 41  1  0  0  0  0
 17 42  1  0  0  0  0
 21 43  1  0  0  0  0
M  END
> <Catalog ID>
Z338554400

> <PlateID>
1041831-R-16

> <Well>
D08

> <MW (desalted)>
325.365

> <ClogP>
0.297

> <HBD>
1

> <TPSA>
79.590

> <RotBonds>
6

> <ROCS_ShapeQuery>
A71EV2A-x0451_0A_A71EV2A-x0310_0A_A71EV2A-x0416_0A_peptide

> <ROCS_TanimotoCombo>
0.519 

> <ROCS_ShapeTanimoto>
0.385 

> <ROCS_ColorTanimoto>
0.134 

> <ROCS_RefTversky>
0.334 

> <ROCS_RefColorTversky>
0.154 

> <ROCS_RefTverskyCombo>
0.488 

> <ROCS_FitTversky>
1.654 

> <ROCS_FitColorTversky>
0.511 

> <ROCS_FitTverskyCombo>
2.164 

> <ROCS_ColorScore>
-4.693

> <ROCS_Overlap>
2320.716

> <ROCS_Rank>
373                 

$$$$
untitled-dbase-1770_58
  -OEChem-11132311063D

 41 44  0     1  0  0  0  0  0999 V2000
   10.0573    9.7479   23.1524 C   0  0  0  0  0  0  0  0  0  0  0  0
   10.5892   11.0356   23.0342 C   0  0  0  0  0  0  0  0  0  0  0  0
    8.8299    9.5279   23.7911 C   0  0  0  0  0  0  0  0  0  0  0  0
    9.9174   12.1503   23.5481 C   0  0  0  0  0  0  0  0  0  0  0  0
    8.1464   10.6369   24.3105 C   0  0  0  0  0  0  0  0  0  0  0  0
    8.6994   11.9032   24.1779 C   0  0  0  0  0  0  0  0  0  0  0  0
   10.4739   13.5070   23.4257 C   0  0  0  0  0  0  0  0  0  0  0  0
   14.0212   15.6452   19.7605 C   0  0  0  0  0  0  0  0  0  0  0  0
   13.1285   14.4917   20.1985 C   0  0  0  0  0  0  0  0  0  0  0  0
   10.6287   14.1450   19.7974 C   0  0  0  0  0  0  0  0  0  0  0  0
   11.7730   16.4420   19.5485 C   0  0  0  0  0  0  0  0  0  0  0  0
   10.4107   13.1959   20.9672 C   0  0  0  0  0  0  0  0  0  0  0  0
   11.2905   15.2813   21.7789 C   0  0  0  0  0  0  0  0  0  0  0  0
   13.1315   16.4767   18.8415 C   0  0  2  0  0  0  0  0  0  0  0  0
   11.7149   15.1056   20.3116 C   0  0  2  0  0  0  0  0  0  0  0  0
   13.0570   15.9080   17.4256 C   0  0  0  0  0  0  0  0  0  0  0  0
    6.9511   10.7299   24.9733 N   0  0  0  0  0  0  0  0  0  0  0  0
    6.7375   12.0096   25.2596 N   0  0  0  0  0  0  0  0  0  0  0  0
    7.7810   12.7100   24.7852 N   0  0  0  0  0  0  0  0  0  0  0  0
   10.6995   13.9946   22.1479 N   0  0  0  0  0  0  0  0  0  0  0  0
   10.6936   14.1236   24.4664 O   0  0  0  0  0  0  0  0  0  0  0  0
   10.6050    8.9031   22.7422 H   0  0  0  0  0  0  0  0  0  0  0  0
   11.5457   11.1636   22.5309 H   0  0  0  0  0  0  0  0  0  0  0  0
    8.4249    8.5250   23.8782 H   0  0  0  0  0  0  0  0  0  0  0  0
   14.3348   16.2385   20.6184 H   0  0  0  0  0  0  0  0  0  0  0  0
   14.9135   15.2701   19.2628 H   0  0  0  0  0  0  0  0  0  0  0  0
   13.1413   13.7149   19.4270 H   0  0  0  0  0  0  0  0  0  0  0  0
   13.4754   14.0382   21.1298 H   0  0  0  0  0  0  0  0  0  0  0  0
   10.9195   13.6147   18.8866 H   0  0  0  0  0  0  0  0  0  0  0  0
    9.7037   14.6964   19.5913 H   0  0  0  0  0  0  0  0  0  0  0  0
   11.6409   17.3130   20.2166 H   0  0  0  0  0  0  0  0  0  0  0  0
   10.9481   16.4894   18.8111 H   0  0  0  0  0  0  0  0  0  0  0  0
    9.3948   12.7945   21.0099 H   0  0  0  0  0  0  0  0  0  0  0  0
   11.1187   12.3612   20.9471 H   0  0  0  0  0  0  0  0  0  0  0  0
   12.1168   15.5297   22.4533 H   0  0  0  0  0  0  0  0  0  0  0  0
   10.5068   16.0403   21.8904 H   0  0  0  0  0  0  0  0  0  0  0  0
   13.4949   17.4902   18.8007 H   0  0  0  0  0  0  0  0  0  0  0  0
   12.6900   14.8808   17.4516 H   0  0  0  0  0  0  0  0  0  0  0  0
   14.0460   15.9159   16.9646 H   0  0  0  0  0  0  0  0  0  0  0  0
   12.3800   16.5074   16.8146 H   0  0  0  0  0  0  0  0  0  0  0  0
    7.7972   13.7149   24.9112 H   0  0  0  0  0  0  0  0  0  0  0  0
  1  2  2  0  0  0  0
  1  3  1  0  0  0  0
  2  4  1  0  0  0  0
  3  5  2  0  0  0  0
  4  6  2  0  0  0  0
  4  7  1  0  0  0  0
  5  6  1  0  0  0  0
  5 17  1  0  0  0  0
  6 19  1  0  0  0  0
  7 20  1  0  0  0  0
  7 21  2  0  0  0  0
  8  9  1  0  0  0  0
  8 14  1  0  0  0  0
  9 15  1  0  0  0  0
 10 12  1  0  0  0  0
 10 15  1  0  0  0  0
 11 14  1  0  0  0  0
 11 15  1  0  0  0  0
 12 20  1  0  0  0  0
 13 15  1  0  0  0  0
 13 20  1  0  0  0  0
 14 16  1  0  0  0  0
 17 18  2  0  0  0  0
 18 19  1  0  0  0  0
  1 22  1  0  0  0  0
  2 23  1  0  0  0  0
  3 24  1  0  0  0  0
  8 25  1  0  0  0  0
  8 26  1  0  0  0  0
  9 27  1  0  0  0  0
  9 28  1  0  0  0  0
 10 29  1  0  0  0  0
 10 30  1  0  0  0  0
 11 31  1  0  0  0  0
 11 32  1  0  0  0  0
 12 33  1  0  0  0  0
 12 34  1  0  0  0  0
 13 35  1  0  0  0  0
 13 36  1  0  0  0  0
 14 37  1  0  0  0  0
 16 38  1  0  0  0  0
 16 39  1  0  0  0  0
 16 40  1  0  0  0  0
 19 41  1  0  0  0  0
M  END
> <Catalog ID>
Z1784215697

> <PlateID>
1041831-R-23

> <Well>
A11

> <MW (desalted)>
284.356

> <ClogP>
2.628

> <HBD>
1

> <TPSA>
61.880

> <RotBonds>
1

> <ROCS_ShapeQuery>
A71EV2A-x0451_0A_A71EV2A-x0310_0A_A71EV2A-x0416_0A_peptide

> <ROCS_TanimotoCombo>
0.519 

> <ROCS_ShapeTanimoto>
0.342 

> <ROCS_ColorTanimoto>
0.176 

> <ROCS_RefTversky>
0.302 

> <ROCS_RefColorTversky>
0.197 

> <ROCS_RefTverskyCombo>
0.499 

> <ROCS_FitTversky>
1.631 

> <ROCS_FitColorTversky>
0.630 

> <ROCS_FitTverskyCombo>
2.261 

> <ROCS_ColorScore>
-6.007

> <ROCS_Overlap>
2098.837

> <ROCS_Rank>
374                 

$$$$
untitled-dbase-2708_15
  -OEChem-11132311063D

 40 43  0     1  0  0  0  0  0999 V2000
    6.2935   10.9426   25.6106 C   0  0  0  0  0  0  0  0  0  0  0  0
    6.6996   12.2699   25.7902 C   0  0  0  0  0  0  0  0  0  0  0  0
    7.0532   10.0709   24.8292 C   0  0  0  0  0  0  0  0  0  0  0  0
    7.8691   12.7443   25.1916 C   0  0  0  0  0  0  0  0  0  0  0  0
    8.2197   10.5355   24.2294 C   0  0  0  0  0  0  0  0  0  0  0  0
    8.6179   11.8693   24.4157 C   0  0  0  0  0  0  0  0  0  0  0  0
   10.5111   13.3254   23.6745 C   0  0  0  0  0  0  0  0  0  0  0  0
    9.5965    8.3965   23.5561 C   0  0  0  0  0  0  0  0  0  0  0  0
    8.8108    8.8002   22.3415 C   0  0  0  0  0  0  0  0  0  0  0  0
   10.0837   15.5739   21.7335 C   0  0  0  0  0  0  0  0  0  0  0  0
   10.2622   10.8664   23.0182 C   0  0  0  0  0  0  0  0  0  0  0  0
   11.3657   16.3716   21.9128 C   0  0  0  0  0  0  0  0  0  0  0  0
   11.2854   13.5747   22.4133 C   0  0  2  0  0  0  0  0  0  0  0  0
   12.5300   14.4302   22.6898 C   0  0  1  0  0  0  0  0  0  0  0  0
    9.2059    9.8376   23.3593 C   0  0  0  0  0  0  0  0  0  0  0  0
   13.5719   14.3309   21.5751 C   0  0  0  0  0  0  0  0  0  0  0  0
   10.3865   14.1778   21.4297 N   0  0  0  0  0  0  0  0  0  0  0  0
    9.8312   12.1137   23.7117 N   0  0  0  0  0  0  0  0  0  0  0  0
   10.5236   14.1754   24.5649 O   0  0  0  0  0  0  0  0  0  0  0  0
   12.1787   15.7994   22.9353 O   0  0  0  0  0  0  0  0  0  0  0  0
    5.3812   10.5892   26.0831 H   0  0  0  0  0  0  0  0  0  0  0  0
    6.0987   12.9377   26.4017 H   0  0  0  0  0  0  0  0  0  0  0  0
    6.7297    9.0433   24.6959 H   0  0  0  0  0  0  0  0  0  0  0  0
    8.1531   13.7769   25.3511 H   0  0  0  0  0  0  0  0  0  0  0  0
    9.0863    7.8128   24.3128 H   0  0  0  0  0  0  0  0  0  0  0  0
   10.6335    8.1172   23.4107 H   0  0  0  0  0  0  0  0  0  0  0  0
    9.3244    8.7899   21.3873 H   0  0  0  0  0  0  0  0  0  0  0  0
    7.7754    8.4862   22.2864 H   0  0  0  0  0  0  0  0  0  0  0  0
    9.4751   15.6266   22.6449 H   0  0  0  0  0  0  0  0  0  0  0  0
    9.4816   15.9980   20.9174 H   0  0  0  0  0  0  0  0  0  0  0  0
   11.2524   10.5848   23.3915 H   0  0  0  0  0  0  0  0  0  0  0  0
   10.3151   11.0658   21.9428 H   0  0  0  0  0  0  0  0  0  0  0  0
   11.9462   16.3586   20.9813 H   0  0  0  0  0  0  0  0  0  0  0  0
   11.1615   17.4257   22.1528 H   0  0  0  0  0  0  0  0  0  0  0  0
   11.5994   12.5687   22.0335 H   0  0  0  0  0  0  0  0  0  0  0  0
   13.0363   14.0452   23.6340 H   0  0  0  0  0  0  0  0  0  0  0  0
   13.1468   14.6869   20.6375 H   0  0  0  0  0  0  0  0  0  0  0  0
   13.8857   13.2950   21.4524 H   0  0  0  0  0  0  0  0  0  0  0  0
   14.4409   14.9384   21.8248 H   0  0  0  0  0  0  0  0  0  0  0  0
    9.4994   13.6522   21.4143 H   0  0  0  0  0  0  0  0  0  0  0  0
  1  2  2  0  0  0  0
  1  3  1  0  0  0  0
  2  4  1  0  0  0  0
  3  5  2  0  0  0  0
  4  6  2  0  0  0  0
  5  6  1  0  0  0  0
  5 15  1  0  0  0  0
  6 18  1  0  0  0  0
  7 13  1  6  0  0  0
  7 18  1  0  0  0  0
  7 19  2  0  0  0  0
  8  9  1  0  0  0  0
  8 15  1  0  0  0  0
  9 15  1  0  0  0  0
 10 12  1  0  0  0  0
 10 17  1  0  0  0  0
 11 15  1  0  0  0  0
 11 18  1  0  0  0  0
 12 20  1  0  0  0  0
 13 14  1  0  0  0  0
 13 17  1  0  0  0  0
 14 16  1  1  0  0  0
 14 20  1  0  0  0  0
  1 21  1  0  0  0  0
  2 22  1  0  0  0  0
  3 23  1  0  0  0  0
  4 24  1  0  0  0  0
  8 25  1  0  0  0  0
  8 26  1  0  0  0  0
  9 27  1  0  0  0  0
  9 28  1  0  0  0  0
 10 29  1  0  0  0  0
 10 30  1  0  0  0  0
 11 31  1  0  0  0  0
 11 32  1  0  0  0  0
 12 33  1  0  0  0  0
 12 34  1  0  0  0  0
 13 35  1  0  0  0  0
 14 36  1  0  0  0  0
 16 37  1  0  0  0  0
 16 38  1  0  0  0  0
 16 39  1  0  0  0  0
 17 40  1  0  0  0  0
M  END
> <Catalog ID>
Z2053688195

> <PlateID>
1041831-R-34

> <Well>
G09

> <MW (desalted)>
272.342

> <ClogP>
1.977

> <HBD>
1

> <TPSA>
41.570

> <RotBonds>
1

> <ROCS_ShapeQuery>
A71EV2A-x0451_0A_A71EV2A-x0310_0A_A71EV2A-x0416_0A_peptide

> <ROCS_TanimotoCombo>
0.519 

> <ROCS_ShapeTanimoto>
0.364 

> <ROCS_ColorTanimoto>
0.155 

> <ROCS_RefTversky>
0.314 

> <ROCS_RefColorTversky>
0.170 

> <ROCS_RefTverskyCombo>
0.484 

> <ROCS_FitTversky>
1.771 

> <ROCS_FitColorTversky>
0.629 

> <ROCS_FitTverskyCombo>
2.400 

> <ROCS_ColorScore>
-5.186

> <ROCS_Overlap>
2180.615

> <ROCS_Rank>
375                 

$$$$
untitled-dbase-2495_5688
  -OEChem-11132311063D

 52 56  0     1  0  0  0  0  0999 V2000
    9.6857   15.8523   23.1858 C   0  0  0  0  0  0  0  0  0  0  0  0
   10.0196   16.3045   24.4390 C   0  0  0  0  0  0  0  0  0  0  0  0
   10.1433   14.5213   23.1585 C   0  0  0  0  0  0  0  0  0  0  0  0
   11.9189   14.0621   28.3682 C   0  0  0  0  0  0  0  0  0  0  0  0
   10.8577   15.0792   28.7936 C   0  0  0  0  0  0  0  0  0  0  0  0
    8.8701    7.7211   23.2431 C   0  0  0  0  0  0  0  0  0  0  0  0
   10.2266    7.9539   23.9126 C   0  0  0  0  0  0  0  0  0  0  0  0
   11.8104   13.9340   26.8513 C   0  0  0  0  0  0  0  0  0  0  0  0
   10.1424   15.5138   27.5179 C   0  0  0  0  0  0  0  0  0  0  0  0
    8.4251    9.0708   22.6843 C   0  0  0  0  0  0  0  0  0  0  0  0
   10.5514    9.4352   23.7271 C   0  0  0  0  0  0  0  0  0  0  0  0
    7.5394   12.6544   24.9483 C   0  0  0  0  0  0  0  0  0  0  0  0
    6.4509   11.6140   24.7043 C   0  0  0  0  0  0  0  0  0  0  0  0
    8.8468   11.9619   24.5856 C   0  0  2  0  0  0  0  0  0  0  0  0
   11.1685   15.2518   26.4146 C   0  0  0  0  0  0  0  0  0  0  0  0
    9.0978   11.5731   23.1040 C   0  0  2  0  0  0  0  0  0  0  0  0
    8.5036   10.4922   24.8946 C   0  0  2  0  0  0  0  0  0  0  0  0
    9.1750   10.0811   23.5473 C   0  0  0  0  0  0  0  0  0  0  0  0
   10.0420   13.5430   22.0241 C   0  0  0  0  0  0  0  0  0  0  0  0
   10.7239   14.1520   24.3033 N   0  0  0  0  0  0  0  0  0  0  0  0
   10.6334   15.2578   25.0617 N   0  0  0  0  0  0  0  0  0  0  0  0
   10.3086   12.1775   22.4564 N   0  0  0  0  0  0  0  0  0  0  0  0
    7.0657   10.3596   25.0199 O   0  0  0  0  0  0  0  0  0  0  0  0
    9.1840   16.4092   22.4080 H   0  0  0  0  0  0  0  0  0  0  0  0
    9.8759   17.2591   24.9262 H   0  0  0  0  0  0  0  0  0  0  0  0
   12.9307   14.3651   28.6884 H   0  0  0  0  0  0  0  0  0  0  0  0
   11.7109   13.0860   28.8439 H   0  0  0  0  0  0  0  0  0  0  0  0
   10.1573   14.6576   29.5375 H   0  0  0  0  0  0  0  0  0  0  0  0
   11.3429   15.9510   29.2735 H   0  0  0  0  0  0  0  0  0  0  0  0
    8.9221    6.9443   22.4594 H   0  0  0  0  0  0  0  0  0  0  0  0
    8.1411    7.3642   23.9953 H   0  0  0  0  0  0  0  0  0  0  0  0
   10.2148    7.6632   24.9824 H   0  0  0  0  0  0  0  0  0  0  0  0
   11.0007    7.3257   23.4242 H   0  0  0  0  0  0  0  0  0  0  0  0
   12.8144   13.8614   26.4273 H   0  0  0  0  0  0  0  0  0  0  0  0
   11.2522   13.0440   26.5627 H   0  0  0  0  0  0  0  0  0  0  0  0
    9.2371   14.9130   27.3802 H   0  0  0  0  0  0  0  0  0  0  0  0
    9.8448   16.5639   27.5625 H   0  0  0  0  0  0  0  0  0  0  0  0
    8.7333    9.1418   21.6381 H   0  0  0  0  0  0  0  0  0  0  0  0
    7.3410    9.1727   22.7308 H   0  0  0  0  0  0  0  0  0  0  0  0
   11.0253    9.7986   24.6476 H   0  0  0  0  0  0  0  0  0  0  0  0
   11.2627    9.6045   22.9162 H   0  0  0  0  0  0  0  0  0  0  0  0
    7.3702   13.5715   24.3770 H   0  0  0  0  0  0  0  0  0  0  0  0
    7.5555   12.9185   26.0126 H   0  0  0  0  0  0  0  0  0  0  0  0
    5.5756   11.7733   25.3385 H   0  0  0  0  0  0  0  0  0  0  0  0
    6.1392   11.5899   23.6560 H   0  0  0  0  0  0  0  0  0  0  0  0
    9.7194   12.3437   25.1348 H   0  0  0  0  0  0  0  0  0  0  0  0
   11.9468   16.0540   26.4251 H   0  0  0  0  0  0  0  0  0  0  0  0
    8.1632   11.7802   22.4461 H   0  0  0  0  0  0  0  0  0  0  0  0
    8.9868   10.0994   25.7937 H   0  0  0  0  0  0  0  0  0  0  0  0
    9.0402   13.5672   21.5816 H   0  0  0  0  0  0  0  0  0  0  0  0
   10.7545   13.7877   21.2293 H   0  0  0  0  0  0  0  0  0  0  0  0
   11.0800   12.1819   23.1235 H   0  0  0  0  0  0  0  0  0  0  0  0
  1  2  2  0  0  0  0
  1  3  1  0  0  0  0
  2 21  1  0  0  0  0
  3 19  1  0  0  0  0
  3 20  2  0  0  0  0
  4  5  1  0  0  0  0
  4  8  1  0  0  0  0
  5  9  1  0  0  0  0
  6  7  1  0  0  0  0
  6 10  1  0  0  0  0
  7 11  1  0  0  0  0
  8 15  1  0  0  0  0
  9 15  1  0  0  0  0
 10 18  1  0  0  0  0
 11 18  1  0  0  0  0
 12 13  1  0  0  0  0
 12 14  1  0  0  0  0
 13 23  1  0  0  0  0
 14 16  1  0  0  0  0
 14 17  1  0  0  0  0
 15 21  1  0  0  0  0
 16 18  1  0  0  0  0
 16 22  1  0  0  0  0
 17 18  1  0  0  0  0
 17 23  1  0  0  0  0
 19 22  1  0  0  0  0
 20 21  1  0  0  0  0
  1 24  1  0  0  0  0
  2 25  1  0  0  0  0
  4 26  1  0  0  0  0
  4 27  1  0  0  0  0
  5 28  1  0  0  0  0
  5 29  1  0  0  0  0
  6 30  1  0  0  0  0
  6 31  1  0  0  0  0
  7 32  1  0  0  0  0
  7 33  1  0  0  0  0
  8 34  1  0  0  0  0
  8 35  1  0  0  0  0
  9 36  1  0  0  0  0
  9 37  1  0  0  0  0
 10 38  1  0  0  0  0
 10 39  1  0  0  0  0
 11 40  1  0  0  0  0
 11 41  1  0  0  0  0
 12 42  1  0  0  0  0
 12 43  1  0  0  0  0
 13 44  1  0  0  0  0
 13 45  1  0  0  0  0
 14 46  1  0  0  0  0
 15 47  1  0  0  0  0
 16 48  1  0  0  0  0
 17 49  1  0  0  0  0
 19 50  1  0  0  0  0
 19 51  1  0  0  0  0
 22 52  1  0  0  0  0
M  END
> <Catalog ID>
Z1597988123

> <PlateID>
1041831-R-32

> <Well>
B06

> <MW (desalted)>
315.453

> <ClogP>
2.948

> <HBD>
1

> <TPSA>
39.080

> <RotBonds>
4

> <ROCS_ShapeQuery>
A71EV2A-x0451_0A_A71EV2A-x0310_0A_A71EV2A-x0416_0A_peptide

> <ROCS_TanimotoCombo>
0.518 

> <ROCS_ShapeTanimoto>
0.308 

> <ROCS_ColorTanimoto>
0.210 

> <ROCS_RefTversky>
0.281 

> <ROCS_RefColorTversky>
0.249 

> <ROCS_RefTverskyCombo>
0.531 

> <ROCS_FitTversky>
1.449 

> <ROCS_FitColorTversky>
0.572 

> <ROCS_FitTverskyCombo>
2.021 

> <ROCS_ColorScore>
-7.669

> <ROCS_Overlap>
1954.482

> <ROCS_Rank>
376                 

$$$$
untitled-dbase-1205_757
  -OEChem-11132311063D

 39 41  0     1  0  0  0  0  0999 V2000
    6.8939   12.6071   25.8519 C   0  0  0  0  0  0  0  0  0  0  0  0
    6.3868   11.3436   26.1489 C   0  0  0  0  0  0  0  0  0  0  0  0
    7.9796   12.7567   24.9815 C   0  0  0  0  0  0  0  0  0  0  0  0
    6.9462   10.1922   25.5875 C   0  0  0  0  0  0  0  0  0  0  0  0
   14.4116   16.1776   19.8423 C   0  0  0  0  0  0  0  0  0  0  0  0
    9.7452   10.0370   23.2945 C   0  0  0  0  0  0  0  0  0  0  0  0
   13.3600   16.3592   18.9686 C   0  0  0  0  0  0  0  0  0  0  0  0
    8.5602   11.6103   24.4034 C   0  0  0  0  0  0  0  0  0  0  0  0
    9.6408   11.3928   23.5035 C   0  0  0  0  0  0  0  0  0  0  0  0
    8.0312   10.3570   24.7192 C   0  0  0  0  0  0  0  0  0  0  0  0
   12.8787   15.0500   20.9325 C   0  0  0  0  0  0  0  0  0  0  0  0
   10.3736   15.1140   24.3602 C   0  0  0  0  0  0  0  0  0  0  0  0
   12.6768   13.7282   23.0672 C   0  0  0  0  0  0  0  0  0  0  0  0
    9.8710   15.9608   25.4820 C   0  0  0  0  0  0  0  0  0  0  0  0
   10.5032   12.4278   22.8979 C   0  0  0  0  0  0  0  0  0  0  0  0
   11.5800   13.0009   23.8481 C   0  0  2  0  0  0  0  0  0  0  0  0
   14.1373   15.4275   20.9692 N   0  0  0  0  0  0  0  0  0  0  0  0
    8.7699    9.4206   24.0317 N   0  0  0  0  0  0  0  0  0  0  0  0
   12.1819   14.2685   21.8838 N   0  0  0  0  0  0  0  0  0  0  0  0
   11.0194   13.9608   24.7680 N   0  0  0  0  0  0  0  0  0  0  0  0
   10.1911   15.4737   23.2030 O   0  0  0  0  0  0  0  0  0  0  0  0
   13.8187   13.8310   23.5075 O   0  0  0  0  0  0  0  0  0  0  0  0
   11.9669   15.5610   19.5714 S   0  0  0  0  0  0  0  0  0  0  0  0
    6.4416   13.4876   26.3004 H   0  0  0  0  0  0  0  0  0  0  0  0
    5.5429   11.2505   26.8276 H   0  0  0  0  0  0  0  0  0  0  0  0
    8.3627   13.7487   24.7593 H   0  0  0  0  0  0  0  0  0  0  0  0
    6.5515    9.2090   25.8201 H   0  0  0  0  0  0  0  0  0  0  0  0
   15.4083   16.5738   19.7023 H   0  0  0  0  0  0  0  0  0  0  0  0
   10.4242    9.4549   22.6866 H   0  0  0  0  0  0  0  0  0  0  0  0
   13.3449   16.9022   18.0346 H   0  0  0  0  0  0  0  0  0  0  0  0
   10.6152   16.7016   25.8158 H   0  0  0  0  0  0  0  0  0  0  0  0
    8.9821   16.5477   25.2003 H   0  0  0  0  0  0  0  0  0  0  0  0
    9.5795   15.4127   26.3922 H   0  0  0  0  0  0  0  0  0  0  0  0
    9.8786   13.2664   22.5287 H   0  0  0  0  0  0  0  0  0  0  0  0
   11.0040   12.0476   21.9836 H   0  0  0  0  0  0  0  0  0  0  0  0
   12.0181   12.2076   24.4641 H   0  0  0  0  0  0  0  0  0  0  0  0
    8.6143    8.4226   24.0668 H   0  0  0  0  0  0  0  0  0  0  0  0
   11.2012   14.1021   21.6693 H   0  0  0  0  0  0  0  0  0  0  0  0
   11.1032   13.7806   25.7651 H   0  0  0  0  0  0  0  0  0  0  0  0
  1  2  2  0  0  0  0
  1  3  1  0  0  0  0
  2  4  1  0  0  0  0
  3  8  2  0  0  0  0
  4 10  2  0  0  0  0
  5  7  2  0  0  0  0
  5 17  1  0  0  0  0
  6  9  2  0  0  0  0
  6 18  1  0  0  0  0
  7 23  1  0  0  0  0
  8  9  1  0  0  0  0
  8 10  1  0  0  0  0
  9 15  1  0  0  0  0
 10 18  1  0  0  0  0
 11 17  2  0  0  0  0
 11 19  1  0  0  0  0
 11 23  1  0  0  0  0
 12 14  1  0  0  0  0
 12 20  1  0  0  0  0
 12 21  2  0  0  0  0
 13 16  1  0  0  0  0
 13 19  1  0  0  0  0
 13 22  2  0  0  0  0
 15 16  1  0  0  0  0
 16 20  1  0  0  0  0
  1 24  1  0  0  0  0
  2 25  1  0  0  0  0
  3 26  1  0  0  0  0
  4 27  1  0  0  0  0
  5 28  1  0  0  0  0
  6 29  1  0  0  0  0
  7 30  1  0  0  0  0
 14 31  1  0  0  0  0
 14 32  1  0  0  0  0
 14 33  1  0  0  0  0
 15 34  1  0  0  0  0
 15 35  1  0  0  0  0
 16 36  1  0  0  0  0
 18 37  1  0  0  0  0
 19 38  1  0  0  0  0
 20 39  1  0  0  0  0
M  END
> <Catalog ID>
Z212172276

> <PlateID>
1041831-R-16

> <Well>
A06

> <MW (desalted)>
328.389

> <ClogP>
1.164

> <HBD>
3

> <TPSA>
86.880

> <RotBonds>
5

> <ROCS_ShapeQuery>
A71EV2A-x0451_0A_A71EV2A-x0310_0A_A71EV2A-x0416_0A_peptide

> <ROCS_TanimotoCombo>
0.518 

> <ROCS_ShapeTanimoto>
0.355 

> <ROCS_ColorTanimoto>
0.163 

> <ROCS_RefTversky>
0.313 

> <ROCS_RefColorTversky>
0.187 

> <ROCS_RefTverskyCombo>
0.500 

> <ROCS_FitTversky>
1.619 

> <ROCS_FitColorTversky>
0.563 

> <ROCS_FitTverskyCombo>
2.182 

> <ROCS_ColorScore>
-5.716

> <ROCS_Overlap>
2172.317

> <ROCS_Rank>
377                 

$$$$
untitled-dbase-58_197
  -OEChem-11132311063D

 41 44  0     0  0  0  0  0  0999 V2000
   16.0854   16.7721   17.4793 C   0  0  0  0  0  0  0  0  0  0  0  0
   15.8155   16.2634   18.7416 C   0  0  0  0  0  0  0  0  0  0  0  0
   11.8368   15.8450   19.9871 C   0  0  0  0  0  0  0  0  0  0  0  0
   12.1420   16.3538   18.7222 C   0  0  0  0  0  0  0  0  0  0  0  0
    4.4316   11.2241   27.4729 C   0  0  0  0  0  0  0  0  0  0  0  0
   14.1838   15.6051   20.4463 C   0  0  0  0  0  0  0  0  0  0  0  0
   15.0095   17.1191   16.6877 C   0  0  0  0  0  0  0  0  0  0  0  0
    5.1162   12.3373   27.0298 C   0  0  0  0  0  0  0  0  0  0  0  0
    4.8701   10.0152   26.9725 C   0  0  0  0  0  0  0  0  0  0  0  0
    8.9609   10.0759   23.5790 C   0  0  0  0  0  0  0  0  0  0  0  0
    8.2710   12.0080   24.3702 C   0  0  0  0  0  0  0  0  0  0  0  0
   14.4905   16.1169   19.1740 C   0  0  0  0  0  0  0  0  0  0  0  0
   12.8587   15.4701   20.8504 C   0  0  0  0  0  0  0  0  0  0  0  0
   13.4580   16.4997   18.2923 C   0  0  0  0  0  0  0  0  0  0  0  0
    9.2086   11.4608   23.5288 C   0  0  0  0  0  0  0  0  0  0  0  0
    6.4834   11.0492   25.7497 C   0  0  0  0  0  0  0  0  0  0  0  0
   10.8199   13.3643   23.1272 C   0  0  0  0  0  0  0  0  0  0  0  0
   12.5380   14.9259   22.2007 C   0  0  0  0  0  0  0  0  0  0  0  0
   13.7170   16.9936   17.0667 N   0  0  0  0  0  0  0  0  0  0  0  0
    6.1507   12.2862   26.1652 N   0  0  0  0  0  0  0  0  0  0  0  0
    5.8967    9.8905   26.1059 N   0  0  0  0  0  0  0  0  0  0  0  0
    7.9457    9.7627   24.3884 N   0  0  0  0  0  0  0  0  0  0  0  0
    7.5472   10.9585   24.8546 N   0  0  0  0  0  0  0  0  0  0  0  0
   10.1923   12.1612   22.7923 N   0  0  0  0  0  0  0  0  0  0  0  0
   11.7372   13.7295   22.1339 N   0  0  0  0  0  0  0  0  0  0  0  0
   10.6244   14.0361   24.1372 O   0  0  0  0  0  0  0  0  0  0  0  0
   17.1035   16.8925   17.1284 H   0  0  0  0  0  0  0  0  0  0  0  0
   16.6447   15.9816   19.3865 H   0  0  0  0  0  0  0  0  0  0  0  0
   10.7966   15.7468   20.2861 H   0  0  0  0  0  0  0  0  0  0  0  0
   11.3231   16.6406   18.0649 H   0  0  0  0  0  0  0  0  0  0  0  0
    3.6050   11.2945   28.1670 H   0  0  0  0  0  0  0  0  0  0  0  0
   14.9833   15.3098   21.1234 H   0  0  0  0  0  0  0  0  0  0  0  0
   15.1590   17.5226   15.6916 H   0  0  0  0  0  0  0  0  0  0  0  0
    4.8434   13.3313   27.3682 H   0  0  0  0  0  0  0  0  0  0  0  0
    4.3931    9.0851   27.2629 H   0  0  0  0  0  0  0  0  0  0  0  0
    9.4767    9.2796   23.0611 H   0  0  0  0  0  0  0  0  0  0  0  0
    8.0667   13.0317   24.6564 H   0  0  0  0  0  0  0  0  0  0  0  0
   13.4535   14.6788   22.7567 H   0  0  0  0  0  0  0  0  0  0  0  0
   11.9855   15.6555   22.8091 H   0  0  0  0  0  0  0  0  0  0  0  0
   10.4741   11.7333   21.9138 H   0  0  0  0  0  0  0  0  0  0  0  0
   11.8434   13.1209   21.3262 H   0  0  0  0  0  0  0  0  0  0  0  0
  1  2  1  0  0  0  0
  1  7  2  0  0  0  0
  2 12  2  0  0  0  0
  3  4  2  0  0  0  0
  3 13  1  0  0  0  0
  4 14  1  0  0  0  0
  5  8  2  0  0  0  0
  5  9  1  0  0  0  0
  6 12  1  0  0  0  0
  6 13  2  0  0  0  0
  7 19  1  0  0  0  0
  8 20  1  0  0  0  0
  9 21  2  0  0  0  0
 10 15  1  0  0  0  0
 10 22  2  0  0  0  0
 11 15  2  0  0  0  0
 11 23  1  0  0  0  0
 12 14  1  0  0  0  0
 13 18  1  0  0  0  0
 14 19  2  0  0  0  0
 15 24  1  0  0  0  0
 16 20  2  0  0  0  0
 16 21  1  0  0  0  0
 16 23  1  0  0  0  0
 17 24  1  0  0  0  0
 17 25  1  0  0  0  0
 17 26  2  0  0  0  0
 18 25  1  0  0  0  0
 22 23  1  0  0  0  0
  1 27  1  0  0  0  0
  2 28  1  0  0  0  0
  3 29  1  0  0  0  0
  4 30  1  0  0  0  0
  5 31  1  0  0  0  0
  6 32  1  0  0  0  0
  7 33  1  0  0  0  0
  8 34  1  0  0  0  0
  9 35  1  0  0  0  0
 10 36  1  0  0  0  0
 11 37  1  0  0  0  0
 18 38  1  0  0  0  0
 18 39  1  0  0  0  0
 24 40  1  0  0  0  0
 25 41  1  0  0  0  0
M  END
> <Catalog ID>
Z1940534458

> <PlateID>
1041831-R-01

> <Well>
F09

> <MW (desalted)>
345.358

> <ClogP>
1.245

> <HBD>
2

> <TPSA>
97.620

> <RotBonds>
4

> <ROCS_ShapeQuery>
A71EV2A-x0451_0A_A71EV2A-x0310_0A_A71EV2A-x0416_0A_peptide

> <ROCS_TanimotoCombo>
0.518 

> <ROCS_ShapeTanimoto>
0.325 

> <ROCS_ColorTanimoto>
0.193 

> <ROCS_RefTversky>
0.299 

> <ROCS_RefColorTversky>
0.225 

> <ROCS_RefTverskyCombo>
0.525 

> <ROCS_FitTversky>
1.365 

> <ROCS_FitColorTversky>
0.574 

> <ROCS_FitTverskyCombo>
1.938 

> <ROCS_ColorScore>
-6.916

> <ROCS_Overlap>
2081.917

> <ROCS_Rank>
378                 

$$$$
untitled-dbase-489_209
  -OEChem-11132311063D

 37 39  0     0  0  0  0  0  0999 V2000
   14.1359   16.8113   19.3690 C   0  0  0  0  0  0  0  0  0  0  0  0
    7.2898   11.7021   25.1290 C   0  0  0  0  0  0  0  0  0  0  0  0
   13.3693   16.3484   18.3054 C   0  0  0  0  0  0  0  0  0  0  0  0
    8.2908   12.3182   24.3781 C   0  0  0  0  0  0  0  0  0  0  0  0
    7.1438   10.3154   25.0921 C   0  0  0  0  0  0  0  0  0  0  0  0
   13.8880   16.3412   20.6539 C   0  0  0  0  0  0  0  0  0  0  0  0
   11.6458    8.4811   21.9175 C   0  0  0  0  0  0  0  0  0  0  0  0
   12.3747   15.4228   18.5773 C   0  0  0  0  0  0  0  0  0  0  0  0
   10.4691    8.0750   21.2598 C   0  0  0  0  0  0  0  0  0  0  0  0
   11.2129    9.3453   22.8933 C   0  0  0  0  0  0  0  0  0  0  0  0
    8.9999   10.1609   23.5533 C   0  0  0  0  0  0  0  0  0  0  0  0
    9.1458   11.5477   23.5902 C   0  0  0  0  0  0  0  0  0  0  0  0
    7.9988    9.5448   24.3042 C   0  0  0  0  0  0  0  0  0  0  0  0
   12.8701   15.4161   20.8206 C   0  0  0  0  0  0  0  0  0  0  0  0
   10.8111   13.3955   23.1507 C   0  0  0  0  0  0  0  0  0  0  0  0
   12.5745   14.8870   22.1943 C   0  0  0  0  0  0  0  0  0  0  0  0
   12.1044   14.9430   19.8119 N   0  0  0  0  0  0  0  0  0  0  0  0
    9.3712    8.6351   21.7745 N   0  0  0  0  0  0  0  0  0  0  0  0
    9.8562    9.4019   22.7660 N   0  0  0  0  0  0  0  0  0  0  0  0
   10.1393   12.1964   22.8490 N   0  0  0  0  0  0  0  0  0  0  0  0
   11.7382   13.7096   22.1517 N   0  0  0  0  0  0  0  0  0  0  0  0
   10.6330   14.0946   24.1453 O   0  0  0  0  0  0  0  0  0  0  0  0
    7.7726    7.8299   24.2954 Cl  0  0  0  0  0  0  0  0  0  0  0  0
   14.9250   17.5371   19.1968 H   0  0  0  0  0  0  0  0  0  0  0  0
    6.6236   12.3022   25.7420 H   0  0  0  0  0  0  0  0  0  0  0  0
   13.5449   16.7009   17.2955 H   0  0  0  0  0  0  0  0  0  0  0  0
    8.3937   13.3999   24.4158 H   0  0  0  0  0  0  0  0  0  0  0  0
    6.3583    9.8517   25.6833 H   0  0  0  0  0  0  0  0  0  0  0  0
   14.4789   16.6944   21.4921 H   0  0  0  0  0  0  0  0  0  0  0  0
   12.6650    8.1879   21.7134 H   0  0  0  0  0  0  0  0  0  0  0  0
   11.7491   15.0305   17.7824 H   0  0  0  0  0  0  0  0  0  0  0  0
   10.3654    7.3942   20.4270 H   0  0  0  0  0  0  0  0  0  0  0  0
   11.7490    9.9065   23.6472 H   0  0  0  0  0  0  0  0  0  0  0  0
   13.5019   14.6233   22.7142 H   0  0  0  0  0  0  0  0  0  0  0  0
   12.0627   15.6394   22.8035 H   0  0  0  0  0  0  0  0  0  0  0  0
   10.4214   11.7485   21.9727 H   0  0  0  0  0  0  0  0  0  0  0  0
   11.8276   13.0810   21.3597 H   0  0  0  0  0  0  0  0  0  0  0  0
  1  3  2  0  0  0  0
  1  6  1  0  0  0  0
  2  4  2  0  0  0  0
  2  5  1  0  0  0  0
  3  8  1  0  0  0  0
  4 12  1  0  0  0  0
  5 13  2  0  0  0  0
  6 14  2  0  0  0  0
  7  9  1  0  0  0  0
  7 10  2  0  0  0  0
  8 17  2  0  0  0  0
  9 18  2  0  0  0  0
 10 19  1  0  0  0  0
 11 12  2  0  0  0  0
 11 13  1  0  0  0  0
 11 19  1  0  0  0  0
 12 20  1  0  0  0  0
 13 23  1  0  0  0  0
 14 16  1  0  0  0  0
 14 17  1  0  0  0  0
 15 20  1  0  0  0  0
 15 21  1  0  0  0  0
 15 22  2  0  0  0  0
 16 21  1  0  0  0  0
 18 19  1  0  0  0  0
  1 24  1  0  0  0  0
  2 25  1  0  0  0  0
  3 26  1  0  0  0  0
  4 27  1  0  0  0  0
  5 28  1  0  0  0  0
  6 29  1  0  0  0  0
  7 30  1  0  0  0  0
  8 31  1  0  0  0  0
  9 32  1  0  0  0  0
 10 33  1  0  0  0  0
 16 34  1  0  0  0  0
 16 35  1  0  0  0  0
 20 36  1  0  0  0  0
 21 37  1  0  0  0  0
M  END
> <Catalog ID>
Z595692196

> <PlateID>
1041831-R-07

> <Well>
A10

> <MW (desalted)>
327.768

> <ClogP>
2.706

> <HBD>
2

> <TPSA>
71.840

> <RotBonds>
4

> <ROCS_ShapeQuery>
A71EV2A-x0451_0A_A71EV2A-x0310_0A_A71EV2A-x0416_0A_peptide

> <ROCS_TanimotoCombo>
0.518 

> <ROCS_ShapeTanimoto>
0.349 

> <ROCS_ColorTanimoto>
0.170 

> <ROCS_RefTversky>
0.309 

> <ROCS_RefColorTversky>
0.189 

> <ROCS_RefTverskyCombo>
0.498 

> <ROCS_FitTversky>
1.575 

> <ROCS_FitColorTversky>
0.627 

> <ROCS_FitTverskyCombo>
2.202 

> <ROCS_ColorScore>
-5.761

> <ROCS_Overlap>
2148.444

> <ROCS_Rank>
379                 

$$$$
untitled-dbase-1079_7705
  -OEChem-11132311063D

 39 41  0     0  0  0  0  0  0999 V2000
   12.1133   16.4466   20.7244 C   0  0  0  0  0  0  0  0  0  0  0  0
   13.7206   14.6432   20.6900 C   0  0  0  0  0  0  0  0  0  0  0  0
   12.2024   16.5526   19.3365 C   0  0  0  0  0  0  0  0  0  0  0  0
   13.8097   14.7491   19.3020 C   0  0  0  0  0  0  0  0  0  0  0  0
    9.0126    9.9424   23.5811 C   0  0  0  0  0  0  0  0  0  0  0  0
   12.8724   15.4920   21.4012 C   0  0  0  0  0  0  0  0  0  0  0  0
   13.0505   15.7038   18.6253 C   0  0  0  0  0  0  0  0  0  0  0  0
    9.6963   11.0058   23.0401 C   0  0  0  0  0  0  0  0  0  0  0  0
    8.2523   11.8802   24.3512 C   0  0  0  0  0  0  0  0  0  0  0  0
    7.3857   12.6804   25.1525 C   0  0  0  0  0  0  0  0  0  0  0  0
    6.4593   12.0874   25.9300 C   0  0  0  0  0  0  0  0  0  0  0  0
    6.3169   10.6408   25.9756 C   0  0  0  0  0  0  0  0  0  0  0  0
    7.1296    9.8804   25.2241 C   0  0  0  0  0  0  0  0  0  0  0  0
   12.7767   15.3773   22.8914 C   0  0  0  0  0  0  0  0  0  0  0  0
   10.8020   10.9759   22.0706 C   0  0  0  0  0  0  0  0  0  0  0  0
   11.7924   12.1504   22.2026 C   0  0  0  0  0  0  0  0  0  0  0  0
    9.2227   12.2007   23.5197 N   0  0  0  0  0  0  0  0  0  0  0  0
    8.0847   10.4998   24.4229 N   0  0  0  0  0  0  0  0  0  0  0  0
   11.1467   13.4238   22.0282 N   0  0  0  0  0  0  0  0  0  0  0  0
   11.3526   13.9470   24.5577 O   0  0  0  0  0  0  0  0  0  0  0  0
   10.1834   15.6049   23.0607 O   0  0  0  0  0  0  0  0  0  0  0  0
   13.1342   15.8036   17.2921 F   0  0  0  0  0  0  0  0  0  0  0  0
   11.2184   14.6121   23.2765 S   0  0  0  0  0  0  0  0  0  0  0  0
   11.4502   17.1129   21.2700 H   0  0  0  0  0  0  0  0  0  0  0  0
   14.3157   13.8962   21.2088 H   0  0  0  0  0  0  0  0  0  0  0  0
   11.6110   17.2952   18.8094 H   0  0  0  0  0  0  0  0  0  0  0  0
   14.4702   14.0888   18.7480 H   0  0  0  0  0  0  0  0  0  0  0  0
    9.1006    8.8729   23.4457 H   0  0  0  0  0  0  0  0  0  0  0  0
    7.4824   13.7601   25.1264 H   0  0  0  0  0  0  0  0  0  0  0  0
    5.7910   12.6789   26.5461 H   0  0  0  0  0  0  0  0  0  0  0  0
    5.5578   10.2079   26.6157 H   0  0  0  0  0  0  0  0  0  0  0  0
    7.0780    8.7984   25.2105 H   0  0  0  0  0  0  0  0  0  0  0  0
   12.8064   16.3549   23.3805 H   0  0  0  0  0  0  0  0  0  0  0  0
   13.5740   14.7542   23.3065 H   0  0  0  0  0  0  0  0  0  0  0  0
   10.4066   10.9865   21.0334 H   0  0  0  0  0  0  0  0  0  0  0  0
   11.3759   10.0267   22.1336 H   0  0  0  0  0  0  0  0  0  0  0  0
   12.2588   12.1660   23.1928 H   0  0  0  0  0  0  0  0  0  0  0  0
   12.5866   12.0773   21.4523 H   0  0  0  0  0  0  0  0  0  0  0  0
   11.1629   13.8109   21.0596 H   0  0  0  0  0  0  0  0  0  0  0  0
  1  3  1  0  0  0  0
  1  6  2  0  0  0  0
  2  4  2  0  0  0  0
  2  6  1  0  0  0  0
  3  7  2  0  0  0  0
  4  7  1  0  0  0  0
  5  8  2  0  0  0  0
  5 18  1  0  0  0  0
  6 14  1  0  0  0  0
  7 22  1  0  0  0  0
  8 15  1  0  0  0  0
  8 17  1  0  0  0  0
  9 10  1  0  0  0  0
  9 17  2  0  0  0  0
  9 18  1  0  0  0  0
 10 11  2  0  0  0  0
 11 12  1  0  0  0  0
 12 13  2  0  0  0  0
 13 18  1  0  0  0  0
 14 23  1  0  0  0  0
 15 16  1  0  0  0  0
 16 19  1  0  0  0  0
 19 23  1  0  0  0  0
 20 23  2  0  0  0  0
 21 23  2  0  0  0  0
  1 24  1  0  0  0  0
  2 25  1  0  0  0  0
  3 26  1  0  0  0  0
  4 27  1  0  0  0  0
  5 28  1  0  0  0  0
 10 29  1  0  0  0  0
 11 30  1  0  0  0  0
 12 31  1  0  0  0  0
 13 32  1  0  0  0  0
 14 33  1  0  0  0  0
 14 34  1  0  0  0  0
 15 35  1  0  0  0  0
 15 36  1  0  0  0  0
 16 37  1  0  0  0  0
 16 38  1  0  0  0  0
 19 39  1  0  0  0  0
M  END
> <Catalog ID>
Z241739006

> <PlateID>
1041831-R-14

> <Well>
D10

> <MW (desalted)>
333.381

> <ClogP>
2.054

> <HBD>
1

> <TPSA>
63.470

> <RotBonds>
5

> <ROCS_ShapeQuery>
A71EV2A-x0451_0A_A71EV2A-x0310_0A_A71EV2A-x0416_0A_peptide

> <ROCS_TanimotoCombo>
0.518 

> <ROCS_ShapeTanimoto>
0.339 

> <ROCS_ColorTanimoto>
0.179 

> <ROCS_RefTversky>
0.302 

> <ROCS_RefColorTversky>
0.197 

> <ROCS_RefTverskyCombo>
0.500 

> <ROCS_FitTversky>
1.571 

> <ROCS_FitColorTversky>
0.654 

> <ROCS_FitTverskyCombo>
2.226 

> <ROCS_ColorScore>
-6.026

> <ROCS_Overlap>
2098.977

> <ROCS_Rank>
380                 

$$$$
untitled-dbase-1487_11360
  -OEChem-11132311063D

 50 52  0     1  0  0  0  0  0999 V2000
    6.4437   12.5371   25.5321 C   0  0  0  0  0  0  0  0  0  0  0  0
    6.2807   11.3554   26.2523 C   0  0  0  0  0  0  0  0  0  0  0  0
    7.3655   12.6144   24.4817 C   0  0  0  0  0  0  0  0  0  0  0  0
    7.0309   10.2161   25.9474 C   0  0  0  0  0  0  0  0  0  0  0  0
    9.5285    9.8963   23.3443 C   0  0  0  0  0  0  0  0  0  0  0  0
    8.1333   11.4787   24.1561 C   0  0  0  0  0  0  0  0  0  0  0  0
    9.1328   11.2039   23.1812 C   0  0  0  0  0  0  0  0  0  0  0  0
    7.9486   10.3081   24.8949 C   0  0  0  0  0  0  0  0  0  0  0  0
   15.5467   12.1529   26.2316 C   0  0  0  0  0  0  0  0  0  0  0  0
   12.1158   11.7104   22.1809 C   0  0  0  0  0  0  0  0  0  0  0  0
   11.2324   15.1736   22.2615 C   0  0  0  0  0  0  0  0  0  0  0  0
   14.6888   10.5389   24.5479 C   0  0  0  0  0  0  0  0  0  0  0  0
   15.2893   12.9296   23.8726 C   0  0  0  0  0  0  0  0  0  0  0  0
   14.0731   10.5589   23.1539 C   0  0  0  0  0  0  0  0  0  0  0  0
   13.8015   13.0129   23.5396 C   0  0  0  0  0  0  0  0  0  0  0  0
   15.6115   11.7415   24.7880 C   0  0  0  0  0  0  0  0  0  0  0  0
   11.6961   16.2395   21.3249 C   0  0  0  0  0  0  0  0  0  0  0  0
    9.6713   12.1655   22.1504 C   0  0  0  0  0  0  0  0  0  0  0  0
   11.0411   12.7095   22.5336 C   0  0  2  0  0  0  0  0  0  0  0  0
    8.8085    9.3642   24.3800 N   0  0  0  0  0  0  0  0  0  0  0  0
   13.2905   11.7770   22.9327 N   0  0  0  0  0  0  0  0  0  0  0  0
   15.2415   11.1222   27.0888 N   0  0  0  0  0  0  0  0  0  0  0  0
   11.4147   13.8799   21.7933 N   0  0  0  0  0  0  0  0  0  0  0  0
   15.7668   13.3066   26.5921 O   0  0  0  0  0  0  0  0  0  0  0  0
   11.9219   10.9042   21.2681 O   0  0  0  0  0  0  0  0  0  0  0  0
   10.7421   15.4881   23.3396 O   0  0  0  0  0  0  0  0  0  0  0  0
    5.8485   13.4096   25.7876 H   0  0  0  0  0  0  0  0  0  0  0  0
    5.5590   11.3176   27.0643 H   0  0  0  0  0  0  0  0  0  0  0  0
    7.4803   13.5427   23.9293 H   0  0  0  0  0  0  0  0  0  0  0  0
    6.9041    9.2969   26.5092 H   0  0  0  0  0  0  0  0  0  0  0  0
   10.2562    9.2958   22.8160 H   0  0  0  0  0  0  0  0  0  0  0  0
   13.8909   10.5156   25.2967 H   0  0  0  0  0  0  0  0  0  0  0  0
   15.2697    9.6177   24.6668 H   0  0  0  0  0  0  0  0  0  0  0  0
   15.8524   12.8197   22.9413 H   0  0  0  0  0  0  0  0  0  0  0  0
   15.6086   13.8651   24.3383 H   0  0  0  0  0  0  0  0  0  0  0  0
   14.8650   10.4644   22.3998 H   0  0  0  0  0  0  0  0  0  0  0  0
   13.3963    9.7047   23.0119 H   0  0  0  0  0  0  0  0  0  0  0  0
   13.2070   13.1913   24.4516 H   0  0  0  0  0  0  0  0  0  0  0  0
   13.6262   13.8850   22.8937 H   0  0  0  0  0  0  0  0  0  0  0  0
   16.6475   11.4311   24.6177 H   0  0  0  0  0  0  0  0  0  0  0  0
   10.9033   16.5648   20.6323 H   0  0  0  0  0  0  0  0  0  0  0  0
   12.0150   17.1530   21.8522 H   0  0  0  0  0  0  0  0  0  0  0  0
   12.5475   15.9643   20.6820 H   0  0  0  0  0  0  0  0  0  0  0  0
    9.7251   11.6462   21.1840 H   0  0  0  0  0  0  0  0  0  0  0  0
    8.9540   12.9838   21.9994 H   0  0  0  0  0  0  0  0  0  0  0  0
   11.1253   12.9342   23.5972 H   0  0  0  0  0  0  0  0  0  0  0  0
    8.8952    8.4159   24.7185 H   0  0  0  0  0  0  0  0  0  0  0  0
   15.1785   11.3177   28.0825 H   0  0  0  0  0  0  0  0  0  0  0  0
   15.0766   10.1738   26.7675 H   0  0  0  0  0  0  0  0  0  0  0  0
   11.8372   13.7546   20.8727 H   0  0  0  0  0  0  0  0  0  0  0  0
  1  2  2  0  0  0  0
  1  3  1  0  0  0  0
  2  4  1  0  0  0  0
  3  6  2  0  0  0  0
  4  8  2  0  0  0  0
  5  7  2  0  0  0  0
  5 20  1  0  0  0  0
  6  7  1  0  0  0  0
  6  8  1  0  0  0  0
  7 18  1  0  0  0  0
  8 20  1  0  0  0  0
  9 16  1  0  0  0  0
  9 22  1  0  0  0  0
  9 24  2  0  0  0  0
 10 19  1  0  0  0  0
 10 21  1  0  0  0  0
 10 25  2  0  0  0  0
 11 17  1  0  0  0  0
 11 23  1  0  0  0  0
 11 26  2  0  0  0  0
 12 14  1  0  0  0  0
 12 16  1  0  0  0  0
 13 15  1  0  0  0  0
 13 16  1  0  0  0  0
 14 21  1  0  0  0  0
 15 21  1  0  0  0  0
 18 19  1  0  0  0  0
 19 23  1  0  0  0  0
  1 27  1  0  0  0  0
  2 28  1  0  0  0  0
  3 29  1  0  0  0  0
  4 30  1  0  0  0  0
  5 31  1  0  0  0  0
 12 32  1  0  0  0  0
 12 33  1  0  0  0  0
 13 34  1  0  0  0  0
 13 35  1  0  0  0  0
 14 36  1  0  0  0  0
 14 37  1  0  0  0  0
 15 38  1  0  0  0  0
 15 39  1  0  0  0  0
 16 40  1  0  0  0  0
 17 41  1  0  0  0  0
 17 42  1  0  0  0  0
 17 43  1  0  0  0  0
 18 44  1  0  0  0  0
 18 45  1  0  0  0  0
 19 46  1  0  0  0  0
 20 47  1  0  0  0  0
 22 48  1  0  0  0  0
 22 49  1  0  0  0  0
 23 50  1  0  0  0  0
M  END
> <Catalog ID>
Z32398819

> <PlateID>
1041831-R-19

> <Well>
E08

> <MW (desalted)>
356.419

> <ClogP>
-1.021

> <HBD>
3

> <TPSA>
108.290

> <RotBonds>
5

> <ROCS_ShapeQuery>
A71EV2A-x0451_0A_A71EV2A-x0310_0A_A71EV2A-x0416_0A_peptide

> <ROCS_TanimotoCombo>
0.518 

> <ROCS_ShapeTanimoto>
0.333 

> <ROCS_ColorTanimoto>
0.185 

> <ROCS_RefTversky>
0.303 

> <ROCS_RefColorTversky>
0.208 

> <ROCS_RefTverskyCombo>
0.511 

> <ROCS_FitTversky>
1.429 

> <ROCS_FitColorTversky>
0.627 

> <ROCS_FitTverskyCombo>
2.056 

> <ROCS_ColorScore>
-6.364

> <ROCS_Overlap>
2104.467

> <ROCS_Rank>
381                 

$$$$
untitled-dbase-1725_1956
  -OEChem-11132311063D

 53 56  0     1  0  0  0  0  0999 V2000
    6.7595   12.6456   25.5564 C   0  0  0  0  0  0  0  0  0  0  0  0
    6.3515   11.3759   25.9601 C   0  0  0  0  0  0  0  0  0  0  0  0
    7.8508   12.8072   24.6951 C   0  0  0  0  0  0  0  0  0  0  0  0
    7.0185   10.2299   25.5177 C   0  0  0  0  0  0  0  0  0  0  0  0
   10.7710   14.6798   18.6790 C   0  0  0  0  0  0  0  0  0  0  0  0
    9.8779   10.1052   23.2985 C   0  0  0  0  0  0  0  0  0  0  0  0
    8.5388   11.6665   24.2360 C   0  0  0  0  0  0  0  0  0  0  0  0
   11.9275   15.2113   19.2826 C   0  0  0  0  0  0  0  0  0  0  0  0
    9.6562   11.4607   23.3793 C   0  0  0  0  0  0  0  0  0  0  0  0
    8.1077   10.4067   24.6570 C   0  0  0  0  0  0  0  0  0  0  0  0
   12.7968   15.3991   18.2320 C   0  0  0  0  0  0  0  0  0  0  0  0
   13.3651   12.6468   23.6300 C   0  0  0  0  0  0  0  0  0  0  0  0
   11.4425   14.8279   22.9064 C   0  0  0  0  0  0  0  0  0  0  0  0
   14.1744   15.9408   18.3065 C   0  0  0  0  0  0  0  0  0  0  0  0
   14.3760   16.6357   19.6686 C   0  0  0  0  0  0  0  0  0  0  0  0
   13.7885   15.8150   20.8370 C   0  0  0  0  0  0  0  0  0  0  0  0
   12.2666   15.5872   20.6810 C   0  0  2  0  0  0  0  0  0  0  0  0
   14.4743   12.1816   24.5140 C   0  0  0  0  0  0  0  0  0  0  0  0
   12.6563   14.9674   15.7605 C   0  0  0  0  0  0  0  0  0  0  0  0
   10.4621   12.5285   22.6808 C   0  0  0  0  0  0  0  0  0  0  0  0
   11.0514   13.5573   23.6527 C   0  0  1  0  0  0  0  0  0  0  0  0
   10.9044   14.5252   17.3564 N   0  0  0  0  0  0  0  0  0  0  0  0
    8.9387    9.4778   24.0723 N   0  0  0  0  0  0  0  0  0  0  0  0
   12.1518   14.9711   17.1132 N   0  0  0  0  0  0  0  0  0  0  0  0
   11.8078   14.5693   21.5910 N   0  0  0  0  0  0  0  0  0  0  0  0
   12.2363   13.0679   24.3113 N   0  0  0  0  0  0  0  0  0  0  0  0
   13.5142   12.6300   22.4138 O   0  0  0  0  0  0  0  0  0  0  0  0
   11.4676   15.9356   23.4386 O   0  0  0  0  0  0  0  0  0  0  0  0
    6.2247   13.5216   25.9134 H   0  0  0  0  0  0  0  0  0  0  0  0
    5.5013   11.2735   26.6296 H   0  0  0  0  0  0  0  0  0  0  0  0
    8.1560   13.8038   24.3889 H   0  0  0  0  0  0  0  0  0  0  0  0
    6.7008    9.2419   25.8333 H   0  0  0  0  0  0  0  0  0  0  0  0
    9.8376   14.3957   19.1441 H   0  0  0  0  0  0  0  0  0  0  0  0
   10.6179    9.5301   22.7592 H   0  0  0  0  0  0  0  0  0  0  0  0
   14.9218   15.1512   18.1822 H   0  0  0  0  0  0  0  0  0  0  0  0
   14.3176   16.6704   17.5019 H   0  0  0  0  0  0  0  0  0  0  0  0
   15.4475   16.7912   19.8417 H   0  0  0  0  0  0  0  0  0  0  0  0
   13.9127   17.6277   19.6408 H   0  0  0  0  0  0  0  0  0  0  0  0
   14.3084   14.8574   20.9221 H   0  0  0  0  0  0  0  0  0  0  0  0
   13.9715   16.3606   21.7685 H   0  0  0  0  0  0  0  0  0  0  0  0
   11.7415   16.5173   20.9654 H   0  0  0  0  0  0  0  0  0  0  0  0
   14.4145   11.1031   24.7317 H   0  0  0  0  0  0  0  0  0  0  0  0
   15.4663   12.3320   24.0584 H   0  0  0  0  0  0  0  0  0  0  0  0
   14.5303   12.6732   25.4984 H   0  0  0  0  0  0  0  0  0  0  0  0
   13.1566   14.0106   15.5898 H   0  0  0  0  0  0  0  0  0  0  0  0
   11.8250   15.0943   15.0615 H   0  0  0  0  0  0  0  0  0  0  0  0
   13.3594   15.7955   15.6348 H   0  0  0  0  0  0  0  0  0  0  0  0
   11.2620   12.0610   22.0907 H   0  0  0  0  0  0  0  0  0  0  0  0
    9.8135   13.0230   21.9456 H   0  0  0  0  0  0  0  0  0  0  0  0
   10.3366   13.8116   24.4441 H   0  0  0  0  0  0  0  0  0  0  0  0
    8.8654    8.4775   24.1969 H   0  0  0  0  0  0  0  0  0  0  0  0
   11.7481   13.6120   21.2533 H   0  0  0  0  0  0  0  0  0  0  0  0
   12.2433   13.0301   25.3280 H   0  0  0  0  0  0  0  0  0  0  0  0
  1  2  2  0  0  0  0
  1  3  1  0  0  0  0
  2  4  1  0  0  0  0
  3  7  2  0  0  0  0
  4 10  2  0  0  0  0
  5  8  1  0  0  0  0
  5 22  2  0  0  0  0
  6  9  2  0  0  0  0
  6 23  1  0  0  0  0
  7  9  1  0  0  0  0
  7 10  1  0  0  0  0
  8 11  2  0  0  0  0
  8 17  1  0  0  0  0
  9 20  1  0  0  0  0
 10 23  1  0  0  0  0
 11 14  1  0  0  0  0
 11 24  1  0  0  0  0
 12 18  1  0  0  0  0
 12 26  1  0  0  0  0
 12 27  2  0  0  0  0
 13 21  1  0  0  0  0
 13 25  1  0  0  0  0
 13 28  2  0  0  0  0
 14 15  1  0  0  0  0
 15 16  1  0  0  0  0
 16 17  1  0  0  0  0
 17 25  1  0  0  0  0
 19 24  1  0  0  0  0
 20 21  1  0  0  0  0
 21 26  1  0  0  0  0
 22 24  1  0  0  0  0
  1 29  1  0  0  0  0
  2 30  1  0  0  0  0
  3 31  1  0  0  0  0
  4 32  1  0  0  0  0
  5 33  1  0  0  0  0
  6 34  1  0  0  0  0
 14 35  1  0  0  0  0
 14 36  1  0  0  0  0
 15 37  1  0  0  0  0
 15 38  1  0  0  0  0
 16 39  1  0  0  0  0
 16 40  1  0  0  0  0
 17 41  1  0  0  0  0
 18 42  1  0  0  0  0
 18 43  1  0  0  0  0
 18 44  1  0  0  0  0
 19 45  1  0  0  0  0
 19 46  1  0  0  0  0
 19 47  1  0  0  0  0
 20 48  1  0  0  0  0
 20 49  1  0  0  0  0
 21 50  1  0  0  0  0
 23 51  1  0  0  0  0
 25 52  1  0  0  0  0
 26 53  1  0  0  0  0
M  END
> <Catalog ID>
Z372627788

> <PlateID>
1041831-R-22

> <Well>
E06

> <MW (desalted)>
379.456

> <ClogP>
0.811

> <HBD>
3

> <TPSA>
91.810

> <RotBonds>
5

> <ROCS_ShapeQuery>
A71EV2A-x0451_0A_A71EV2A-x0310_0A_A71EV2A-x0416_0A_peptide

> <ROCS_TanimotoCombo>
0.518 

> <ROCS_ShapeTanimoto>
0.376 

> <ROCS_ColorTanimoto>
0.142 

> <ROCS_RefTversky>
0.335 

> <ROCS_RefColorTversky>
0.169 

> <ROCS_RefTverskyCombo>
0.505 

> <ROCS_FitTversky>
1.478 

> <ROCS_FitColorTversky>
0.466 

> <ROCS_FitTverskyCombo>
1.944 

> <ROCS_ColorScore>
-5.185

> <ROCS_Overlap>
2334.126

> <ROCS_Rank>
382                 

$$$$
untitled-dbase-675_2801
  -OEChem-11132311063D

 48 52  0     1  0  0  0  0  0999 V2000
   12.4690   18.2806   20.6925 C   0  0  0  0  0  0  0  0  0  0  0  0
   11.9612   17.3904   21.6387 C   0  0  0  0  0  0  0  0  0  0  0  0
   12.9824   17.8000   19.4878 C   0  0  0  0  0  0  0  0  0  0  0  0
   12.4802   15.5391   20.1757 C   0  0  0  0  0  0  0  0  0  0  0  0
    5.9857   12.5200   28.2987 C   0  0  0  0  0  0  0  0  0  0  0  0
   11.9668   16.0197   21.3803 C   0  0  0  0  0  0  0  0  0  0  0  0
   12.9880   16.4293   19.2294 C   0  0  0  0  0  0  0  0  0  0  0  0
    4.6613   12.9895   28.3349 C   0  0  0  0  0  0  0  0  0  0  0  0
    5.9365   11.4743   27.4154 C   0  0  0  0  0  0  0  0  0  0  0  0
   11.4445   15.1043   22.3530 C   0  0  0  0  0  0  0  0  0  0  0  0
   10.9335   13.2157   23.1197 C   0  0  0  0  0  0  0  0  0  0  0  0
    8.0995   11.9472   23.6155 C   0  0  0  0  0  0  0  0  0  0  0  0
    9.3690    9.9676   24.5844 C   0  0  0  0  0  0  0  0  0  0  0  0
   10.0049   10.9108   22.2374 C   0  0  0  0  0  0  0  0  0  0  0  0
    7.4949   11.9381   25.0205 C   0  0  0  0  0  0  0  0  0  0  0  0
    7.9410    9.5179   24.8979 C   0  0  0  0  0  0  0  0  0  0  0  0
   10.7377   11.7248   23.2705 C   0  0  2  0  0  0  0  0  0  0  0  0
    9.3711   11.1170   23.5923 C   0  0  0  0  0  0  0  0  0  0  0  0
    4.1225   14.1089   29.1237 C   0  0  0  0  0  0  0  0  0  0  0  0
    6.9594   10.5098   26.8885 C   0  0  0  0  0  0  0  0  0  0  0  0
    3.8526   12.2887   27.5351 N   0  0  0  0  0  0  0  0  0  0  0  0
   10.9197   15.3263   23.5354 N   0  0  0  0  0  0  0  0  0  0  0  0
   10.5837   14.0838   24.0398 N   0  0  0  0  0  0  0  0  0  0  0  0
    7.0860   10.5869   25.4352 N   0  0  0  0  0  0  0  0  0  0  0  0
    4.6688   11.3263   26.9527 O   0  0  0  0  0  0  0  0  0  0  0  0
   11.4889   13.7863   22.0158 O   0  0  0  0  0  0  0  0  0  0  0  0
   13.4807   15.9680   18.0725 F   0  0  0  0  0  0  0  0  0  0  0  0
   12.4652   19.3481   20.8933 H   0  0  0  0  0  0  0  0  0  0  0  0
   11.5641   17.7807   22.5729 H   0  0  0  0  0  0  0  0  0  0  0  0
   13.3779   18.4925   18.7511 H   0  0  0  0  0  0  0  0  0  0  0  0
   12.4925   14.4737   19.9596 H   0  0  0  0  0  0  0  0  0  0  0  0
    6.8486   12.8863   28.8352 H   0  0  0  0  0  0  0  0  0  0  0  0
    7.3585   11.5660   22.9067 H   0  0  0  0  0  0  0  0  0  0  0  0
    8.3395   12.9729   23.3163 H   0  0  0  0  0  0  0  0  0  0  0  0
    9.8705   10.2942   25.5055 H   0  0  0  0  0  0  0  0  0  0  0  0
    9.9422    9.1145   24.1989 H   0  0  0  0  0  0  0  0  0  0  0  0
    9.5749   11.4204   21.3809 H   0  0  0  0  0  0  0  0  0  0  0  0
   10.4008    9.9295   21.9958 H   0  0  0  0  0  0  0  0  0  0  0  0
    8.2490   12.3298   25.7201 H   0  0  0  0  0  0  0  0  0  0  0  0
    6.6359   12.6280   25.0571 H   0  0  0  0  0  0  0  0  0  0  0  0
    7.4830    9.0840   23.9834 H   0  0  0  0  0  0  0  0  0  0  0  0
    7.9978    8.6862   25.6292 H   0  0  0  0  0  0  0  0  0  0  0  0
   11.6077   11.2152   23.7405 H   0  0  0  0  0  0  0  0  0  0  0  0
    4.1830   15.0594   28.5656 H   0  0  0  0  0  0  0  0  0  0  0  0
    3.0640   13.9541   29.4007 H   0  0  0  0  0  0  0  0  0  0  0  0
    4.6653   14.2488   30.0762 H   0  0  0  0  0  0  0  0  0  0  0  0
    7.9435   10.7144   27.3242 H   0  0  0  0  0  0  0  0  0  0  0  0
    6.6972    9.4786   27.1475 H   0  0  0  0  0  0  0  0  0  0  0  0
  1  2  1  0  0  0  0
  1  3  2  0  0  0  0
  2  6  2  0  0  0  0
  3  7  1  0  0  0  0
  4  6  1  0  0  0  0
  4  7  2  0  0  0  0
  5  8  1  0  0  0  0
  5  9  2  0  0  0  0
  6 10  1  0  0  0  0
  7 27  1  0  0  0  0
  8 19  1  0  0  0  0
  8 21  2  0  0  0  0
  9 20  1  0  0  0  0
  9 25  1  0  0  0  0
 10 22  2  0  0  0  0
 10 26  1  0  0  0  0
 11 17  1  0  0  0  0
 11 23  2  0  0  0  0
 11 26  1  0  0  0  0
 12 15  1  0  0  0  0
 12 18  1  0  0  0  0
 13 16  1  0  0  0  0
 13 18  1  0  0  0  0
 14 17  1  0  0  0  0
 14 18  1  0  0  0  0
 15 24  1  0  0  0  0
 16 24  1  0  0  0  0
 17 18  1  0  0  0  0
 20 24  1  0  0  0  0
 21 25  1  0  0  0  0
 22 23  1  0  0  0  0
  1 28  1  0  0  0  0
  2 29  1  0  0  0  0
  3 30  1  0  0  0  0
  4 31  1  0  0  0  0
  5 32  1  0  0  0  0
 12 33  1  0  0  0  0
 12 34  1  0  0  0  0
 13 35  1  0  0  0  0
 13 36  1  0  0  0  0
 14 37  1  0  0  0  0
 14 38  1  0  0  0  0
 15 39  1  0  0  0  0
 15 40  1  0  0  0  0
 16 41  1  0  0  0  0
 16 42  1  0  0  0  0
 17 43  1  0  0  0  0
 19 44  1  0  0  0  0
 19 45  1  0  0  0  0
 19 46  1  0  0  0  0
 20 47  1  0  0  0  0
 20 48  1  0  0  0  0
M  END
> <Catalog ID>
Z1170443434

> <PlateID>
1041831-R-09

> <Well>
D06

> <MW (desalted)>
368.405

> <ClogP>
1.632

> <HBD>
0

> <TPSA>
68.190

> <RotBonds>
4

> <ROCS_ShapeQuery>
A71EV2A-x0451_0A_A71EV2A-x0310_0A_A71EV2A-x0416_0A_peptide

> <ROCS_TanimotoCombo>
0.518 

> <ROCS_ShapeTanimoto>
0.341 

> <ROCS_ColorTanimoto>
0.177 

> <ROCS_RefTversky>
0.311 

> <ROCS_RefColorTversky>
0.197 

> <ROCS_RefTverskyCombo>
0.508 

> <ROCS_FitTversky>
1.398 

> <ROCS_FitColorTversky>
0.634 

> <ROCS_FitTverskyCombo>
2.032 

> <ROCS_ColorScore>
-6.003

> <ROCS_Overlap>
2164.774

> <ROCS_Rank>
383                 

$$$$
untitled-dbase-1192_2570
  -OEChem-11132311063D

 42 45  0     0  0  0  0  0  0999 V2000
   13.6616   11.9413   27.6550 C   0  0  0  0  0  0  0  0  0  0  0  0
   14.4594   12.7992   28.4038 C   0  0  0  0  0  0  0  0  0  0  0  0
    9.3559   10.1292   23.2763 C   0  0  0  0  0  0  0  0  0  0  0  0
   10.2805   11.0370   22.7518 C   0  0  0  0  0  0  0  0  0  0  0  0
   13.9693   11.7022   26.3203 C   0  0  0  0  0  0  0  0  0  0  0  0
    9.2438   12.8570   23.9733 C   0  0  0  0  0  0  0  0  0  0  0  0
   15.5450   13.3886   27.7760 C   0  0  0  0  0  0  0  0  0  0  0  0
   14.9678   14.9507   21.7755 C   0  0  0  0  0  0  0  0  0  0  0  0
    8.3558   10.5820   24.1639 C   0  0  0  0  0  0  0  0  0  0  0  0
   10.2234   12.3828   23.0971 C   0  0  0  0  0  0  0  0  0  0  0  0
    8.3185   11.9395   24.4964 C   0  0  0  0  0  0  0  0  0  0  0  0
   15.0766   12.3409   25.7858 C   0  0  0  0  0  0  0  0  0  0  0  0
   13.7528   14.6116   22.3332 C   0  0  0  0  0  0  0  0  0  0  0  0
    6.6189   10.5534   25.5238 C   0  0  0  0  0  0  0  0  0  0  0  0
   15.0205   13.1822   23.4101 C   0  0  0  0  0  0  0  0  0  0  0  0
   11.2639   14.6558   22.7875 C   0  0  0  0  0  0  0  0  0  0  0  0
    5.4722   10.0542   26.3135 C   0  0  0  0  0  0  0  0  0  0  0  0
   15.4431   12.1032   24.3293 C   0  0  0  0  0  0  0  0  0  0  0  0
   12.4269   15.2470   22.0064 C   0  0  0  0  0  0  0  0  0  0  0  0
   15.8753   13.1808   26.4817 N   0  0  0  0  0  0  0  0  0  0  0  0
    7.3764    9.8012   24.7603 N   0  0  0  0  0  0  0  0  0  0  0  0
   13.7811   13.5974   23.2705 N   0  0  0  0  0  0  0  0  0  0  0  0
   11.1564   13.2735   22.5634 N   0  0  0  0  0  0  0  0  0  0  0  0
   10.5412   15.3395   23.5053 O   0  0  0  0  0  0  0  0  0  0  0  0
   16.2029   13.9676   22.4457 S   0  0  0  0  0  0  0  0  0  0  0  0
    7.0117   12.2171   25.5865 S   0  0  0  0  0  0  0  0  0  0  0  0
   12.8017   11.4598   28.1109 H   0  0  0  0  0  0  0  0  0  0  0  0
   14.2386   13.0002   29.4458 H   0  0  0  0  0  0  0  0  0  0  0  0
    9.4083    9.0802   22.9991 H   0  0  0  0  0  0  0  0  0  0  0  0
   11.0461   10.6738   22.0701 H   0  0  0  0  0  0  0  0  0  0  0  0
   13.3549   11.0351   25.7253 H   0  0  0  0  0  0  0  0  0  0  0  0
    9.1972   13.9079   24.2453 H   0  0  0  0  0  0  0  0  0  0  0  0
   16.1985   14.0656   28.3162 H   0  0  0  0  0  0  0  0  0  0  0  0
   15.1855   15.7039   21.0314 H   0  0  0  0  0  0  0  0  0  0  0  0
    5.7925    9.7433   27.3202 H   0  0  0  0  0  0  0  0  0  0  0  0
    4.6889   10.8209   26.4301 H   0  0  0  0  0  0  0  0  0  0  0  0
    4.9868    9.1898   25.8315 H   0  0  0  0  0  0  0  0  0  0  0  0
   16.5370   11.9335   24.2696 H   0  0  0  0  0  0  0  0  0  0  0  0
   15.0199   11.1265   24.0193 H   0  0  0  0  0  0  0  0  0  0  0  0
   12.4749   16.3245   22.2092 H   0  0  0  0  0  0  0  0  0  0  0  0
   12.2227   15.1390   20.9335 H   0  0  0  0  0  0  0  0  0  0  0  0
   11.8514   12.8670   21.9270 H   0  0  0  0  0  0  0  0  0  0  0  0
  1  2  2  0  0  0  0
  1  5  1  0  0  0  0
  2  7  1  0  0  0  0
  3  4  1  0  0  0  0
  3  9  2  0  0  0  0
  4 10  2  0  0  0  0
  5 12  2  0  0  0  0
  6 10  1  0  0  0  0
  6 11  2  0  0  0  0
  7 20  2  0  0  0  0
  8 13  2  0  0  0  0
  8 25  1  0  0  0  0
  9 11  1  0  0  0  0
  9 21  1  0  0  0  0
 10 23  1  0  0  0  0
 11 26  1  0  0  0  0
 12 18  1  0  0  0  0
 12 20  1  0  0  0  0
 13 19  1  0  0  0  0
 13 22  1  0  0  0  0
 14 17  1  0  0  0  0
 14 21  2  0  0  0  0
 14 26  1  0  0  0  0
 15 18  1  0  0  0  0
 15 22  2  0  0  0  0
 15 25  1  0  0  0  0
 16 19  1  0  0  0  0
 16 23  1  0  0  0  0
 16 24  2  0  0  0  0
  1 27  1  0  0  0  0
  2 28  1  0  0  0  0
  3 29  1  0  0  0  0
  4 30  1  0  0  0  0
  5 31  1  0  0  0  0
  6 32  1  0  0  0  0
  7 33  1  0  0  0  0
  8 34  1  0  0  0  0
 17 35  1  0  0  0  0
 17 36  1  0  0  0  0
 17 37  1  0  0  0  0
 18 38  1  0  0  0  0
 18 39  1  0  0  0  0
 19 40  1  0  0  0  0
 19 41  1  0  0  0  0
 23 42  1  0  0  0  0
M  END
> <Catalog ID>
Z441835674

> <PlateID>
1041831-R-15

> <Well>
H03

> <MW (desalted)>
380.487

> <ClogP>
2.719

> <HBD>
1

> <TPSA>
67.770

> <RotBonds>
5

> <ROCS_ShapeQuery>
A71EV2A-x0451_0A_A71EV2A-x0310_0A_A71EV2A-x0416_0A_peptide

> <ROCS_TanimotoCombo>
0.518 

> <ROCS_ShapeTanimoto>
0.328 

> <ROCS_ColorTanimoto>
0.190 

> <ROCS_RefTversky>
0.299 

> <ROCS_RefColorTversky>
0.212 

> <ROCS_RefTverskyCombo>
0.512 

> <ROCS_FitTversky>
1.418 

> <ROCS_FitColorTversky>
0.639 

> <ROCS_FitTverskyCombo>
2.057 

> <ROCS_ColorScore>
-6.489

> <ROCS_Overlap>
2081.370

> <ROCS_Rank>
384                 

$$$$
untitled-dbase-1562_3588
  -OEChem-11132311063D

 36 38  0     1  0  0  0  0  0999 V2000
    6.9865   12.8760   25.4966 C   0  0  0  0  0  0  0  0  0  0  0  0
    6.6614   11.7017   26.1726 C   0  0  0  0  0  0  0  0  0  0  0  0
    7.8903   12.8607   24.4280 C   0  0  0  0  0  0  0  0  0  0  0  0
    7.2270   10.4777   25.8040 C   0  0  0  0  0  0  0  0  0  0  0  0
    9.6010    9.9028   23.1301 C   0  0  0  0  0  0  0  0  0  0  0  0
    8.4733   11.6385   24.0384 C   0  0  0  0  0  0  0  0  0  0  0  0
    9.4026   11.2605   23.0293 C   0  0  0  0  0  0  0  0  0  0  0  0
    8.1289   10.4776   24.7340 C   0  0  0  0  0  0  0  0  0  0  0  0
   12.8910   14.6487   21.8348 C   0  0  0  0  0  0  0  0  0  0  0  0
   10.7384   13.8605   23.7831 C   0  0  0  0  0  0  0  0  0  0  0  0
   12.4128   15.6072   19.5032 C   0  0  0  0  0  0  0  0  0  0  0  0
   12.8447   16.7526   20.3686 C   0  0  0  0  0  0  0  0  0  0  0  0
   13.3705   15.3798   20.6248 C   0  0  0  0  0  0  0  0  0  0  0  0
   10.0463   12.1556   22.0463 C   0  0  0  0  0  0  0  0  0  0  0  0
   11.2107   12.9947   22.6243 C   0  0  1  0  0  0  0  0  0  0  0  0
    8.8283    9.4395   24.1609 N   0  0  0  0  0  0  0  0  0  0  0  0
   11.8265   13.7970   21.5971 N   0  0  0  0  0  0  0  0  0  0  0  0
   13.4431   14.8367   22.9125 O   0  0  0  0  0  0  0  0  0  0  0  0
   10.7664   13.4860   24.9508 O   0  0  0  0  0  0  0  0  0  0  0  0
   10.2876   15.0879   23.4292 O   0  0  0  0  0  0  0  0  0  0  0  0
    6.5333   13.8155   25.8013 H   0  0  0  0  0  0  0  0  0  0  0  0
    5.9571   11.7366   26.9998 H   0  0  0  0  0  0  0  0  0  0  0  0
    8.1327   13.7846   23.9106 H   0  0  0  0  0  0  0  0  0  0  0  0
    6.9742    9.5642   26.3315 H   0  0  0  0  0  0  0  0  0  0  0  0
   10.2209    9.2241   22.5606 H   0  0  0  0  0  0  0  0  0  0  0  0
   11.3902   15.2627   19.5971 H   0  0  0  0  0  0  0  0  0  0  0  0
   12.8119   15.5560   18.4975 H   0  0  0  0  0  0  0  0  0  0  0  0
   13.5341   17.4729   19.9452 H   0  0  0  0  0  0  0  0  0  0  0  0
   12.1107   17.1784   21.0420 H   0  0  0  0  0  0  0  0  0  0  0  0
   14.3976   15.1756   20.3841 H   0  0  0  0  0  0  0  0  0  0  0  0
    9.2894   12.8411   21.6143 H   0  0  0  0  0  0  0  0  0  0  0  0
   10.4206   11.5884   21.1686 H   0  0  0  0  0  0  0  0  0  0  0  0
   12.0011   12.3432   23.0145 H   0  0  0  0  0  0  0  0  0  0  0  0
    8.7781    8.4750   24.4588 H   0  0  0  0  0  0  0  0  0  0  0  0
   11.4602   13.7340   20.6501 H   0  0  0  0  0  0  0  0  0  0  0  0
   10.3130   15.2745   22.4671 H   0  0  0  0  0  0  0  0  0  0  0  0
  1  2  2  0  0  0  0
  1  3  1  0  0  0  0
  2  4  1  0  0  0  0
  3  6  2  0  0  0  0
  4  8  2  0  0  0  0
  5  7  2  0  0  0  0
  5 16  1  0  0  0  0
  6  7  1  0  0  0  0
  6  8  1  0  0  0  0
  7 14  1  0  0  0  0
  8 16  1  0  0  0  0
  9 13  1  0  0  0  0
  9 17  1  0  0  0  0
  9 18  2  0  0  0  0
 10 15  1  0  0  0  0
 10 19  2  0  0  0  0
 10 20  1  0  0  0  0
 11 12  1  0  0  0  0
 11 13  1  0  0  0  0
 12 13  1  0  0  0  0
 14 15  1  0  0  0  0
 15 17  1  0  0  0  0
  1 21  1  0  0  0  0
  2 22  1  0  0  0  0
  3 23  1  0  0  0  0
  4 24  1  0  0  0  0
  5 25  1  0  0  0  0
 11 26  1  0  0  0  0
 11 27  1  0  0  0  0
 12 28  1  0  0  0  0
 12 29  1  0  0  0  0
 13 30  1  0  0  0  0
 14 31  1  0  0  0  0
 14 32  1  0  0  0  0
 15 33  1  0  0  0  0
 16 34  1  0  0  0  0
 17 35  1  0  0  0  0
 20 36  1  0  0  0  0
M  END
> <Catalog ID>
Z85882324

> <PlateID>
1041831-R-20

> <Well>
E03

> <MW (desalted)>
272.299

> <ClogP>
1.394

> <HBD>
3

> <TPSA>
82.190

> <RotBonds>
5

> <ROCS_ShapeQuery>
A71EV2A-x0451_0A_A71EV2A-x0310_0A_A71EV2A-x0416_0A_peptide

> <ROCS_TanimotoCombo>
0.518 

> <ROCS_ShapeTanimoto>
0.343 

> <ROCS_ColorTanimoto>
0.175 

> <ROCS_RefTversky>
0.300 

> <ROCS_RefColorTversky>
0.194 

> <ROCS_RefTverskyCombo>
0.494 

> <ROCS_FitTversky>
1.708 

> <ROCS_FitColorTversky>
0.643 

> <ROCS_FitTverskyCombo>
2.351 

> <ROCS_ColorScore>
-5.923

> <ROCS_Overlap>
2082.155

> <ROCS_Rank>
385                 

$$$$
untitled-dbase-403_3588
  -OEChem-11132311063D

 36 38  0     1  0  0  0  0  0999 V2000
    6.9865   12.8760   25.4966 C   0  0  0  0  0  0  0  0  0  0  0  0
    6.6614   11.7017   26.1726 C   0  0  0  0  0  0  0  0  0  0  0  0
    7.8903   12.8607   24.4280 C   0  0  0  0  0  0  0  0  0  0  0  0
    7.2270   10.4777   25.8040 C   0  0  0  0  0  0  0  0  0  0  0  0
    9.6010    9.9028   23.1301 C   0  0  0  0  0  0  0  0  0  0  0  0
    8.4733   11.6385   24.0384 C   0  0  0  0  0  0  0  0  0  0  0  0
    9.4026   11.2605   23.0293 C   0  0  0  0  0  0  0  0  0  0  0  0
    8.1289   10.4776   24.7340 C   0  0  0  0  0  0  0  0  0  0  0  0
   12.8910   14.6487   21.8348 C   0  0  0  0  0  0  0  0  0  0  0  0
   10.7384   13.8605   23.7831 C   0  0  0  0  0  0  0  0  0  0  0  0
   12.4128   15.6072   19.5032 C   0  0  0  0  0  0  0  0  0  0  0  0
   12.8447   16.7526   20.3686 C   0  0  0  0  0  0  0  0  0  0  0  0
   13.3705   15.3798   20.6248 C   0  0  0  0  0  0  0  0  0  0  0  0
   10.0463   12.1556   22.0463 C   0  0  0  0  0  0  0  0  0  0  0  0
   11.2107   12.9947   22.6243 C   0  0  1  0  0  0  0  0  0  0  0  0
    8.8283    9.4395   24.1609 N   0  0  0  0  0  0  0  0  0  0  0  0
   11.8265   13.7970   21.5971 N   0  0  0  0  0  0  0  0  0  0  0  0
   13.4431   14.8367   22.9125 O   0  0  0  0  0  0  0  0  0  0  0  0
   10.7664   13.4860   24.9508 O   0  0  0  0  0  0  0  0  0  0  0  0
   10.2876   15.0879   23.4292 O   0  0  0  0  0  0  0  0  0  0  0  0
    6.5333   13.8155   25.8013 H   0  0  0  0  0  0  0  0  0  0  0  0
    5.9571   11.7366   26.9998 H   0  0  0  0  0  0  0  0  0  0  0  0
    8.1327   13.7846   23.9106 H   0  0  0  0  0  0  0  0  0  0  0  0
    6.9742    9.5642   26.3315 H   0  0  0  0  0  0  0  0  0  0  0  0
   10.2209    9.2241   22.5606 H   0  0  0  0  0  0  0  0  0  0  0  0
   11.3902   15.2627   19.5971 H   0  0  0  0  0  0  0  0  0  0  0  0
   12.8119   15.5560   18.4975 H   0  0  0  0  0  0  0  0  0  0  0  0
   13.5341   17.4729   19.9452 H   0  0  0  0  0  0  0  0  0  0  0  0
   12.1107   17.1784   21.0420 H   0  0  0  0  0  0  0  0  0  0  0  0
   14.3976   15.1756   20.3841 H   0  0  0  0  0  0  0  0  0  0  0  0
    9.2894   12.8411   21.6143 H   0  0  0  0  0  0  0  0  0  0  0  0
   10.4206   11.5884   21.1686 H   0  0  0  0  0  0  0  0  0  0  0  0
   12.0011   12.3432   23.0145 H   0  0  0  0  0  0  0  0  0  0  0  0
    8.7781    8.4750   24.4588 H   0  0  0  0  0  0  0  0  0  0  0  0
   11.4602   13.7340   20.6501 H   0  0  0  0  0  0  0  0  0  0  0  0
   10.3130   15.2745   22.4671 H   0  0  0  0  0  0  0  0  0  0  0  0
  1  2  2  0  0  0  0
  1  3  1  0  0  0  0
  2  4  1  0  0  0  0
  3  6  2  0  0  0  0
  4  8  2  0  0  0  0
  5  7  2  0  0  0  0
  5 16  1  0  0  0  0
  6  7  1  0  0  0  0
  6  8  1  0  0  0  0
  7 14  1  0  0  0  0
  8 16  1  0  0  0  0
  9 13  1  0  0  0  0
  9 17  1  0  0  0  0
  9 18  2  0  0  0  0
 10 15  1  0  0  0  0
 10 19  2  0  0  0  0
 10 20  1  0  0  0  0
 11 12  1  0  0  0  0
 11 13  1  0  0  0  0
 12 13  1  0  0  0  0
 14 15  1  0  0  0  0
 15 17  1  6  0  0  0
  1 21  1  0  0  0  0
  2 22  1  0  0  0  0
  3 23  1  0  0  0  0
  4 24  1  0  0  0  0
  5 25  1  0  0  0  0
 11 26  1  0  0  0  0
 11 27  1  0  0  0  0
 12 28  1  0  0  0  0
 12 29  1  0  0  0  0
 13 30  1  0  0  0  0
 14 31  1  0  0  0  0
 14 32  1  0  0  0  0
 15 33  1  0  0  0  0
 16 34  1  0  0  0  0
 17 35  1  0  0  0  0
 20 36  1  0  0  0  0
M  END
> <Catalog ID>
Z210803568

> <PlateID>
1041831-R-06

> <Well>
A04

> <MW (desalted)>
272.299

> <ClogP>
1.394

> <HBD>
3

> <TPSA>
82.190

> <RotBonds>
5

> <ROCS_ShapeQuery>
A71EV2A-x0451_0A_A71EV2A-x0310_0A_A71EV2A-x0416_0A_peptide

> <ROCS_TanimotoCombo>
0.518 

> <ROCS_ShapeTanimoto>
0.343 

> <ROCS_ColorTanimoto>
0.175 

> <ROCS_RefTversky>
0.300 

> <ROCS_RefColorTversky>
0.194 

> <ROCS_RefTverskyCombo>
0.494 

> <ROCS_FitTversky>
1.708 

> <ROCS_FitColorTversky>
0.643 

> <ROCS_FitTverskyCombo>
2.351 

> <ROCS_ColorScore>
-5.923

> <ROCS_Overlap>
2082.155

> <ROCS_Rank>
386                 

$$$$
untitled-dbase-268_114
  -OEChem-11132311063D

 46 49  0     1  0  0  0  0  0999 V2000
   13.1260   16.3173   21.8721 C   0  0  0  0  0  0  0  0  0  0  0  0
   13.0916   16.0535   20.5188 C   0  0  0  0  0  0  0  0  0  0  0  0
   11.6153   14.7274   21.8843 C   0  0  0  0  0  0  0  0  0  0  0  0
    6.5353   10.9956   25.6337 C   0  0  0  0  0  0  0  0  0  0  0  0
   10.1895   13.5056   23.5572 C   0  0  0  0  0  0  0  0  0  0  0  0
    8.8468    9.9554   23.0998 C   0  0  0  0  0  0  0  0  0  0  0  0
    9.7866   11.1534   22.9631 C   0  0  0  0  0  0  0  0  0  0  0  0
    4.7196   13.3185   28.8065 C   0  0  0  0  0  0  0  0  0  0  0  0
    5.8671   12.3563   29.1532 C   0  0  0  0  0  0  0  0  0  0  0  0
    5.0801   12.9092   26.3574 C   0  0  0  0  0  0  0  0  0  0  0  0
    4.2842   11.2021   27.8122 C   0  0  0  0  0  0  0  0  0  0  0  0
    8.3919    9.7733   24.5456 C   0  0  0  0  0  0  0  0  0  0  0  0
    8.6899   12.1857   24.9876 C   0  0  0  0  0  0  0  0  0  0  0  0
    6.2638   12.0034   26.7219 C   0  0  1  0  0  0  0  0  0  0  0  0
    9.1437   12.4082   23.5483 C   0  0  1  0  0  0  0  0  0  0  0  0
    4.1130   12.6937   27.5371 C   0  0  1  0  0  0  0  0  0  0  0  0
    5.7975   11.3182   28.0192 C   0  0  1  0  0  0  0  0  0  0  0  0
   12.2798   15.5581   22.6566 N   0  0  0  0  0  0  0  0  0  0  0  0
    7.8117   11.0109   25.0723 N   0  0  0  0  0  0  0  0  0  0  0  0
   10.6468   13.7716   22.2728 N   0  0  0  0  0  0  0  0  0  0  0  0
    5.6381   10.2208   25.2923 O   0  0  0  0  0  0  0  0  0  0  0  0
   10.5294   14.0408   24.6074 O   0  0  0  0  0  0  0  0  0  0  0  0
   11.9587   14.8048   20.2047 S   0  0  0  0  0  0  0  0  0  0  0  0
   13.7573   17.0590   22.3424 H   0  0  0  0  0  0  0  0  0  0  0  0
   13.6609   16.5175   19.7264 H   0  0  0  0  0  0  0  0  0  0  0  0
    7.9734   10.0993   22.4543 H   0  0  0  0  0  0  0  0  0  0  0  0
    9.3493    9.0438   22.7552 H   0  0  0  0  0  0  0  0  0  0  0  0
   10.7319   10.9329   23.4528 H   0  0  0  0  0  0  0  0  0  0  0  0
    9.9852   11.3203   21.9057 H   0  0  0  0  0  0  0  0  0  0  0  0
    3.9867   13.3385   29.6208 H   0  0  0  0  0  0  0  0  0  0  0  0
    5.0756   14.3404   28.6419 H   0  0  0  0  0  0  0  0  0  0  0  0
    6.8337   12.8671   29.2017 H   0  0  0  0  0  0  0  0  0  0  0  0
    5.6823   11.8842   30.1249 H   0  0  0  0  0  0  0  0  0  0  0  0
    5.3871   13.9570   26.2713 H   0  0  0  0  0  0  0  0  0  0  0  0
    4.6077   12.6150   25.4128 H   0  0  0  0  0  0  0  0  0  0  0  0
    3.7515   10.8639   28.7076 H   0  0  0  0  0  0  0  0  0  0  0  0
    4.0032   10.5720   26.9627 H   0  0  0  0  0  0  0  0  0  0  0  0
    7.6218    8.9952   24.6119 H   0  0  0  0  0  0  0  0  0  0  0  0
    9.2382    9.4468   25.1586 H   0  0  0  0  0  0  0  0  0  0  0  0
    9.5489   12.0955   25.6424 H   0  0  0  0  0  0  0  0  0  0  0  0
    8.0988   13.0375   25.3236 H   0  0  0  0  0  0  0  0  0  0  0  0
    7.1840   12.5764   26.8595 H   0  0  0  0  0  0  0  0  0  0  0  0
    8.3420   12.7400   22.9429 H   0  0  0  0  0  0  0  0  0  0  0  0
    3.0927   13.0232   27.3314 H   0  0  0  0  0  0  0  0  0  0  0  0
    6.3030   10.3776   28.2501 H   0  0  0  0  0  0  0  0  0  0  0  0
   10.2467   13.2233   21.5143 H   0  0  0  0  0  0  0  0  0  0  0  0
  1  2  2  0  0  0  0
  1 18  1  0  0  0  0
  2 23  1  0  0  0  0
  3 18  2  0  0  0  0
  3 20  1  0  0  0  0
  3 23  1  0  0  0  0
  4 14  1  0  0  0  0
  4 19  1  0  0  0  0
  4 21  2  0  0  0  0
  5 15  1  0  0  0  0
  5 20  1  0  0  0  0
  5 22  2  0  0  0  0
  6  7  1  0  0  0  0
  6 12  1  0  0  0  0
  7 15  1  0  0  0  0
  8  9  1  0  0  0  0
  8 16  1  0  0  0  0
  9 17  1  0  0  0  0
 10 14  1  0  0  0  0
 10 16  1  0  0  0  0
 11 16  1  0  0  0  0
 11 17  1  0  0  0  0
 12 19  1  0  0  0  0
 13 15  1  0  0  0  0
 13 19  1  0  0  0  0
 14 17  1  0  0  0  0
  1 24  1  0  0  0  0
  2 25  1  0  0  0  0
  6 26  1  0  0  0  0
  6 27  1  0  0  0  0
  7 28  1  0  0  0  0
  7 29  1  0  0  0  0
  8 30  1  0  0  0  0
  8 31  1  0  0  0  0
  9 32  1  0  0  0  0
  9 33  1  0  0  0  0
 10 34  1  0  0  0  0
 10 35  1  0  0  0  0
 11 36  1  0  0  0  0
 11 37  1  0  0  0  0
 12 38  1  0  0  0  0
 12 39  1  0  0  0  0
 13 40  1  0  0  0  0
 13 41  1  0  0  0  0
 14 42  1  0  0  0  0
 15 43  1  0  0  0  0
 16 44  1  0  0  0  0
 17 45  1  0  0  0  0
 20 46  1  0  0  0  0
M  END
> <Catalog ID>
Z757002704

> <PlateID>
1041831-R-04

> <Well>
C09

> <MW (desalted)>
333.448

> <ClogP>
2.537

> <HBD>
1

> <TPSA>
62.300

> <RotBonds>
3

> <ROCS_ShapeQuery>
A71EV2A-x0451_0A_A71EV2A-x0310_0A_A71EV2A-x0416_0A_peptide

> <ROCS_TanimotoCombo>
0.518 

> <ROCS_ShapeTanimoto>
0.331 

> <ROCS_ColorTanimoto>
0.187 

> <ROCS_RefTversky>
0.297 

> <ROCS_RefColorTversky>
0.226 

> <ROCS_RefTverskyCombo>
0.522 

> <ROCS_FitTversky>
1.534 

> <ROCS_FitColorTversky>
0.522 

> <ROCS_FitTverskyCombo>
2.056 

> <ROCS_ColorScore>
-6.939

> <ROCS_Overlap>
2060.259

> <ROCS_Rank>
387                 

$$$$
untitled-dbase-2334_2957
  -OEChem-11132311063D

 54 57  0     1  0  0  0  0  0999 V2000
   12.8838   14.5954   28.9993 C   0  0  0  0  0  0  0  0  0  0  0  0
   13.3424   13.5163   29.7522 C   0  0  0  0  0  0  0  0  0  0  0  0
   12.9310   14.5647   27.6008 C   0  0  0  0  0  0  0  0  0  0  0  0
   13.8615   12.3750   29.1343 C   0  0  0  0  0  0  0  0  0  0  0  0
    8.1177    8.7005   24.5235 C   0  0  0  0  0  0  0  0  0  0  0  0
   14.2017   11.8004   25.5748 C   0  0  0  0  0  0  0  0  0  0  0  0
   13.4503   13.4248   26.9555 C   0  0  0  0  0  0  0  0  0  0  0  0
    8.7313    9.8724   24.1129 C   0  0  0  0  0  0  0  0  0  0  0  0
   13.6450   13.0585   25.5943 C   0  0  0  0  0  0  0  0  0  0  0  0
   13.9026   12.3584   27.7356 C   0  0  0  0  0  0  0  0  0  0  0  0
    8.0744   11.0510   24.4533 C   0  0  0  0  0  0  0  0  0  0  0  0
    6.3983    9.8578   25.4491 C   0  0  0  0  0  0  0  0  0  0  0  0
   10.9261   13.3225   23.9580 C   0  0  0  0  0  0  0  0  0  0  0  0
   12.0275   15.1018   21.9035 C   0  0  0  0  0  0  0  0  0  0  0  0
   10.0515    9.8693   23.4035 C   0  0  0  0  0  0  0  0  0  0  0  0
    8.6379   12.3905   24.0569 C   0  0  0  0  0  0  0  0  0  0  0  0
   10.3254   11.1970   22.7000 C   0  0  0  0  0  0  0  0  0  0  0  0
   12.0180   15.4854   20.4609 C   0  0  0  0  0  0  0  0  0  0  0  0
    4.4083   11.2129   26.1498 C   0  0  0  0  0  0  0  0  0  0  0  0
   13.3075   13.8916   24.3823 C   0  0  0  0  0  0  0  0  0  0  0  0
    5.1001    9.8525   26.1833 C   0  0  0  0  0  0  0  0  0  0  0  0
   12.3382   13.1790   23.4491 C   0  0  2  0  0  0  0  0  0  0  0  0
    6.9471    8.6576   25.1910 N   0  0  0  0  0  0  0  0  0  0  0  0
    6.8950   11.0643   25.1168 N   0  0  0  0  0  0  0  0  0  0  0  0
   14.3531   11.3864   26.8710 N   0  0  0  0  0  0  0  0  0  0  0  0
   10.0270   12.3196   23.5962 N   0  0  0  0  0  0  0  0  0  0  0  0
   12.2822   13.7578   22.1380 N   0  0  0  0  0  0  0  0  0  0  0  0
   10.6319   14.2948   24.6580 O   0  0  0  0  0  0  0  0  0  0  0  0
   11.8209   15.9563   22.7573 O   0  0  0  0  0  0  0  0  0  0  0  0
   12.4839   15.4717   29.5025 H   0  0  0  0  0  0  0  0  0  0  0  0
   13.2963   13.5615   30.8373 H   0  0  0  0  0  0  0  0  0  0  0  0
   12.5687   15.4136   27.0280 H   0  0  0  0  0  0  0  0  0  0  0  0
   14.2193   11.5360   29.7213 H   0  0  0  0  0  0  0  0  0  0  0  0
    8.5634    7.7312   24.3222 H   0  0  0  0  0  0  0  0  0  0  0  0
   14.5025   11.1616   24.7558 H   0  0  0  0  0  0  0  0  0  0  0  0
   10.8439    9.6686   24.1368 H   0  0  0  0  0  0  0  0  0  0  0  0
   10.0760    9.0625   22.6596 H   0  0  0  0  0  0  0  0  0  0  0  0
    8.0482   12.7925   23.2293 H   0  0  0  0  0  0  0  0  0  0  0  0
    8.5521   13.0675   24.9063 H   0  0  0  0  0  0  0  0  0  0  0  0
   11.3605   11.2296   22.3561 H   0  0  0  0  0  0  0  0  0  0  0  0
    9.6804   11.3098   21.8234 H   0  0  0  0  0  0  0  0  0  0  0  0
   11.0172   15.3962   20.0087 H   0  0  0  0  0  0  0  0  0  0  0  0
   12.3165   16.5342   20.3027 H   0  0  0  0  0  0  0  0  0  0  0  0
   12.6831   14.8939   19.8116 H   0  0  0  0  0  0  0  0  0  0  0  0
    5.0556   11.9930   26.5645 H   0  0  0  0  0  0  0  0  0  0  0  0
    3.4841   11.1922   26.7357 H   0  0  0  0  0  0  0  0  0  0  0  0
    4.1531   11.4985   25.1236 H   0  0  0  0  0  0  0  0  0  0  0  0
   12.8780   14.8437   24.7224 H   0  0  0  0  0  0  0  0  0  0  0  0
   14.2312   14.1637   23.8533 H   0  0  0  0  0  0  0  0  0  0  0  0
    4.4224    9.0938   25.7599 H   0  0  0  0  0  0  0  0  0  0  0  0
    5.2534    9.5525   27.2325 H   0  0  0  0  0  0  0  0  0  0  0  0
   12.5526   12.1152   23.3467 H   0  0  0  0  0  0  0  0  0  0  0  0
   14.7396   10.4962   27.1531 H   0  0  0  0  0  0  0  0  0  0  0  0
   12.4382   13.1484   21.3341 H   0  0  0  0  0  0  0  0  0  0  0  0
  1  2  2  0  0  0  0
  1  3  1  0  0  0  0
  2  4  1  0  0  0  0
  3  7  2  0  0  0  0
  4 10  2  0  0  0  0
  5  8  2  0  0  0  0
  5 23  1  0  0  0  0
  6  9  2  0  0  0  0
  6 25  1  0  0  0  0
  7  9  1  0  0  0  0
  7 10  1  0  0  0  0
  8 11  1  0  0  0  0
  8 15  1  0  0  0  0
  9 20  1  0  0  0  0
 10 25  1  0  0  0  0
 11 16  1  0  0  0  0
 11 24  2  0  0  0  0
 12 21  1  0  0  0  0
 12 23  2  0  0  0  0
 12 24  1  0  0  0  0
 13 22  1  0  0  0  0
 13 26  1  0  0  0  0
 13 28  2  0  0  0  0
 14 18  1  0  0  0  0
 14 27  1  0  0  0  0
 14 29  2  0  0  0  0
 15 17  1  0  0  0  0
 16 26  1  0  0  0  0
 17 26  1  0  0  0  0
 19 21  1  0  0  0  0
 20 22  1  0  0  0  0
 22 27  1  0  0  0  0
  1 30  1  0  0  0  0
  2 31  1  0  0  0  0
  3 32  1  0  0  0  0
  4 33  1  0  0  0  0
  5 34  1  0  0  0  0
  6 35  1  0  0  0  0
 15 36  1  0  0  0  0
 15 37  1  0  0  0  0
 16 38  1  0  0  0  0
 16 39  1  0  0  0  0
 17 40  1  0  0  0  0
 17 41  1  0  0  0  0
 18 42  1  0  0  0  0
 18 43  1  0  0  0  0
 18 44  1  0  0  0  0
 19 45  1  0  0  0  0
 19 46  1  0  0  0  0
 19 47  1  0  0  0  0
 20 48  1  0  0  0  0
 20 49  1  0  0  0  0
 21 50  1  0  0  0  0
 21 51  1  0  0  0  0
 22 52  1  0  0  0  0
 25 53  1  0  0  0  0
 27 54  1  0  0  0  0
M  END
> <Catalog ID>
Z1233866596

> <PlateID>
1041831-R-30

> <Well>
B05

> <MW (desalted)>
391.466

> <ClogP>
0.650

> <HBD>
2

> <TPSA>
90.980

> <RotBonds>
5

> <ROCS_ShapeQuery>
A71EV2A-x0451_0A_A71EV2A-x0310_0A_A71EV2A-x0416_0A_peptide

> <ROCS_TanimotoCombo>
0.518 

> <ROCS_ShapeTanimoto>
0.364 

> <ROCS_ColorTanimoto>
0.154 

> <ROCS_RefTversky>
0.329 

> <ROCS_RefColorTversky>
0.186 

> <ROCS_RefTverskyCombo>
0.515 

> <ROCS_FitTversky>
1.411 

> <ROCS_FitColorTversky>
0.472 

> <ROCS_FitTverskyCombo>
1.884 

> <ROCS_ColorScore>
-5.697

> <ROCS_Overlap>
2290.838

> <ROCS_Rank>
388                 

$$$$
untitled-dbase-1050_3029
  -OEChem-11132311063D

 43 46  0     0  0  0  0  0  0999 V2000
   14.6678   12.7826   23.6643 C   0  0  0  0  0  0  0  0  0  0  0  0
   13.7510   12.0417   24.4100 C   0  0  0  0  0  0  0  0  0  0  0  0
   14.2621   13.9540   23.0248 C   0  0  0  0  0  0  0  0  0  0  0  0
   12.4284   12.4721   24.5160 C   0  0  0  0  0  0  0  0  0  0  0  0
   12.9396   14.3844   23.1309 C   0  0  0  0  0  0  0  0  0  0  0  0
   12.0227   13.6434   23.8765 C   0  0  0  0  0  0  0  0  0  0  0  0
    8.2888   12.2197   24.4027 C   0  0  0  0  0  0  0  0  0  0  0  0
    7.9195    8.5240   24.3086 C   0  0  0  0  0  0  0  0  0  0  0  0
    8.5774    7.6655   23.5214 C   0  0  0  0  0  0  0  0  0  0  0  0
    9.2297   12.2701   23.4414 C   0  0  0  0  0  0  0  0  0  0  0  0
    7.7222   10.9071   24.8170 C   0  0  0  0  0  0  0  0  0  0  0  0
    9.2376   10.0352   23.1462 C   0  0  0  0  0  0  0  0  0  0  0  0
   12.5334   15.6210   22.4492 C   0  0  0  0  0  0  0  0  0  0  0  0
   12.5914   14.5455   20.1387 C   0  0  0  0  0  0  0  0  0  0  0  0
   12.8427   16.9806   20.4074 C   0  0  0  0  0  0  0  0  0  0  0  0
   13.7407   14.5952   19.1387 C   0  0  0  0  0  0  0  0  0  0  0  0
   13.9872   16.9239   19.4062 C   0  0  0  0  0  0  0  0  0  0  0  0
    9.8078   13.5707   23.0135 C   0  0  0  0  0  0  0  0  0  0  0  0
    9.7348   11.1685   22.7802 N   0  0  0  0  0  0  0  0  0  0  0  0
    8.2678    9.8433   24.1195 N   0  0  0  0  0  0  0  0  0  0  0  0
   12.6716   15.6843   21.0616 N   0  0  0  0  0  0  0  0  0  0  0  0
    6.8642   10.8487   25.6920 O   0  0  0  0  0  0  0  0  0  0  0  0
   12.0896   16.5175   23.1652 O   0  0  0  0  0  0  0  0  0  0  0  0
   13.7730   15.8608   18.4740 O   0  0  0  0  0  0  0  0  0  0  0  0
   10.7266   14.0487   23.9936 O   0  0  0  0  0  0  0  0  0  0  0  0
    9.7005    8.4805   22.4703 S   0  0  0  0  0  0  0  0  0  0  0  0
   15.6977   12.4472   23.5819 H   0  0  0  0  0  0  0  0  0  0  0  0
   14.0673   11.1295   24.9071 H   0  0  0  0  0  0  0  0  0  0  0  0
   14.9854   14.5236   22.4468 H   0  0  0  0  0  0  0  0  0  0  0  0
   11.7192   11.8903   25.0986 H   0  0  0  0  0  0  0  0  0  0  0  0
    7.9152   13.1071   24.9007 H   0  0  0  0  0  0  0  0  0  0  0  0
    7.1725    8.2597   25.0432 H   0  0  0  0  0  0  0  0  0  0  0  0
    8.4456    6.5931   23.5193 H   0  0  0  0  0  0  0  0  0  0  0  0
   11.6352   14.5137   19.6112 H   0  0  0  0  0  0  0  0  0  0  0  0
   12.6693   13.6428   20.7562 H   0  0  0  0  0  0  0  0  0  0  0  0
   13.0693   17.7013   21.2022 H   0  0  0  0  0  0  0  0  0  0  0  0
   11.9170   17.2966   19.9167 H   0  0  0  0  0  0  0  0  0  0  0  0
   14.6941   14.4723   19.6622 H   0  0  0  0  0  0  0  0  0  0  0  0
   13.6627   13.7911   18.3974 H   0  0  0  0  0  0  0  0  0  0  0  0
   14.0999   17.8721   18.8672 H   0  0  0  0  0  0  0  0  0  0  0  0
   14.9285   16.7235   19.9277 H   0  0  0  0  0  0  0  0  0  0  0  0
    9.0211   14.3180   22.8768 H   0  0  0  0  0  0  0  0  0  0  0  0
   10.3449   13.4506   22.0689 H   0  0  0  0  0  0  0  0  0  0  0  0
  1  2  2  0  0  0  0
  1  3  1  0  0  0  0
  2  4  1  0  0  0  0
  3  5  2  0  0  0  0
  4  6  2  0  0  0  0
  5  6  1  0  0  0  0
  5 13  1  0  0  0  0
  6 25  1  0  0  0  0
  7 10  2  0  0  0  0
  7 11  1  0  0  0  0
  8  9  2  0  0  0  0
  8 20  1  0  0  0  0
  9 26  1  0  0  0  0
 10 18  1  0  0  0  0
 10 19  1  0  0  0  0
 11 20  1  0  0  0  0
 11 22  2  0  0  0  0
 12 19  2  0  0  0  0
 12 20  1  0  0  0  0
 12 26  1  0  0  0  0
 13 21  1  0  0  0  0
 13 23  2  0  0  0  0
 14 16  1  0  0  0  0
 14 21  1  0  0  0  0
 15 17  1  0  0  0  0
 15 21  1  0  0  0  0
 16 24  1  0  0  0  0
 17 24  1  0  0  0  0
 18 25  1  0  0  0  0
  1 27  1  0  0  0  0
  2 28  1  0  0  0  0
  3 29  1  0  0  0  0
  4 30  1  0  0  0  0
  7 31  1  0  0  0  0
  8 32  1  0  0  0  0
  9 33  1  0  0  0  0
 14 34  1  0  0  0  0
 14 35  1  0  0  0  0
 15 36  1  0  0  0  0
 15 37  1  0  0  0  0
 16 38  1  0  0  0  0
 16 39  1  0  0  0  0
 17 40  1  0  0  0  0
 17 41  1  0  0  0  0
 18 42  1  0  0  0  0
 18 43  1  0  0  0  0
M  END
> <Catalog ID>
Z226633836

> <PlateID>
1041831-R-14

> <Well>
A11

> <MW (desalted)>
371.410

> <ClogP>
0.751

> <HBD>
0

> <TPSA>
71.440

> <RotBonds>
4

> <ROCS_ShapeQuery>
A71EV2A-x0451_0A_A71EV2A-x0310_0A_A71EV2A-x0416_0A_peptide

> <ROCS_TanimotoCombo>
0.518 

> <ROCS_ShapeTanimoto>
0.355 

> <ROCS_ColorTanimoto>
0.162 

> <ROCS_RefTversky>
0.318 

> <ROCS_RefColorTversky>
0.186 

> <ROCS_RefTverskyCombo>
0.505 

> <ROCS_FitTversky>
1.483 

> <ROCS_FitColorTversky>
0.561 

> <ROCS_FitTverskyCombo>
2.043 

> <ROCS_ColorScore>
-5.690

> <ROCS_Overlap>
2215.068

> <ROCS_Rank>
389                 

$$$$
untitled-dbase-2533_260
  -OEChem-11132311063D

 44 47  0     1  0  0  0  0  0999 V2000
   11.2743   13.5322   23.5546 C   0  0  0  0  0  0  0  0  0  0  0  0
   12.4690   13.0365   24.0333 C   0  0  0  0  0  0  0  0  0  0  0  0
   11.3696   14.6588   25.4339 C   0  0  0  0  0  0  0  0  0  0  0  0
    7.8935    7.7274   23.0378 C   0  0  0  0  0  0  0  0  0  0  0  0
    9.3295    7.5792   23.5457 C   0  0  0  0  0  0  0  0  0  0  0  0
    7.7452    9.1742   22.5721 C   0  0  0  0  0  0  0  0  0  0  0  0
    9.9956    8.9419   23.3617 C   0  0  0  0  0  0  0  0  0  0  0  0
    8.0465   12.7337   25.0198 C   0  0  0  0  0  0  0  0  0  0  0  0
    6.7106   12.0106   24.8807 C   0  0  0  0  0  0  0  0  0  0  0  0
    9.0889   11.7602   24.4848 C   0  0  2  0  0  0  0  0  0  0  0  0
    9.0699   11.4045   22.9741 C   0  0  2  0  0  0  0  0  0  0  0  0
    8.4216   10.4066   24.7938 C   0  0  2  0  0  0  0  0  0  0  0  0
    8.8158    9.9176   23.3653 C   0  0  0  0  0  0  0  0  0  0  0  0
   13.3912   12.0442   23.4452 C   0  0  0  0  0  0  0  0  0  0  0  0
   11.0114   15.5881   26.5276 C   0  0  0  0  0  0  0  0  0  0  0  0
   10.6142   13.1499   22.2615 C   0  0  0  0  0  0  0  0  0  0  0  0
   10.6422   14.4623   24.3566 N   0  0  0  0  0  0  0  0  0  0  0  0
   10.3156   11.7252   22.2021 N   0  0  0  0  0  0  0  0  0  0  0  0
    7.0195   10.6275   25.0871 O   0  0  0  0  0  0  0  0  0  0  0  0
   12.8261   13.7586   25.5473 S   0  0  0  0  0  0  0  0  0  0  0  0
    7.6615    7.0068   22.2333 H   0  0  0  0  0  0  0  0  0  0  0  0
    7.1848    7.5209   23.8623 H   0  0  0  0  0  0  0  0  0  0  0  0
    9.3619    7.2415   24.6011 H   0  0  0  0  0  0  0  0  0  0  0  0
    9.8617    6.8071   22.9516 H   0  0  0  0  0  0  0  0  0  0  0  0
    7.9450    9.2248   21.4988 H   0  0  0  0  0  0  0  0  0  0  0  0
    6.7339    9.5387   22.7510 H   0  0  0  0  0  0  0  0  0  0  0  0
   10.6438    9.1247   24.2281 H   0  0  0  0  0  0  0  0  0  0  0  0
   10.6334    8.9746   22.4762 H   0  0  0  0  0  0  0  0  0  0  0  0
    8.0529   13.6945   24.4974 H   0  0  0  0  0  0  0  0  0  0  0  0
    8.2452   12.9260   26.0811 H   0  0  0  0  0  0  0  0  0  0  0  0
    5.9787   12.3463   25.6193 H   0  0  0  0  0  0  0  0  0  0  0  0
    6.2901   12.1230   23.8771 H   0  0  0  0  0  0  0  0  0  0  0  0
   10.0842   11.8828   24.9353 H   0  0  0  0  0  0  0  0  0  0  0  0
    8.1516   11.8729   22.4387 H   0  0  0  0  0  0  0  0  0  0  0  0
    8.8853    9.8569   25.6178 H   0  0  0  0  0  0  0  0  0  0  0  0
   14.1448   12.5328   22.8065 H   0  0  0  0  0  0  0  0  0  0  0  0
   13.9282   11.4699   24.2189 H   0  0  0  0  0  0  0  0  0  0  0  0
   12.8589   11.3008   22.8278 H   0  0  0  0  0  0  0  0  0  0  0  0
   10.4118   15.0781   27.2977 H   0  0  0  0  0  0  0  0  0  0  0  0
   11.9044   16.0084   27.0183 H   0  0  0  0  0  0  0  0  0  0  0  0
   10.4287   16.4488   26.1608 H   0  0  0  0  0  0  0  0  0  0  0  0
    9.6742   13.6972   22.1313 H   0  0  0  0  0  0  0  0  0  0  0  0
   11.2536   13.3939   21.4066 H   0  0  0  0  0  0  0  0  0  0  0  0
   10.1881   11.4497   21.2284 H   0  0  0  0  0  0  0  0  0  0  0  0
  1  2  2  0  0  0  0
  1 16  1  0  0  0  0
  1 17  1  0  0  0  0
  2 14  1  0  0  0  0
  2 20  1  0  0  0  0
  3 15  1  0  0  0  0
  3 17  2  0  0  0  0
  3 20  1  0  0  0  0
  4  5  1  0  0  0  0
  4  6  1  0  0  0  0
  5  7  1  0  0  0  0
  6 13  1  0  0  0  0
  7 13  1  0  0  0  0
  8  9  1  0  0  0  0
  8 10  1  0  0  0  0
  9 19  1  0  0  0  0
 10 11  1  0  0  0  0
 10 12  1  0  0  0  0
 11 13  1  0  0  0  0
 11 18  1  0  0  0  0
 12 13  1  0  0  0  0
 12 19  1  0  0  0  0
 16 18  1  0  0  0  0
  4 21  1  0  0  0  0
  4 22  1  0  0  0  0
  5 23  1  0  0  0  0
  5 24  1  0  0  0  0
  6 25  1  0  0  0  0
  6 26  1  0  0  0  0
  7 27  1  0  0  0  0
  7 28  1  0  0  0  0
  8 29  1  0  0  0  0
  8 30  1  0  0  0  0
  9 31  1  0  0  0  0
  9 32  1  0  0  0  0
 10 33  1  0  0  0  0
 11 34  1  0  0  0  0
 12 35  1  0  0  0  0
 14 36  1  0  0  0  0
 14 37  1  0  0  0  0
 14 38  1  0  0  0  0
 15 39  1  0  0  0  0
 15 40  1  0  0  0  0
 15 41  1  0  0  0  0
 16 42  1  0  0  0  0
 16 43  1  0  0  0  0
 18 44  1  0  0  0  0
M  END
> <Catalog ID>
Z1598002246

> <PlateID>
1041831-R-32

> <Well>
F04

> <MW (desalted)>
292.440

> <ClogP>
2.653

> <HBD>
1

> <TPSA>
34.150

> <RotBonds>
3

> <ROCS_ShapeQuery>
A71EV2A-x0451_0A_A71EV2A-x0310_0A_A71EV2A-x0416_0A_peptide

> <ROCS_TanimotoCombo>
0.518 

> <ROCS_ShapeTanimoto>
0.313 

> <ROCS_ColorTanimoto>
0.205 

> <ROCS_RefTversky>
0.280 

> <ROCS_RefColorTversky>
0.239 

> <ROCS_RefTverskyCombo>
0.518 

> <ROCS_FitTversky>
1.626 

> <ROCS_FitColorTversky>
0.588 

> <ROCS_FitTverskyCombo>
2.214 

> <ROCS_ColorScore>
-7.325

> <ROCS_Overlap>
1939.710

> <ROCS_Rank>
390                 

$$$$
untitled-dbase-1857_10
  -OEChem-11132311063D

 49 53  0     1  0  0  0  0  0999 V2000
    5.4771   10.5352   26.0872 C   0  0  0  0  0  0  0  0  0  0  0  0
    6.1945   12.8307   26.1037 C   0  0  0  0  0  0  0  0  0  0  0  0
    4.4238   10.9148   26.9036 C   0  0  0  0  0  0  0  0  0  0  0  0
    5.1090   13.1076   26.9191 C   0  0  0  0  0  0  0  0  0  0  0  0
    6.3748   11.5175   25.6841 C   0  0  0  0  0  0  0  0  0  0  0  0
    9.5546   10.5819   23.2645 C   0  0  0  0  0  0  0  0  0  0  0  0
    8.6416    9.6305   23.6844 C   0  0  0  0  0  0  0  0  0  0  0  0
    9.3578   11.8636   23.7032 C   0  0  0  0  0  0  0  0  0  0  0  0
    7.4880   11.1760   24.8366 C   0  0  0  0  0  0  0  0  0  0  0  0
   12.4876   13.9838   23.5755 C   0  0  0  0  0  0  0  0  0  0  0  0
   10.6313    9.9888   22.4284 C   0  0  0  0  0  0  0  0  0  0  0  0
    9.0200    8.2712   23.1707 C   0  0  0  0  0  0  0  0  0  0  0  0
   11.6744   12.7133   23.6940 C   0  0  0  0  0  0  0  0  0  0  0  0
    9.9856    8.6485   22.0355 C   0  0  0  0  0  0  0  0  0  0  0  0
   10.8003   15.6461   20.1165 C   0  0  0  0  0  0  0  0  0  0  0  0
   10.1749   14.2962   19.7788 C   0  0  0  0  0  0  0  0  0  0  0  0
   10.3041   16.1714   21.4616 C   0  0  0  0  0  0  0  0  0  0  0  0
   10.4134   13.2732   20.8877 C   0  0  0  0  0  0  0  0  0  0  0  0
   10.5100   15.1664   22.6017 C   0  0  1  0  0  0  0  0  0  0  0  0
    9.9218   13.7977   22.2487 C   0  0  2  0  0  0  0  0  0  0  0  0
    4.2159   12.1802   27.3314 N   0  0  0  0  0  0  0  0  0  0  0  0
    7.5900    9.8791   24.4768 N   0  0  0  0  0  0  0  0  0  0  0  0
    8.3155   12.1952   24.4961 N   0  0  0  0  0  0  0  0  0  0  0  0
   11.9147   15.0660   22.9583 N   0  0  0  0  0  0  0  0  0  0  0  0
   10.2674   12.8563   23.3205 N   0  0  1  0  0  0  0  0  0  0  0  0
   13.6499   14.0110   23.9888 O   0  0  0  0  0  0  0  0  0  0  0  0
    5.5853    9.4995   25.7814 H   0  0  0  0  0  0  0  0  0  0  0  0
    6.8742   13.6238   25.8089 H   0  0  0  0  0  0  0  0  0  0  0  0
    3.6970   10.1859   27.2471 H   0  0  0  0  0  0  0  0  0  0  0  0
    4.9235   14.1164   27.2727 H   0  0  0  0  0  0  0  0  0  0  0  0
   10.8657   10.5879   21.5443 H   0  0  0  0  0  0  0  0  0  0  0  0
   11.5345    9.8302   23.0262 H   0  0  0  0  0  0  0  0  0  0  0  0
    9.5317    7.7059   23.9560 H   0  0  0  0  0  0  0  0  0  0  0  0
    8.1565    7.7104   22.8036 H   0  0  0  0  0  0  0  0  0  0  0  0
   12.1447   11.9616   23.0511 H   0  0  0  0  0  0  0  0  0  0  0  0
   11.7483   12.3761   24.7333 H   0  0  0  0  0  0  0  0  0  0  0  0
    9.4117    8.7853   21.1082 H   0  0  0  0  0  0  0  0  0  0  0  0
   10.7278    7.8679   21.8416 H   0  0  0  0  0  0  0  0  0  0  0  0
   11.8917   15.5487   20.1353 H   0  0  0  0  0  0  0  0  0  0  0  0
   10.5599   16.3686   19.3294 H   0  0  0  0  0  0  0  0  0  0  0  0
    9.0973   14.4225   19.6259 H   0  0  0  0  0  0  0  0  0  0  0  0
   10.5911   13.9231   18.8379 H   0  0  0  0  0  0  0  0  0  0  0  0
   10.8023   17.1203   21.6962 H   0  0  0  0  0  0  0  0  0  0  0  0
    9.2329   16.3985   21.3805 H   0  0  0  0  0  0  0  0  0  0  0  0
    9.8852   12.3455   20.6334 H   0  0  0  0  0  0  0  0  0  0  0  0
   11.4824   13.0270   20.9265 H   0  0  0  0  0  0  0  0  0  0  0  0
    9.9980   15.5659   23.5015 H   0  0  0  0  0  0  0  0  0  0  0  0
    8.8284   13.9046   22.2133 H   0  0  0  0  0  0  0  0  0  0  0  0
   12.5213   15.8821   22.7772 H   0  0  0  0  0  0  0  0  0  0  0  0
  1  3  1  0  0  0  0
  1  5  2  0  0  0  0
  2  4  2  0  0  0  0
  2  5  1  0  0  0  0
  3 21  2  0  0  0  0
  4 21  1  0  0  0  0
  5  9  1  0  0  0  0
  6  7  2  0  0  0  0
  6  8  1  0  0  0  0
  6 11  1  0  0  0  0
  7 12  1  0  0  0  0
  7 22  1  0  0  0  0
  8 23  2  0  0  0  0
  8 25  1  0  0  0  0
  9 22  2  0  0  0  0
  9 23  1  0  0  0  0
 10 13  1  0  0  0  0
 10 24  1  0  0  0  0
 10 26  2  0  0  0  0
 11 14  1  0  0  0  0
 12 14  1  0  0  0  0
 13 25  1  0  0  0  0
 15 16  1  0  0  0  0
 15 17  1  0  0  0  0
 16 18  1  0  0  0  0
 17 19  1  0  0  0  0
 18 20  1  0  0  0  0
 19 20  1  0  0  0  0
 19 24  1  0  0  0  0
 20 25  1  0  0  0  0
  1 27  1  0  0  0  0
  2 28  1  0  0  0  0
  3 29  1  0  0  0  0
  4 30  1  0  0  0  0
 11 31  1  0  0  0  0
 11 32  1  0  0  0  0
 12 33  1  0  0  0  0
 12 34  1  0  0  0  0
 13 35  1  0  0  0  0
 13 36  1  0  0  0  0
 14 37  1  0  0  0  0
 14 38  1  0  0  0  0
 15 39  1  0  0  0  0
 15 40  1  0  0  0  0
 16 41  1  0  0  0  0
 16 42  1  0  0  0  0
 17 43  1  0  0  0  0
 17 44  1  0  0  0  0
 18 45  1  0  0  0  0
 18 46  1  0  0  0  0
 19 47  1  0  0  0  0
 20 48  1  0  0  0  0
 24 49  1  0  0  0  0
M  END
> <Catalog ID>
Z1411232257

> <PlateID>
1041831-R-24

> <Well>
B08

> <MW (desalted)>
349.430

> <ClogP>
2.643

> <HBD>
1

> <TPSA>
71.010

> <RotBonds>
2

> <ROCS_ShapeQuery>
A71EV2A-x0451_0A_A71EV2A-x0310_0A_A71EV2A-x0416_0A_peptide

> <ROCS_TanimotoCombo>
0.518 

> <ROCS_ShapeTanimoto>
0.398 

> <ROCS_ColorTanimoto>
0.119 

> <ROCS_RefTversky>
0.347 

> <ROCS_RefColorTversky>
0.145 

> <ROCS_RefTverskyCombo>
0.492 

> <ROCS_FitTversky>
1.593 

> <ROCS_FitColorTversky>
0.400 

> <ROCS_FitTverskyCombo>
1.993 

> <ROCS_ColorScore>
-4.450

> <ROCS_Overlap>
2413.632

> <ROCS_Rank>
391                 

$$$$
untitled-dbase-3233_3123
  -OEChem-11132311063D

 49 52  0     1  0  0  0  0  0999 V2000
   11.7960   16.2430   22.2736 C   0  0  0  0  0  0  0  0  0  0  0  0
   10.3465   13.5811   23.2231 C   0  0  0  0  0  0  0  0  0  0  0  0
   10.3585   15.9945   22.6710 C   0  0  0  0  0  0  0  0  0  0  0  0
   14.5408   16.1088   18.4455 C   0  0  0  0  0  0  0  0  0  0  0  0
   13.3331   15.3371   18.0052 C   0  0  0  0  0  0  0  0  0  0  0  0
   10.1594    9.8190   22.9730 C   0  0  0  0  0  0  0  0  0  0  0  0
    7.3236   10.5985   26.0620 C   0  0  0  0  0  0  0  0  0  0  0  0
    9.5061   11.2154   24.9591 C   0  0  0  0  0  0  0  0  0  0  0  0
   11.0374   14.4014   20.9943 C   0  0  0  0  0  0  0  0  0  0  0  0
    8.6771    9.5399   22.7742 C   0  0  0  0  0  0  0  0  0  0  0  0
    6.8783   12.0065   26.3936 C   0  0  0  0  0  0  0  0  0  0  0  0
    7.1536   11.8273   24.0903 C   0  0  0  0  0  0  0  0  0  0  0  0
   10.0584   14.6017   22.1334 C   0  0  1  0  0  0  0  0  0  0  0  0
   13.3336   16.0280   19.3456 C   0  0  0  0  0  0  0  0  0  0  0  0
   10.3869   11.1412   23.7050 C   0  0  2  0  0  0  0  0  0  0  0  0
    8.0464   10.7653   24.7298 C   0  0  2  0  0  0  0  0  0  0  0  0
   13.3882   15.2289   20.6031 C   0  0  0  0  0  0  0  0  0  0  0  0
   12.1305   15.2911   21.3161 N   0  0  0  0  0  0  0  0  0  0  0  0
   10.1670   12.2674   22.8289 N   0  0  0  0  0  0  0  0  0  0  0  0
   12.4879   17.1511   22.7101 O   0  0  0  0  0  0  0  0  0  0  0  0
   10.7043   13.9645   24.3307 O   0  0  0  0  0  0  0  0  0  0  0  0
    6.7039   12.6894   25.1453 O   0  0  0  0  0  0  0  0  0  0  0  0
    7.9993    9.5251   24.0280 O   0  0  0  0  0  0  0  0  0  0  0  0
   10.2499   16.0697   23.7569 H   0  0  0  0  0  0  0  0  0  0  0  0
    9.7372   16.7529   22.1828 H   0  0  0  0  0  0  0  0  0  0  0  0
   15.4264   15.5462   18.7142 H   0  0  0  0  0  0  0  0  0  0  0  0
   14.7418   17.0540   17.9563 H   0  0  0  0  0  0  0  0  0  0  0  0
   12.7198   15.7631   17.2208 H   0  0  0  0  0  0  0  0  0  0  0  0
   13.4066   14.2569   17.9804 H   0  0  0  0  0  0  0  0  0  0  0  0
   10.6239    8.9864   23.5222 H   0  0  0  0  0  0  0  0  0  0  0  0
   10.6455    9.8653   21.9852 H   0  0  0  0  0  0  0  0  0  0  0  0
    8.0267   10.2482   26.8338 H   0  0  0  0  0  0  0  0  0  0  0  0
    6.4738    9.9051   26.0534 H   0  0  0  0  0  0  0  0  0  0  0  0
    9.9608   10.6244   25.7778 H   0  0  0  0  0  0  0  0  0  0  0  0
    9.4941   12.2643   25.3172 H   0  0  0  0  0  0  0  0  0  0  0  0
   11.4055   13.3736   20.9128 H   0  0  0  0  0  0  0  0  0  0  0  0
   10.6179   14.7211   20.0343 H   0  0  0  0  0  0  0  0  0  0  0  0
    8.2333   10.3324   22.1706 H   0  0  0  0  0  0  0  0  0  0  0  0
    8.5169    8.5997   22.2472 H   0  0  0  0  0  0  0  0  0  0  0  0
    5.9148   12.0098   26.9150 H   0  0  0  0  0  0  0  0  0  0  0  0
    7.6074   12.5436   27.0074 H   0  0  0  0  0  0  0  0  0  0  0  0
    7.7033   12.4516   23.3745 H   0  0  0  0  0  0  0  0  0  0  0  0
    6.2749   11.4050   23.5891 H   0  0  0  0  0  0  0  0  0  0  0  0
    9.0374   14.4799   21.8383 H   0  0  0  0  0  0  0  0  0  0  0  0
   12.7263   16.9183   19.4534 H   0  0  0  0  0  0  0  0  0  0  0  0
   11.4498   11.2044   24.0068 H   0  0  0  0  0  0  0  0  0  0  0  0
   13.6077   14.1805   20.3529 H   0  0  0  0  0  0  0  0  0  0  0  0
   14.1861   15.6270   21.2471 H   0  0  0  0  0  0  0  0  0  0  0  0
    9.8654   12.0859   21.8749 H   0  0  0  0  0  0  0  0  0  0  0  0
  1  3  1  0  0  0  0
  1 18  1  0  0  0  0
  1 20  2  0  0  0  0
  2 13  1  0  0  0  0
  2 19  1  0  0  0  0
  2 21  2  0  0  0  0
  3 13  1  0  0  0  0
  4  5  1  0  0  0  0
  4 14  1  0  0  0  0
  5 14  1  0  0  0  0
  6 10  1  0  0  0  0
  6 15  1  0  0  0  0
  7 11  1  0  0  0  0
  7 16  1  0  0  0  0
  8 15  1  0  0  0  0
  8 16  1  0  0  0  0
  9 13  1  0  0  0  0
  9 18  1  0  0  0  0
 10 23  1  0  0  0  0
 11 22  1  0  0  0  0
 12 16  1  0  0  0  0
 12 22  1  0  0  0  0
 14 17  1  0  0  0  0
 15 19  1  0  0  0  0
 16 23  1  0  0  0  0
 17 18  1  0  0  0  0
  3 24  1  0  0  0  0
  3 25  1  0  0  0  0
  4 26  1  0  0  0  0
  4 27  1  0  0  0  0
  5 28  1  0  0  0  0
  5 29  1  0  0  0  0
  6 30  1  0  0  0  0
  6 31  1  0  0  0  0
  7 32  1  0  0  0  0
  7 33  1  0  0  0  0
  8 34  1  0  0  0  0
  8 35  1  0  0  0  0
  9 36  1  0  0  0  0
  9 37  1  0  0  0  0
 10 38  1  0  0  0  0
 10 39  1  0  0  0  0
 11 40  1  0  0  0  0
 11 41  1  0  0  0  0
 12 42  1  0  0  0  0
 12 43  1  0  0  0  0
 13 44  1  0  0  0  0
 14 45  1  0  0  0  0
 15 46  1  0  0  0  0
 17 47  1  0  0  0  0
 17 48  1  0  0  0  0
 19 49  1  0  0  0  0
M  END
> <Catalog ID>
Z1576443764

> <PlateID>
1041831-R-41

> <Well>
D04

> <MW (desalted)>
322.399

> <ClogP>
-0.121

> <HBD>
1

> <TPSA>
67.870

> <RotBonds>
4

> <ROCS_ShapeQuery>
A71EV2A-x0451_0A_A71EV2A-x0310_0A_A71EV2A-x0416_0A_peptide

> <ROCS_TanimotoCombo>
0.517 

> <ROCS_ShapeTanimoto>
0.345 

> <ROCS_ColorTanimoto>
0.173 

> <ROCS_RefTversky>
0.306 

> <ROCS_RefColorTversky>
0.192 

> <ROCS_RefTverskyCombo>
0.497 

> <ROCS_FitTversky>
1.586 

> <ROCS_FitColorTversky>
0.637 

> <ROCS_FitTverskyCombo>
2.223 

> <ROCS_ColorScore>
-5.855

> <ROCS_Overlap>
2123.474

> <ROCS_Rank>
392                 

$$$$
untitled-dbase-1736_4619
  -OEChem-11132311063D

 41 44  0     0  0  0  0  0  0999 V2000
    9.3123   10.3505   23.6256 C   0  0  0  0  0  0  0  0  0  0  0  0
    8.7926   12.4799   24.6155 C   0  0  0  0  0  0  0  0  0  0  0  0
    8.0818    9.9010   24.0769 C   0  0  0  0  0  0  0  0  0  0  0  0
    5.4201   13.5570   27.2787 C   0  0  0  0  0  0  0  0  0  0  0  0
    6.2525   12.4998   26.9960 C   0  0  0  0  0  0  0  0  0  0  0  0
   12.9898   15.8892   21.1309 C   0  0  0  0  0  0  0  0  0  0  0  0
    9.6669   11.6657   23.9042 C   0  0  0  0  0  0  0  0  0  0  0  0
   11.8183   15.5462   20.4754 C   0  0  0  0  0  0  0  0  0  0  0  0
    7.5852   11.9352   25.0223 C   0  0  0  0  0  0  0  0  0  0  0  0
    6.1455   13.9148   25.3099 C   0  0  0  0  0  0  0  0  0  0  0  0
   13.1977   15.9773   18.9502 C   0  0  0  0  0  0  0  0  0  0  0  0
   15.1751   16.5564   20.0067 C   0  0  0  0  0  0  0  0  0  0  0  0
   15.5380   16.6804   18.7187 C   0  0  0  0  0  0  0  0  0  0  0  0
   10.6508   14.4467   22.4261 C   0  0  0  0  0  0  0  0  0  0  0  0
    6.4150   14.4950   23.9766 C   0  0  0  0  0  0  0  0  0  0  0  0
   10.9890   12.2041   23.4391 C   0  0  0  0  0  0  0  0  0  0  0  0
   10.5322   15.1539   21.0741 C   0  0  0  0  0  0  0  0  0  0  0  0
    7.2060   10.6622   24.7706 N   0  0  0  0  0  0  0  0  0  0  0  0
    5.3575   14.4341   26.2250 N   0  0  0  0  0  0  0  0  0  0  0  0
   11.9573   15.6039   19.1008 N   0  0  0  0  0  0  0  0  0  0  0  0
    6.7093   12.7427   25.7313 N   0  0  0  0  0  0  0  0  0  0  0  0
   13.8633   16.1626   20.1234 N   0  0  0  0  0  0  0  0  0  0  0  0
   10.8455   13.0787   22.2989 N   0  0  0  0  0  0  0  0  0  0  0  0
   10.5804   15.0520   23.4926 O   0  0  0  0  0  0  0  0  0  0  0  0
   14.2259   16.3011   17.5883 S   0  0  0  0  0  0  0  0  0  0  0  0
    9.9721    9.6910   23.0724 H   0  0  0  0  0  0  0  0  0  0  0  0
    9.0551   13.5096   24.8404 H   0  0  0  0  0  0  0  0  0  0  0  0
    7.7579    8.8833   23.8852 H   0  0  0  0  0  0  0  0  0  0  0  0
    4.8626   13.7312   28.1874 H   0  0  0  0  0  0  0  0  0  0  0  0
    6.5444   11.6301   27.5692 H   0  0  0  0  0  0  0  0  0  0  0  0
   13.2545   15.9564   22.1771 H   0  0  0  0  0  0  0  0  0  0  0  0
   15.7888   16.7304   20.8774 H   0  0  0  0  0  0  0  0  0  0  0  0
   16.5172   16.9795   18.3724 H   0  0  0  0  0  0  0  0  0  0  0  0
    7.2826   15.1726   24.0093 H   0  0  0  0  0  0  0  0  0  0  0  0
    6.6228   13.7168   23.2240 H   0  0  0  0  0  0  0  0  0  0  0  0
    5.5534   15.0679   23.5959 H   0  0  0  0  0  0  0  0  0  0  0  0
   11.4783   12.7704   24.2391 H   0  0  0  0  0  0  0  0  0  0  0  0
   11.6661   11.3917   23.1548 H   0  0  0  0  0  0  0  0  0  0  0  0
    9.8726   16.0336   21.2205 H   0  0  0  0  0  0  0  0  0  0  0  0
    9.9628   14.4787   20.4030 H   0  0  0  0  0  0  0  0  0  0  0  0
   10.8888   12.6766   21.3671 H   0  0  0  0  0  0  0  0  0  0  0  0
  1  3  1  0  0  0  0
  1  7  2  0  0  0  0
  2  7  1  0  0  0  0
  2  9  2  0  0  0  0
  3 18  2  0  0  0  0
  4  5  2  0  0  0  0
  4 19  1  0  0  0  0
  5 21  1  0  0  0  0
  6  8  2  0  0  0  0
  6 22  1  0  0  0  0
  7 16  1  0  0  0  0
  8 17  1  0  0  0  0
  8 20  1  0  0  0  0
  9 18  1  0  0  0  0
  9 21  1  0  0  0  0
 10 15  1  0  0  0  0
 10 19  2  0  0  0  0
 10 21  1  0  0  0  0
 11 20  2  0  0  0  0
 11 22  1  0  0  0  0
 11 25  1  0  0  0  0
 12 13  2  0  0  0  0
 12 22  1  0  0  0  0
 13 25  1  0  0  0  0
 14 17  1  0  0  0  0
 14 23  1  0  0  0  0
 14 24  2  0  0  0  0
 16 23  1  0  0  0  0
  1 26  1  0  0  0  0
  2 27  1  0  0  0  0
  3 28  1  0  0  0  0
  4 29  1  0  0  0  0
  5 30  1  0  0  0  0
  6 31  1  0  0  0  0
 12 32  1  0  0  0  0
 13 33  1  0  0  0  0
 15 34  1  0  0  0  0
 15 35  1  0  0  0  0
 15 36  1  0  0  0  0
 16 37  1  0  0  0  0
 16 38  1  0  0  0  0
 17 39  1  0  0  0  0
 17 40  1  0  0  0  0
 23 41  1  0  0  0  0
M  END
> <Catalog ID>
Z651725716

> <PlateID>
1041831-R-22

> <Well>
F07

> <MW (desalted)>
352.414

> <ClogP>
0.803

> <HBD>
1

> <TPSA>
77.110

> <RotBonds>
5

> <ROCS_ShapeQuery>
A71EV2A-x0451_0A_A71EV2A-x0310_0A_A71EV2A-x0416_0A_peptide

> <ROCS_TanimotoCombo>
0.517 

> <ROCS_ShapeTanimoto>
0.339 

> <ROCS_ColorTanimoto>
0.178 

> <ROCS_RefTversky>
0.307 

> <ROCS_RefColorTversky>
0.211 

> <ROCS_RefTverskyCombo>
0.518 

> <ROCS_FitTversky>
1.455 

> <ROCS_FitColorTversky>
0.535 

> <ROCS_FitTverskyCombo>
1.990 

> <ROCS_ColorScore>
-6.467

> <ROCS_Overlap>
2133.028

> <ROCS_Rank>
393                 

$$$$
untitled-dbase-1789_570
  -OEChem-11132311063D

 44 47  0     1  0  0  0  0  0999 V2000
   13.8686   16.2465   18.8512 C   0  0  0  0  0  0  0  0  0  0  0  0
   13.2734   15.0003   18.6556 C   0  0  0  0  0  0  0  0  0  0  0  0
   13.6980   16.9187   20.0615 C   0  0  0  0  0  0  0  0  0  0  0  0
   12.5074   14.4263   19.6703 C   0  0  0  0  0  0  0  0  0  0  0  0
   12.9320   16.3447   21.0761 C   0  0  0  0  0  0  0  0  0  0  0  0
   12.3367   15.0985   20.8805 C   0  0  0  0  0  0  0  0  0  0  0  0
   11.5495   14.5076   21.9245 C   0  0  0  0  0  0  0  0  0  0  0  0
   10.3703   13.3950   23.2094 C   0  0  0  0  0  0  0  0  0  0  0  0
    6.9386   11.9714   26.3846 C   0  0  0  0  0  0  0  0  0  0  0  0
    6.6586   13.2525   24.2172 C   0  0  0  0  0  0  0  0  0  0  0  0
    9.3904   11.1915   22.7054 C   0  0  0  0  0  0  0  0  0  0  0  0
    8.9487   12.3276   24.9437 C   0  0  0  0  0  0  0  0  0  0  0  0
    5.5188   12.4965   26.5569 C   0  0  0  0  0  0  0  0  0  0  0  0
    6.2982   14.3428   25.2182 C   0  0  0  0  0  0  0  0  0  0  0  0
    9.1364    9.8527   23.4062 C   0  0  0  0  0  0  0  0  0  0  0  0
    7.0443   10.7617   24.1638 C   0  0  0  0  0  0  0  0  0  0  0  0
    7.4097   12.0776   24.8995 C   0  0  0  0  0  0  0  0  0  0  0  0
   10.9108   13.3654   21.9569 N   0  0  0  0  0  0  0  0  0  0  0  0
   10.6429   14.4841   23.9342 N   0  0  0  0  0  0  0  0  0  0  0  0
    9.5924   12.3110   23.6271 N   0  0  3  0  0  0  0  0  0  0  0  0
   11.4415   15.2381   23.0651 O   0  0  0  0  0  0  0  0  0  0  0  0
    5.4079   13.8831   26.2354 O   0  0  0  0  0  0  0  0  0  0  0  0
    8.0604    9.7852   24.3388 O   0  0  0  0  0  0  0  0  0  0  0  0
   14.4655   16.6931   18.0614 H   0  0  0  0  0  0  0  0  0  0  0  0
   13.4062   14.4771   17.7131 H   0  0  0  0  0  0  0  0  0  0  0  0
   14.1624   17.8886   20.2142 H   0  0  0  0  0  0  0  0  0  0  0  0
   12.0521   13.4531   19.5034 H   0  0  0  0  0  0  0  0  0  0  0  0
   12.8076   16.8819   22.0133 H   0  0  0  0  0  0  0  0  0  0  0  0
    7.6007   12.5822   27.0005 H   0  0  0  0  0  0  0  0  0  0  0  0
    7.0043   10.9438   26.7367 H   0  0  0  0  0  0  0  0  0  0  0  0
    5.7571   12.9115   23.7067 H   0  0  0  0  0  0  0  0  0  0  0  0
    7.3157   13.6932   23.4610 H   0  0  0  0  0  0  0  0  0  0  0  0
   10.2725   11.0879   22.0465 H   0  0  0  0  0  0  0  0  0  0  0  0
    8.5576   11.4058   22.0098 H   0  0  0  0  0  0  0  0  0  0  0  0
    9.1560   13.2879   25.4419 H   0  0  0  0  0  0  0  0  0  0  0  0
    9.4246   11.5691   25.5847 H   0  0  0  0  0  0  0  0  0  0  0  0
    4.7905   11.9260   25.9587 H   0  0  0  0  0  0  0  0  0  0  0  0
    5.2093   12.3796   27.6068 H   0  0  0  0  0  0  0  0  0  0  0  0
    7.2131   14.6963   25.7223 H   0  0  0  0  0  0  0  0  0  0  0  0
    5.8621   15.2291   24.7244 H   0  0  0  0  0  0  0  0  0  0  0  0
    8.9295    9.0786   22.6411 H   0  0  0  0  0  0  0  0  0  0  0  0
   10.0625    9.5152   23.9153 H   0  0  0  0  0  0  0  0  0  0  0  0
    6.0653   10.3794   24.4750 H   0  0  0  0  0  0  0  0  0  0  0  0
    6.9761   10.9297   23.0864 H   0  0  0  0  0  0  0  0  0  0  0  0
  1  2  2  0  0  0  0
  1  3  1  0  0  0  0
  2  4  1  0  0  0  0
  3  5  2  0  0  0  0
  4  6  2  0  0  0  0
  5  6  1  0  0  0  0
  6  7  1  0  0  0  0
  7 18  2  0  0  0  0
  7 21  1  0  0  0  0
  8 18  1  0  0  0  0
  8 19  2  0  0  0  0
  8 20  1  0  0  0  0
  9 13  1  0  0  0  0
  9 17  1  0  0  0  0
 10 14  1  0  0  0  0
 10 17  1  0  0  0  0
 11 15  1  0  0  0  0
 11 20  1  0  0  0  0
 12 17  1  0  0  0  0
 12 20  1  0  0  0  0
 13 22  1  0  0  0  0
 14 22  1  0  0  0  0
 15 23  1  0  0  0  0
 16 17  1  0  0  0  0
 16 23  1  0  0  0  0
 19 21  1  0  0  0  0
  1 24  1  0  0  0  0
  2 25  1  0  0  0  0
  3 26  1  0  0  0  0
  4 27  1  0  0  0  0
  5 28  1  0  0  0  0
  9 29  1  0  0  0  0
  9 30  1  0  0  0  0
 10 31  1  0  0  0  0
 10 32  1  0  0  0  0
 11 33  1  0  0  0  0
 11 34  1  0  0  0  0
 12 35  1  0  0  0  0
 12 36  1  0  0  0  0
 13 37  1  0  0  0  0
 13 38  1  0  0  0  0
 14 39  1  0  0  0  0
 14 40  1  0  0  0  0
 15 41  1  0  0  0  0
 15 42  1  0  0  0  0
 16 43  1  0  0  0  0
 16 44  1  0  0  0  0
M  END
> <Catalog ID>
Z1722796610

> <PlateID>
1041831-R-23

> <Well>
C10

> <MW (desalted)>
315.367

> <ClogP>
1.765

> <HBD>
0

> <TPSA>
60.620

> <RotBonds>
2

> <ROCS_ShapeQuery>
A71EV2A-x0451_0A_A71EV2A-x0310_0A_A71EV2A-x0416_0A_peptide

> <ROCS_TanimotoCombo>
0.517 

> <ROCS_ShapeTanimoto>
0.351 

> <ROCS_ColorTanimoto>
0.167 

> <ROCS_RefTversky>
0.311 

> <ROCS_RefColorTversky>
0.186 

> <ROCS_RefTverskyCombo>
0.497 

> <ROCS_FitTversky>
1.581 

> <ROCS_FitColorTversky>
0.617 

> <ROCS_FitTverskyCombo>
2.198 

> <ROCS_ColorScore>
-5.674

> <ROCS_Overlap>
2159.163

> <ROCS_Rank>
394                 

$$$$
untitled-dbase-1380_8333
  -OEChem-11132311063D

 41 43  0     0  0  0  0  0  0999 V2000
    6.3811   12.6012   28.7539 C   0  0  0  0  0  0  0  0  0  0  0  0
    5.3203   13.4746   28.5145 C   0  0  0  0  0  0  0  0  0  0  0  0
   14.1557   16.7689   20.3613 C   0  0  0  0  0  0  0  0  0  0  0  0
    6.6848   11.6025   27.8286 C   0  0  0  0  0  0  0  0  0  0  0  0
   13.2099   15.8993   20.8928 C   0  0  0  0  0  0  0  0  0  0  0  0
    4.5630   13.3493   27.3498 C   0  0  0  0  0  0  0  0  0  0  0  0
   14.2150   16.8988   18.9831 C   0  0  0  0  0  0  0  0  0  0  0  0
    9.1129   10.4309   23.6364 C   0  0  0  0  0  0  0  0  0  0  0  0
   12.5038   15.3966   18.6781 C   0  0  0  0  0  0  0  0  0  0  0  0
    8.0913   11.9449   24.8608 C   0  0  0  0  0  0  0  0  0  0  0  0
    9.1662   11.7841   24.0210 C   0  0  0  0  0  0  0  0  0  0  0  0
   12.3643   15.1961   20.0420 C   0  0  0  0  0  0  0  0  0  0  0  0
    5.9275   11.4772   26.6640 C   0  0  0  0  0  0  0  0  0  0  0  0
    4.8666   12.3506   26.4246 C   0  0  0  0  0  0  0  0  0  0  0  0
   10.1047   12.7991   23.6532 C   0  0  0  0  0  0  0  0  0  0  0  0
   11.3273   14.2455   20.5878 C   0  0  0  0  0  0  0  0  0  0  0  0
    6.2838   10.3928   25.6990 C   0  0  0  0  0  0  0  0  0  0  0  0
   11.7455   13.6017   21.9075 C   0  0  0  0  0  0  0  0  0  0  0  0
   13.4106   16.2327   18.1247 N   0  0  0  0  0  0  0  0  0  0  0  0
    8.0855    9.7785   24.1868 N   0  0  0  0  0  0  0  0  0  0  0  0
    7.4834   10.7257   24.9259 N   0  0  0  0  0  0  0  0  0  0  0  0
   10.7579   12.6733   22.4092 N   0  0  0  0  0  0  0  0  0  0  0  0
   10.3597   13.7633   24.4167 O   0  0  0  0  0  0  0  0  0  0  0  0
    3.9075   12.2264   24.9949 Cl  0  0  0  0  0  0  0  0  0  0  0  0
    6.9713   12.6995   29.6605 H   0  0  0  0  0  0  0  0  0  0  0  0
    5.0850   14.2528   29.2346 H   0  0  0  0  0  0  0  0  0  0  0  0
   14.8251   17.3275   21.0054 H   0  0  0  0  0  0  0  0  0  0  0  0
    7.5138   10.9274   28.0248 H   0  0  0  0  0  0  0  0  0  0  0  0
   13.1388   15.7760   21.9701 H   0  0  0  0  0  0  0  0  0  0  0  0
    3.7404   14.0387   27.1777 H   0  0  0  0  0  0  0  0  0  0  0  0
   14.9357   17.5643   18.5192 H   0  0  0  0  0  0  0  0  0  0  0  0
    9.7794    9.8900   22.9794 H   0  0  0  0  0  0  0  0  0  0  0  0
   11.8720   14.8757   17.9653 H   0  0  0  0  0  0  0  0  0  0  0  0
    7.7166   12.8008   25.4060 H   0  0  0  0  0  0  0  0  0  0  0  0
   11.1480   13.4605   19.8423 H   0  0  0  0  0  0  0  0  0  0  0  0
   10.3709   14.7699   20.7099 H   0  0  0  0  0  0  0  0  0  0  0  0
    6.4697    9.4373   26.2123 H   0  0  0  0  0  0  0  0  0  0  0  0
    5.4683   10.1994   24.9858 H   0  0  0  0  0  0  0  0  0  0  0  0
   12.6708   13.0337   21.7686 H   0  0  0  0  0  0  0  0  0  0  0  0
   11.9191   14.3520   22.6859 H   0  0  0  0  0  0  0  0  0  0  0  0
   10.5731   11.8483   21.8481 H   0  0  0  0  0  0  0  0  0  0  0  0
  1  2  2  0  0  0  0
  1  4  1  0  0  0  0
  2  6  1  0  0  0  0
  3  5  1  0  0  0  0
  3  7  2  0  0  0  0
  4 13  2  0  0  0  0
  5 12  2  0  0  0  0
  6 14  2  0  0  0  0
  7 19  1  0  0  0  0
  8 11  1  0  0  0  0
  8 20  2  0  0  0  0
  9 12  1  0  0  0  0
  9 19  2  0  0  0  0
 10 11  2  0  0  0  0
 10 21  1  0  0  0  0
 11 15  1  0  0  0  0
 12 16  1  0  0  0  0
 13 14  1  0  0  0  0
 13 17  1  0  0  0  0
 14 24  1  0  0  0  0
 15 22  1  0  0  0  0
 15 23  2  0  0  0  0
 16 18  1  0  0  0  0
 17 21  1  0  0  0  0
 18 22  1  0  0  0  0
 20 21  1  0  0  0  0
  1 25  1  0  0  0  0
  2 26  1  0  0  0  0
  3 27  1  0  0  0  0
  4 28  1  0  0  0  0
  5 29  1  0  0  0  0
  6 30  1  0  0  0  0
  7 31  1  0  0  0  0
  8 32  1  0  0  0  0
  9 33  1  0  0  0  0
 10 34  1  0  0  0  0
 16 35  1  0  0  0  0
 16 36  1  0  0  0  0
 17 37  1  0  0  0  0
 17 38  1  0  0  0  0
 18 39  1  0  0  0  0
 18 40  1  0  0  0  0
 22 41  1  0  0  0  0
M  END
> <Catalog ID>
Z285124758

> <PlateID>
1041831-R-18

> <Well>
B11

> <MW (desalted)>
340.807

> <ClogP>
2.671

> <HBD>
1

> <TPSA>
59.810

> <RotBonds>
6

> <ROCS_ShapeQuery>
A71EV2A-x0451_0A_A71EV2A-x0310_0A_A71EV2A-x0416_0A_peptide

> <ROCS_TanimotoCombo>
0.517 

> <ROCS_ShapeTanimoto>
0.319 

> <ROCS_ColorTanimoto>
0.198 

> <ROCS_RefTversky>
0.290 

> <ROCS_RefColorTversky>
0.210 

> <ROCS_RefTverskyCombo>
0.500 

> <ROCS_FitTversky>
1.454 

> <ROCS_FitColorTversky>
0.778 

> <ROCS_FitTverskyCombo>
2.232 

> <ROCS_ColorScore>
-6.409

> <ROCS_Overlap>
2015.916

> <ROCS_Rank>
395                 

$$$$
untitled-dbase-2743_1211
  -OEChem-11132311063D

 48 51  0     1  0  0  0  0  0999 V2000
   14.5094   16.0254   18.6529 C   0  0  0  0  0  0  0  0  0  0  0  0
   12.5875   16.1826   19.4722 C   0  0  0  0  0  0  0  0  0  0  0  0
   10.5292   12.9899   23.6790 C   0  0  0  0  0  0  0  0  0  0  0  0
   11.1478   16.3780   19.7814 C   0  0  0  0  0  0  0  0  0  0  0  0
   10.8908   16.3705   21.2946 C   0  0  0  0  0  0  0  0  0  0  0  0
    7.5165   11.8195   27.0299 C   0  0  0  0  0  0  0  0  0  0  0  0
    6.4870   10.8167   26.5222 C   0  0  0  0  0  0  0  0  0  0  0  0
    8.7959   11.7700   26.1999 C   0  0  0  0  0  0  0  0  0  0  0  0
    6.1755   11.0403   25.0443 C   0  0  0  0  0  0  0  0  0  0  0  0
   13.1523   15.3388   21.7626 C   0  0  0  0  0  0  0  0  0  0  0  0
   10.1898   10.4791   23.6364 C   0  0  0  0  0  0  0  0  0  0  0  0
    9.0286    9.5964   23.2033 C   0  0  0  0  0  0  0  0  0  0  0  0
    8.5098   11.9866   24.7026 C   0  0  2  0  0  0  0  0  0  0  0  0
   11.6404   15.2358   22.0131 C   0  0  2  0  0  0  0  0  0  0  0  0
    7.4320   11.0298   24.1698 C   0  0  1  0  0  0  0  0  0  0  0  0
   11.4971   12.9123   22.5251 C   0  0  0  0  0  0  0  0  0  0  0  0
   13.2332   16.4146   18.3497 N   0  0  0  0  0  0  0  0  0  0  0  0
   14.7008   15.5644   19.8920 N   0  0  0  0  0  0  0  0  0  0  0  0
   13.4600   15.6662   20.3884 N   0  0  0  0  0  0  0  0  0  0  0  0
    9.7540   11.8525   23.9225 N   0  0  0  0  0  0  0  0  0  0  0  0
   11.1342   13.9449   21.6028 N   0  0  0  0  0  0  0  0  0  0  0  0
   10.4600   14.0285   24.3412 O   0  0  0  0  0  0  0  0  0  0  0  0
    7.9435    9.6933   24.1240 O   0  0  0  0  0  0  0  0  0  0  0  0
   15.3246   16.0788   17.9468 H   0  0  0  0  0  0  0  0  0  0  0  0
   10.8271   17.3382   19.3606 H   0  0  0  0  0  0  0  0  0  0  0  0
   10.5504   15.5957   19.3015 H   0  0  0  0  0  0  0  0  0  0  0  0
   11.1791   17.3506   21.7112 H   0  0  0  0  0  0  0  0  0  0  0  0
    9.8055   16.2699   21.4767 H   0  0  0  0  0  0  0  0  0  0  0  0
    7.0941   12.8313   26.9938 H   0  0  0  0  0  0  0  0  0  0  0  0
    7.7504   11.6080   28.0794 H   0  0  0  0  0  0  0  0  0  0  0  0
    6.8610    9.7966   26.6726 H   0  0  0  0  0  0  0  0  0  0  0  0
    5.5656   10.9071   27.1086 H   0  0  0  0  0  0  0  0  0  0  0  0
    9.4895   12.5379   26.5630 H   0  0  0  0  0  0  0  0  0  0  0  0
    9.2793   10.7995   26.3639 H   0  0  0  0  0  0  0  0  0  0  0  0
    5.4833   10.2584   24.7097 H   0  0  0  0  0  0  0  0  0  0  0  0
    5.6635   12.0034   24.9288 H   0  0  0  0  0  0  0  0  0  0  0  0
   13.6030   16.1099   22.4029 H   0  0  0  0  0  0  0  0  0  0  0  0
   13.6583   14.3837   21.9677 H   0  0  0  0  0  0  0  0  0  0  0  0
   10.6259   10.0948   24.5656 H   0  0  0  0  0  0  0  0  0  0  0  0
   10.9705   10.4527   22.8735 H   0  0  0  0  0  0  0  0  0  0  0  0
    8.6827    9.8593   22.1965 H   0  0  0  0  0  0  0  0  0  0  0  0
    9.3491    8.5501   23.1765 H   0  0  0  0  0  0  0  0  0  0  0  0
    8.1362   13.0123   24.5855 H   0  0  0  0  0  0  0  0  0  0  0  0
   11.4595   15.3529   23.1021 H   0  0  0  0  0  0  0  0  0  0  0  0
    7.1371   11.3232   23.1533 H   0  0  0  0  0  0  0  0  0  0  0  0
   11.4059   11.9296   22.0722 H   0  0  0  0  0  0  0  0  0  0  0  0
   12.4998   13.0648   22.9131 H   0  0  0  0  0  0  0  0  0  0  0  0
   10.1114   14.0148   21.5237 H   0  0  0  0  0  0  0  0  0  0  0  0
  1 17  1  0  0  0  0
  1 18  2  0  0  0  0
  2  4  1  0  0  0  0
  2 17  2  0  0  0  0
  2 19  1  0  0  0  0
  3 16  1  0  0  0  0
  3 20  1  0  0  0  0
  3 22  2  0  0  0  0
  4  5  1  0  0  0  0
  5 14  1  0  0  0  0
  6  7  1  0  0  0  0
  6  8  1  0  0  0  0
  7  9  1  0  0  0  0
  8 13  1  0  0  0  0
  9 15  1  0  0  0  0
 10 14  1  0  0  0  0
 10 19  1  0  0  0  0
 11 12  1  0  0  0  0
 11 20  1  0  0  0  0
 12 23  1  0  0  0  0
 13 15  1  0  0  0  0
 13 20  1  0  0  0  0
 14 21  1  0  0  0  0
 15 23  1  0  0  0  0
 16 21  1  0  0  0  0
 18 19  1  0  0  0  0
  1 24  1  0  0  0  0
  4 25  1  0  0  0  0
  4 26  1  0  0  0  0
  5 27  1  0  0  0  0
  5 28  1  0  0  0  0
  6 29  1  0  0  0  0
  6 30  1  0  0  0  0
  7 31  1  0  0  0  0
  7 32  1  0  0  0  0
  8 33  1  0  0  0  0
  8 34  1  0  0  0  0
  9 35  1  0  0  0  0
  9 36  1  0  0  0  0
 10 37  1  0  0  0  0
 10 38  1  0  0  0  0
 11 39  1  0  0  0  0
 11 40  1  0  0  0  0
 12 41  1  0  0  0  0
 12 42  1  0  0  0  0
 13 43  1  0  0  0  0
 14 44  1  0  0  0  0
 15 45  1  0  0  0  0
 16 46  1  0  0  0  0
 16 47  1  0  0  0  0
 21 48  1  0  0  0  0
M  END
> <Catalog ID>
Z1139409774

> <PlateID>
1041831-R-35

> <Well>
C04

> <MW (desalted)>
319.402

> <ClogP>
0.378

> <HBD>
1

> <TPSA>
72.280

> <RotBonds>
3

> <ROCS_ShapeQuery>
A71EV2A-x0451_0A_A71EV2A-x0310_0A_A71EV2A-x0416_0A_peptide

> <ROCS_TanimotoCombo>
0.517 

> <ROCS_ShapeTanimoto>
0.334 

> <ROCS_ColorTanimoto>
0.183 

> <ROCS_RefTversky>
0.299 

> <ROCS_RefColorTversky>
0.211 

> <ROCS_RefTverskyCombo>
0.510 

> <ROCS_FitTversky>
1.536 

> <ROCS_FitColorTversky>
0.581 

> <ROCS_FitTverskyCombo>
2.117 

> <ROCS_ColorScore>
-6.467

> <ROCS_Overlap>
2078.948

> <ROCS_Rank>
396                 

$$$$
untitled-dbase-1234_10944
  -OEChem-11132311063D

 44 47  0     1  0  0  0  0  0999 V2000
    8.1457    9.5342   23.8052 C   0  0  0  0  0  0  0  0  0  0  0  0
    9.3664   10.0391   23.3575 C   0  0  0  0  0  0  0  0  0  0  0  0
    7.2483   10.3682   24.4722 C   0  0  0  0  0  0  0  0  0  0  0  0
    8.7926   12.2122   24.2439 C   0  0  0  0  0  0  0  0  0  0  0  0
   11.8464   14.7742   20.6938 C   0  0  0  0  0  0  0  0  0  0  0  0
    9.6899   11.3781   23.5769 C   0  0  0  0  0  0  0  0  0  0  0  0
    7.5718   11.7072   24.6915 C   0  0  0  0  0  0  0  0  0  0  0  0
   12.8602   14.3592   21.5421 C   0  0  0  0  0  0  0  0  0  0  0  0
   13.7291   15.8351   20.3251 C   0  0  0  0  0  0  0  0  0  0  0  0
   12.0628   16.5573   18.8888 C   0  0  0  0  0  0  0  0  0  0  0  0
   13.0877   17.3268   18.4843 C   0  0  0  0  0  0  0  0  0  0  0  0
   11.4096   13.1902   23.2545 C   0  0  0  0  0  0  0  0  0  0  0  0
    5.0633   12.7083   29.3736 C   0  0  0  0  0  0  0  0  0  0  0  0
    5.9795   12.5459   28.1869 C   0  0  0  0  0  0  0  0  0  0  0  0
    3.8307   11.9538   28.9228 C   0  0  0  0  0  0  0  0  0  0  0  0
    4.9995   12.6520   27.0314 C   0  0  1  0  0  0  0  0  0  0  0  0
   12.7876   13.3131   22.6234 C   0  0  0  0  0  0  0  0  0  0  0  0
    5.4678   11.9455   25.7742 C   0  0  0  0  0  0  0  0  0  0  0  0
   14.0440   15.0327   21.3037 N   0  0  0  0  0  0  0  0  0  0  0  0
   12.4341   15.7268   19.9192 N   0  0  0  0  0  0  0  0  0  0  0  0
   10.9110   11.8828   23.1286 N   0  0  0  0  0  0  0  0  0  0  0  0
   10.8470   14.1395   23.7906 O   0  0  0  0  0  0  0  0  0  0  0  0
    3.7715   12.0645   27.4929 O   0  0  0  0  0  0  0  0  0  0  0  0
    6.6895   12.5274   25.3475 O   0  0  0  0  0  0  0  0  0  0  0  0
   14.5789   17.0321   19.3967 S   0  0  0  0  0  0  0  0  0  0  0  0
    7.8938    8.4918   23.6334 H   0  0  0  0  0  0  0  0  0  0  0  0
   10.0581    9.3798   22.8394 H   0  0  0  0  0  0  0  0  0  0  0  0
    6.2989    9.9687   24.8176 H   0  0  0  0  0  0  0  0  0  0  0  0
    9.0401   13.2571   24.4168 H   0  0  0  0  0  0  0  0  0  0  0  0
   10.8109   14.4818   20.5871 H   0  0  0  0  0  0  0  0  0  0  0  0
   11.0582   16.5478   18.4939 H   0  0  0  0  0  0  0  0  0  0  0  0
   13.0436   18.0571   17.6888 H   0  0  0  0  0  0  0  0  0  0  0  0
    5.4807   12.3249   30.3083 H   0  0  0  0  0  0  0  0  0  0  0  0
    4.8224   13.7685   29.5154 H   0  0  0  0  0  0  0  0  0  0  0  0
    6.7716   13.2985   28.1432 H   0  0  0  0  0  0  0  0  0  0  0  0
    6.4479   11.5546   28.2170 H   0  0  0  0  0  0  0  0  0  0  0  0
    3.9050   10.8897   29.1711 H   0  0  0  0  0  0  0  0  0  0  0  0
    2.9113   12.3512   29.3619 H   0  0  0  0  0  0  0  0  0  0  0  0
    4.7901   13.7049   26.8073 H   0  0  0  0  0  0  0  0  0  0  0  0
   13.0738   12.3370   22.2114 H   0  0  0  0  0  0  0  0  0  0  0  0
   13.5164   13.5471   23.4098 H   0  0  0  0  0  0  0  0  0  0  0  0
    4.7269   12.0536   24.9776 H   0  0  0  0  0  0  0  0  0  0  0  0
    5.6317   10.8830   25.9722 H   0  0  0  0  0  0  0  0  0  0  0  0
   11.5224   11.2143   22.6458 H   0  0  0  0  0  0  0  0  0  0  0  0
  1  2  1  0  0  0  0
  1  3  2  0  0  0  0
  2  6  2  0  0  0  0
  3  7  1  0  0  0  0
  4  6  1  0  0  0  0
  4  7  2  0  0  0  0
  5  8  2  0  0  0  0
  5 20  1  0  0  0  0
  6 21  1  0  0  0  0
  7 24  1  0  0  0  0
  8 17  1  0  0  0  0
  8 19  1  0  0  0  0
  9 19  2  0  0  0  0
  9 20  1  0  0  0  0
  9 25  1  0  0  0  0
 10 11  2  0  0  0  0
 10 20  1  0  0  0  0
 11 25  1  0  0  0  0
 12 17  1  0  0  0  0
 12 21  1  0  0  0  0
 12 22  2  0  0  0  0
 13 14  1  0  0  0  0
 13 15  1  0  0  0  0
 14 16  1  0  0  0  0
 15 23  1  0  0  0  0
 16 18  1  0  0  0  0
 16 23  1  0  0  0  0
 18 24  1  0  0  0  0
  1 26  1  0  0  0  0
  2 27  1  0  0  0  0
  3 28  1  0  0  0  0
  4 29  1  0  0  0  0
  5 30  1  0  0  0  0
 10 31  1  0  0  0  0
 11 32  1  0  0  0  0
 13 33  1  0  0  0  0
 13 34  1  0  0  0  0
 14 35  1  0  0  0  0
 14 36  1  0  0  0  0
 15 37  1  0  0  0  0
 15 38  1  0  0  0  0
 16 39  1  0  0  0  0
 17 40  1  0  0  0  0
 17 41  1  0  0  0  0
 18 42  1  0  0  0  0
 18 43  1  0  0  0  0
 21 44  1  0  0  0  0
M  END
> <Catalog ID>
Z321203608

> <PlateID>
1041831-R-16

> <Well>
D05

> <MW (desalted)>
357.427

> <ClogP>
2.164

> <HBD>
1

> <TPSA>
64.860

> <RotBonds>
6

> <ROCS_ShapeQuery>
A71EV2A-x0451_0A_A71EV2A-x0310_0A_A71EV2A-x0416_0A_peptide

> <ROCS_TanimotoCombo>
0.517 

> <ROCS_ShapeTanimoto>
0.345 

> <ROCS_ColorTanimoto>
0.173 

> <ROCS_RefTversky>
0.310 

> <ROCS_RefColorTversky>
0.201 

> <ROCS_RefTverskyCombo>
0.510 

> <ROCS_FitTversky>
1.494 

> <ROCS_FitColorTversky>
0.552 

> <ROCS_FitTverskyCombo>
2.046 

> <ROCS_ColorScore>
-6.146

> <ROCS_Overlap>
2151.887

> <ROCS_Rank>
397                 

$$$$
untitled-dbase-2010_1048
  -OEChem-11132311063D

 48 51  0     1  0  0  0  0  0999 V2000
    5.1843   12.6978   29.1107 C   0  0  0  0  0  0  0  0  0  0  0  0
    5.9767   12.3225   27.9997 C   0  0  0  0  0  0  0  0  0  0  0  0
    3.8820   12.4282   28.7595 C   0  0  0  0  0  0  0  0  0  0  0  0
    8.8111    9.4884   23.9717 C   0  0  0  0  0  0  0  0  0  0  0  0
    8.3965   12.1185   23.9630 C   0  0  0  0  0  0  0  0  0  0  0  0
    7.8308   13.4059   24.1487 C   0  0  0  0  0  0  0  0  0  0  0  0
    6.6246   13.2395   24.7955 C   0  0  0  0  0  0  0  0  0  0  0  0
    5.1022   11.8501   27.0489 C   0  0  0  0  0  0  0  0  0  0  0  0
    7.5057   11.2021   24.5082 C   0  0  0  0  0  0  0  0  0  0  0  0
    9.5602   11.5986   23.3982 C   0  0  0  0  0  0  0  0  0  0  0  0
   12.4939   15.2803   20.4963 C   0  0  0  0  0  0  0  0  0  0  0  0
   11.7683   13.9402   20.6095 C   0  0  0  0  0  0  0  0  0  0  0  0
   12.6371   15.8079   21.9195 C   0  0  0  0  0  0  0  0  0  0  0  0
   12.5223   13.1496   21.6833 C   0  0  2  0  0  0  0  0  0  0  0  0
    8.4158   14.6973   23.7305 C   0  0  0  0  0  0  0  0  0  0  0  0
    5.6317   14.2457   25.2296 C   0  0  0  0  0  0  0  0  0  0  0  0
    5.2897   11.3029   25.6596 C   0  0  0  0  0  0  0  0  0  0  0  0
   11.7319   11.9770   22.2294 C   0  0  0  0  0  0  0  0  0  0  0  0
    7.6512    9.8661   24.5466 N   0  0  0  0  0  0  0  0  0  0  0  0
    9.7654   10.2611   23.4056 N   0  0  0  0  0  0  0  0  0  0  0  0
    6.4370   11.8978   25.0080 N   0  0  0  0  0  0  0  0  0  0  0  0
   10.5180   12.4351   22.8258 N   0  0  0  0  0  0  0  0  0  0  0  0
   11.9387   14.3463   23.9886 O   0  0  0  0  0  0  0  0  0  0  0  0
   14.3519   14.2805   23.2159 O   0  0  0  0  0  0  0  0  0  0  0  0
    3.8234   11.9111   27.5042 O   0  0  0  0  0  0  0  0  0  0  0  0
   12.9335   14.3683   22.9361 S   0  0  0  0  0  0  0  0  0  0  0  0
    5.5201   13.1132   30.0498 H   0  0  0  0  0  0  0  0  0  0  0  0
    7.0514   12.3896   27.9067 H   0  0  0  0  0  0  0  0  0  0  0  0
    2.9333   12.5413   29.2634 H   0  0  0  0  0  0  0  0  0  0  0  0
    9.0060    8.4214   23.9617 H   0  0  0  0  0  0  0  0  0  0  0  0
   13.4854   15.1264   20.0536 H   0  0  0  0  0  0  0  0  0  0  0  0
   11.9501   15.9864   19.8617 H   0  0  0  0  0  0  0  0  0  0  0  0
   10.7270   14.1105   20.9098 H   0  0  0  0  0  0  0  0  0  0  0  0
   11.7601   13.4065   19.6539 H   0  0  0  0  0  0  0  0  0  0  0  0
   13.4648   16.5124   22.0230 H   0  0  0  0  0  0  0  0  0  0  0  0
   11.7063   16.2711   22.2599 H   0  0  0  0  0  0  0  0  0  0  0  0
   13.4761   12.7975   21.2725 H   0  0  0  0  0  0  0  0  0  0  0  0
    8.0960   14.9643   22.7107 H   0  0  0  0  0  0  0  0  0  0  0  0
    8.1203   15.5201   24.4025 H   0  0  0  0  0  0  0  0  0  0  0  0
    9.5182   14.6730   23.7424 H   0  0  0  0  0  0  0  0  0  0  0  0
    4.8907   14.4361   24.4375 H   0  0  0  0  0  0  0  0  0  0  0  0
    5.0862   13.9225   26.1314 H   0  0  0  0  0  0  0  0  0  0  0  0
    6.1062   15.2073   25.4861 H   0  0  0  0  0  0  0  0  0  0  0  0
    5.4311   10.2155   25.6781 H   0  0  0  0  0  0  0  0  0  0  0  0
    4.4064   11.4911   25.0372 H   0  0  0  0  0  0  0  0  0  0  0  0
   11.5120   11.3057   21.3966 H   0  0  0  0  0  0  0  0  0  0  0  0
   12.3516   11.4750   22.9755 H   0  0  0  0  0  0  0  0  0  0  0  0
   10.3248   13.4380   22.8432 H   0  0  0  0  0  0  0  0  0  0  0  0
  1  2  1  0  0  0  0
  1  3  2  0  0  0  0
  2  8  2  0  0  0  0
  3 25  1  0  0  0  0
  4 19  1  0  0  0  0
  4 20  2  0  0  0  0
  5  6  1  0  0  0  0
  5  9  1  0  0  0  0
  5 10  2  0  0  0  0
  6  7  2  0  0  0  0
  6 15  1  0  0  0  0
  7 16  1  0  0  0  0
  7 21  1  0  0  0  0
  8 17  1  0  0  0  0
  8 25  1  0  0  0  0
  9 19  2  0  0  0  0
  9 21  1  0  0  0  0
 10 20  1  0  0  0  0
 10 22  1  0  0  0  0
 11 12  1  0  0  0  0
 11 13  1  0  0  0  0
 12 14  1  0  0  0  0
 13 26  1  0  0  0  0
 14 18  1  0  0  0  0
 14 26  1  0  0  0  0
 17 21  1  0  0  0  0
 18 22  1  0  0  0  0
 23 26  2  0  0  0  0
 24 26  2  0  0  0  0
  1 27  1  0  0  0  0
  2 28  1  0  0  0  0
  3 29  1  0  0  0  0
  4 30  1  0  0  0  0
 11 31  1  0  0  0  0
 11 32  1  0  0  0  0
 12 33  1  0  0  0  0
 12 34  1  0  0  0  0
 13 35  1  0  0  0  0
 13 36  1  0  0  0  0
 14 37  1  0  0  0  0
 15 38  1  0  0  0  0
 15 39  1  0  0  0  0
 15 40  1  0  0  0  0
 16 41  1  0  0  0  0
 16 42  1  0  0  0  0
 16 43  1  0  0  0  0
 17 44  1  0  0  0  0
 17 45  1  0  0  0  0
 18 46  1  0  0  0  0
 18 47  1  0  0  0  0
 22 48  1  0  0  0  0
M  END
> <Catalog ID>
Z1439490966

> <PlateID>
1041831-R-26

> <Well>
A11

> <MW (desalted)>
374.457

> <ClogP>
2.087

> <HBD>
1

> <TPSA>
90.020

> <RotBonds>
5

> <ROCS_ShapeQuery>
A71EV2A-x0451_0A_A71EV2A-x0310_0A_A71EV2A-x0416_0A_peptide

> <ROCS_TanimotoCombo>
0.517 

> <ROCS_ShapeTanimoto>
0.348 

> <ROCS_ColorTanimoto>
0.169 

> <ROCS_RefTversky>
0.313 

> <ROCS_RefColorTversky>
0.197 

> <ROCS_RefTverskyCombo>
0.510 

> <ROCS_FitTversky>
1.469 

> <ROCS_FitColorTversky>
0.544 

> <ROCS_FitTverskyCombo>
2.012 

> <ROCS_ColorScore>
-6.043

> <ROCS_Overlap>
2178.078

> <ROCS_Rank>
398                 

$$$$
untitled-dbase-1043_1964
  -OEChem-11132311063D

 39 41  0     0  0  0  0  0  0999 V2000
   16.1214   11.1755   27.0046 C   0  0  0  0  0  0  0  0  0  0  0  0
    6.9882   10.8370   25.1227 C   0  0  0  0  0  0  0  0  0  0  0  0
    7.8740    9.9484   24.5134 C   0  0  0  0  0  0  0  0  0  0  0  0
   15.5086   11.2507   25.7310 C   0  0  0  0  0  0  0  0  0  0  0  0
    8.2670   12.6992   24.2661 C   0  0  0  0  0  0  0  0  0  0  0  0
   16.3818   12.4728   27.3803 C   0  0  0  0  0  0  0  0  0  0  0  0
   14.5218   14.3596   22.1832 C   0  0  0  0  0  0  0  0  0  0  0  0
    7.1846   12.2124   24.9990 C   0  0  0  0  0  0  0  0  0  0  0  0
    9.1529   11.8106   23.6568 C   0  0  0  0  0  0  0  0  0  0  0  0
    8.9564   10.4352   23.7805 C   0  0  0  0  0  0  0  0  0  0  0  0
   15.4381   12.5885   25.4194 C   0  0  0  0  0  0  0  0  0  0  0  0
   13.4330   13.6890   22.7000 C   0  0  0  0  0  0  0  0  0  0  0  0
   14.9031   13.1690   24.2422 C   0  0  0  0  0  0  0  0  0  0  0  0
    5.1657   12.8024   26.3775 C   0  0  0  0  0  0  0  0  0  0  0  0
   10.9446   13.4968   23.1168 C   0  0  0  0  0  0  0  0  0  0  0  0
    4.4714   14.0516   26.8591 C   0  0  0  0  0  0  0  0  0  0  0  0
   12.0565   13.6446   22.0901 C   0  0  0  0  0  0  0  0  0  0  0  0
   13.6499   13.0054   23.8804 N   0  0  0  0  0  0  0  0  0  0  0  0
    6.2984   13.1011   25.6086 N   0  0  0  0  0  0  0  0  0  0  0  0
   10.2347   12.3000   22.9238 N   0  0  0  0  0  0  0  0  0  0  0  0
    4.7330   11.6917   26.6677 O   0  0  0  0  0  0  0  0  0  0  0  0
   10.7335   14.3418   23.9808 O   0  0  0  0  0  0  0  0  0  0  0  0
   15.9682   13.3402   26.4196 O   0  0  0  0  0  0  0  0  0  0  0  0
    9.8013    9.5717   23.1996 F   0  0  0  0  0  0  0  0  0  0  0  0
   15.8770   14.1336   23.2096 S   0  0  0  0  0  0  0  0  0  0  0  0
   16.3451   10.2868   27.5767 H   0  0  0  0  0  0  0  0  0  0  0  0
    6.1482   10.4460   25.6915 H   0  0  0  0  0  0  0  0  0  0  0  0
    7.7212    8.8775   24.6090 H   0  0  0  0  0  0  0  0  0  0  0  0
   15.1643   10.4258   25.1224 H   0  0  0  0  0  0  0  0  0  0  0  0
    8.4199   13.7725   24.1700 H   0  0  0  0  0  0  0  0  0  0  0  0
   16.8320   12.9230   28.2530 H   0  0  0  0  0  0  0  0  0  0  0  0
   14.5872   14.9536   21.2827 H   0  0  0  0  0  0  0  0  0  0  0  0
    3.7220   14.3644   26.1266 H   0  0  0  0  0  0  0  0  0  0  0  0
    5.2018   14.8560   26.9844 H   0  0  0  0  0  0  0  0  0  0  0  0
    3.9865   13.8618   27.8212 H   0  0  0  0  0  0  0  0  0  0  0  0
   11.8806   14.5600   21.5108 H   0  0  0  0  0  0  0  0  0  0  0  0
   11.9959   12.8089   21.3814 H   0  0  0  0  0  0  0  0  0  0  0  0
    6.4962   14.1005   25.4823 H   0  0  0  0  0  0  0  0  0  0  0  0
   10.5519   11.7110   22.1452 H   0  0  0  0  0  0  0  0  0  0  0  0
  1  4  1  0  0  0  0
  1  6  2  0  0  0  0
  2  3  1  0  0  0  0
  2  8  2  0  0  0  0
  3 10  2  0  0  0  0
  4 11  2  0  0  0  0
  5  8  1  0  0  0  0
  5  9  2  0  0  0  0
  6 23  1  0  0  0  0
  7 12  2  0  0  0  0
  7 25  1  0  0  0  0
  8 19  1  0  0  0  0
  9 10  1  0  0  0  0
  9 20  1  0  0  0  0
 10 24  1  0  0  0  0
 11 13  1  0  0  0  0
 11 23  1  0  0  0  0
 12 17  1  0  0  0  0
 12 18  1  0  0  0  0
 13 18  2  0  0  0  0
 13 25  1  0  0  0  0
 14 16  1  0  0  0  0
 14 19  1  0  0  0  0
 14 21  2  0  0  0  0
 15 17  1  0  0  0  0
 15 20  1  0  0  0  0
 15 22  2  0  0  0  0
  1 26  1  0  0  0  0
  2 27  1  0  0  0  0
  3 28  1  0  0  0  0
  4 29  1  0  0  0  0
  5 30  1  0  0  0  0
  6 31  1  0  0  0  0
  7 32  1  0  0  0  0
 16 33  1  0  0  0  0
 16 34  1  0  0  0  0
 16 35  1  0  0  0  0
 17 36  1  0  0  0  0
 17 37  1  0  0  0  0
 19 38  1  0  0  0  0
 20 39  1  0  0  0  0
M  END
> <Catalog ID>
Z297339792

> <PlateID>
1041831-R-14

> <Well>
A04

> <MW (desalted)>
359.375

> <ClogP>
1.424

> <HBD>
2

> <TPSA>
84.230

> <RotBonds>
5

> <ROCS_ShapeQuery>
A71EV2A-x0451_0A_A71EV2A-x0310_0A_A71EV2A-x0416_0A_peptide

> <ROCS_TanimotoCombo>
0.517 

> <ROCS_ShapeTanimoto>
0.332 

> <ROCS_ColorTanimoto>
0.185 

> <ROCS_RefTversky>
0.300 

> <ROCS_RefColorTversky>
0.208 

> <ROCS_RefTverskyCombo>
0.509 

> <ROCS_FitTversky>
1.456 

> <ROCS_FitColorTversky>
0.628 

> <ROCS_FitTverskyCombo>
2.084 

> <ROCS_ColorScore>
-6.366

> <ROCS_Overlap>
2089.132

> <ROCS_Rank>
399                 

$$$$
untitled-dbase-2866_449
  -OEChem-11132311063D

 51 53  0     1  0  0  0  0  0999 V2000
   12.4004   15.6619   18.3416 C   0  0  0  0  0  0  0  0  0  0  0  0
   11.6522   15.4154   19.4927 C   0  0  0  0  0  0  0  0  0  0  0  0
   13.7831   15.8237   18.4299 C   0  0  0  0  0  0  0  0  0  0  0  0
   13.6692   15.4926   20.8203 C   0  0  0  0  0  0  0  0  0  0  0  0
   12.2865   15.3308   20.7320 C   0  0  0  0  0  0  0  0  0  0  0  0
   14.4175   15.7390   19.6692 C   0  0  0  0  0  0  0  0  0  0  0  0
   10.5441   13.3391   23.5718 C   0  0  0  0  0  0  0  0  0  0  0  0
    7.3404   12.0100   26.5653 C   0  0  0  0  0  0  0  0  0  0  0  0
    6.4608   10.8794   26.0411 C   0  0  0  0  0  0  0  0  0  0  0  0
    8.6887   12.0619   25.8481 C   0  0  0  0  0  0  0  0  0  0  0  0
    6.2787   10.9642   24.5258 C   0  0  0  0  0  0  0  0  0  0  0  0
   10.1761   10.9180   22.9389 C   0  0  0  0  0  0  0  0  0  0  0  0
    9.6389    9.6935   23.6636 C   0  0  0  0  0  0  0  0  0  0  0  0
    8.5070   12.1477   24.3222 C   0  0  2  0  0  0  0  0  0  0  0  0
    7.6200   11.0108   23.7882 C   0  0  1  0  0  0  0  0  0  0  0  0
   16.6020   16.1581   18.5681 C   0  0  0  0  0  0  0  0  0  0  0  0
   16.4824   15.8299   21.0433 C   0  0  0  0  0  0  0  0  0  0  0  0
   11.4764   15.0648   21.9775 C   0  0  0  0  0  0  0  0  0  0  0  0
   11.3202   13.5816   22.3013 C   0  0  0  0  0  0  0  0  0  0  0  0
    9.8063   12.1546   23.6325 N   0  0  0  0  0  0  0  0  0  0  0  0
   15.8156   15.9022   19.7584 N   0  0  0  0  0  0  0  0  0  0  0  0
   10.5921   14.1704   24.4818 O   0  0  0  0  0  0  0  0  0  0  0  0
    8.2383    9.7285   23.9255 O   0  0  0  0  0  0  0  0  0  0  0  0
   11.9063   15.7277   17.3764 H   0  0  0  0  0  0  0  0  0  0  0  0
   10.5751   15.2907   19.4145 H   0  0  0  0  0  0  0  0  0  0  0  0
   14.3566   16.0151   17.5265 H   0  0  0  0  0  0  0  0  0  0  0  0
   14.1623   15.4260   21.7875 H   0  0  0  0  0  0  0  0  0  0  0  0
    6.8206   12.9699   26.4380 H   0  0  0  0  0  0  0  0  0  0  0  0
    7.5030   11.8803   27.6433 H   0  0  0  0  0  0  0  0  0  0  0  0
    6.9069    9.9123   26.3072 H   0  0  0  0  0  0  0  0  0  0  0  0
    5.4800   10.9202   26.5302 H   0  0  0  0  0  0  0  0  0  0  0  0
    9.2526   12.9287   26.2079 H   0  0  0  0  0  0  0  0  0  0  0  0
    9.2605   11.1686   26.1200 H   0  0  0  0  0  0  0  0  0  0  0  0
    5.7010   10.0972   24.1933 H   0  0  0  0  0  0  0  0  0  0  0  0
    5.7027   11.8627   24.2852 H   0  0  0  0  0  0  0  0  0  0  0  0
   11.2704   10.8900   22.9185 H   0  0  0  0  0  0  0  0  0  0  0  0
    9.8267   10.9108   21.9059 H   0  0  0  0  0  0  0  0  0  0  0  0
    9.8811    8.7636   23.1027 H   0  0  0  0  0  0  0  0  0  0  0  0
   10.1534    9.5875   24.6408 H   0  0  0  0  0  0  0  0  0  0  0  0
    7.9918   13.0959   24.1071 H   0  0  0  0  0  0  0  0  0  0  0  0
    7.3957   11.1766   22.7203 H   0  0  0  0  0  0  0  0  0  0  0  0
   17.6628   16.2545   18.8426 H   0  0  0  0  0  0  0  0  0  0  0  0
   16.4804   15.3234   17.8620 H   0  0  0  0  0  0  0  0  0  0  0  0
   16.2593   17.0906   18.0959 H   0  0  0  0  0  0  0  0  0  0  0  0
   17.5632   15.9811   20.9051 H   0  0  0  0  0  0  0  0  0  0  0  0
   16.0849   16.6118   21.7070 H   0  0  0  0  0  0  0  0  0  0  0  0
   16.3050   14.8419   21.4932 H   0  0  0  0  0  0  0  0  0  0  0  0
   10.4927   15.5453   21.8956 H   0  0  0  0  0  0  0  0  0  0  0  0
   11.9753   15.5563   22.8230 H   0  0  0  0  0  0  0  0  0  0  0  0
   10.8196   13.0516   21.4893 H   0  0  0  0  0  0  0  0  0  0  0  0
   12.3055   13.1309   22.4331 H   0  0  0  0  0  0  0  0  0  0  0  0
  1  2  2  0  0  0  0
  1  3  1  0  0  0  0
  2  5  1  0  0  0  0
  3  6  2  0  0  0  0
  4  5  2  0  0  0  0
  4  6  1  0  0  0  0
  5 18  1  0  0  0  0
  6 21  1  0  0  0  0
  7 19  1  0  0  0  0
  7 20  1  0  0  0  0
  7 22  2  0  0  0  0
  8  9  1  0  0  0  0
  8 10  1  0  0  0  0
  9 11  1  0  0  0  0
 10 14  1  0  0  0  0
 11 15  1  0  0  0  0
 12 13  1  0  0  0  0
 12 20  1  0  0  0  0
 13 23  1  0  0  0  0
 14 15  1  0  0  0  0
 14 20  1  0  0  0  0
 15 23  1  0  0  0  0
 16 21  1  0  0  0  0
 17 21  1  0  0  0  0
 18 19  1  0  0  0  0
  1 24  1  0  0  0  0
  2 25  1  0  0  0  0
  3 26  1  0  0  0  0
  4 27  1  0  0  0  0
  8 28  1  0  0  0  0
  8 29  1  0  0  0  0
  9 30  1  0  0  0  0
  9 31  1  0  0  0  0
 10 32  1  0  0  0  0
 10 33  1  0  0  0  0
 11 34  1  0  0  0  0
 11 35  1  0  0  0  0
 12 36  1  0  0  0  0
 12 37  1  0  0  0  0
 13 38  1  0  0  0  0
 13 39  1  0  0  0  0
 14 40  1  0  0  0  0
 15 41  1  0  0  0  0
 16 42  1  0  0  0  0
 16 43  1  0  0  0  0
 16 44  1  0  0  0  0
 17 45  1  0  0  0  0
 17 46  1  0  0  0  0
 17 47  1  0  0  0  0
 18 48  1  0  0  0  0
 18 49  1  0  0  0  0
 19 50  1  0  0  0  0
 19 51  1  0  0  0  0
M  END
> <Catalog ID>
Z1824659499

> <PlateID>
1041831-R-36

> <Well>
G07

> <MW (desalted)>
316.438

> <ClogP>
2.881

> <HBD>
0

> <TPSA>
32.780

> <RotBonds>
4

> <ROCS_ShapeQuery>
A71EV2A-x0451_0A_A71EV2A-x0310_0A_A71EV2A-x0416_0A_peptide

> <ROCS_TanimotoCombo>
0.517 

> <ROCS_ShapeTanimoto>
0.321 

> <ROCS_ColorTanimoto>
0.196 

> <ROCS_RefTversky>
0.289 

> <ROCS_RefColorTversky>
0.198 

> <ROCS_RefTverskyCombo>
0.487 

> <ROCS_FitTversky>
1.519 

> <ROCS_FitColorTversky>
0.948 

> <ROCS_FitTverskyCombo>
2.467 

> <ROCS_ColorScore>
-6.019

> <ROCS_Overlap>
2008.807

> <ROCS_Rank>
400                 

$$$$
untitled-dbase-1572_6006
  -OEChem-11132311063D

 57 60  0     1  0  0  0  0  0999 V2000
    4.9151   11.0412   27.6602 C   0  0  0  0  0  0  0  0  0  0  0  0
    5.2690   12.2809   28.1890 C   0  0  0  0  0  0  0  0  0  0  0  0
    5.4053   10.6266   26.4165 C   0  0  0  0  0  0  0  0  0  0  0  0
    6.1216   13.1439   27.4947 C   0  0  0  0  0  0  0  0  0  0  0  0
    7.6490   12.5497   24.2651 C   0  0  0  0  0  0  0  0  0  0  0  0
    6.2664   11.4799   25.6980 C   0  0  0  0  0  0  0  0  0  0  0  0
    6.9332   11.3885   24.4442 C   0  0  0  0  0  0  0  0  0  0  0  0
    6.6039   12.7163   26.2526 C   0  0  0  0  0  0  0  0  0  0  0  0
    9.1995   10.7398   22.6677 C   0  0  0  0  0  0  0  0  0  0  0  0
   10.1302    9.9329   24.5812 C   0  0  0  0  0  0  0  0  0  0  0  0
   10.8732   13.1612   23.3834 C   0  0  0  0  0  0  0  0  0  0  0  0
   10.5323   14.9566   19.4136 C   0  0  0  0  0  0  0  0  0  0  0  0
   11.7346   15.8670   19.1906 C   0  0  0  0  0  0  0  0  0  0  0  0
    9.8450   15.2513   20.7436 C   0  0  0  0  0  0  0  0  0  0  0  0
    8.2459    9.6685   23.1775 C   0  0  2  0  0  0  0  0  0  0  0  0
   12.7445   15.7962   20.3490 C   0  0  2  0  0  0  0  0  0  0  0  0
   12.0463   16.0935   21.7022 C   0  0  1  0  0  0  0  0  0  0  0  0
   10.8149   15.1831   21.9267 C   0  0  2  0  0  0  0  0  0  0  0  0
   13.9057   16.7546   20.0648 C   0  0  0  0  0  0  0  0  0  0  0  0
   13.0093   16.0170   22.8937 C   0  0  0  0  0  0  0  0  0  0  0  0
    6.8725   10.2329   23.4764 C   0  0  0  0  0  0  0  0  0  0  0  0
   11.3783   11.7410   23.3791 C   0  0  0  0  0  0  0  0  0  0  0  0
    7.4443   13.3442   25.3612 N   0  0  0  0  0  0  0  0  0  0  0  0
    8.9341    9.2447   24.3705 N   0  0  0  0  0  0  0  0  0  0  0  0
   10.2478   10.8149   23.5401 N   0  0  0  0  0  0  0  0  0  0  0  0
   11.1818   13.8101   22.1974 N   0  0  0  0  0  0  0  0  0  0  0  0
    9.0136   11.3951   21.6506 O   0  0  0  0  0  0  0  0  0  0  0  0
   10.8977    9.7540   25.5180 O   0  0  0  0  0  0  0  0  0  0  0  0
   10.2653   13.6594   24.3271 O   0  0  0  0  0  0  0  0  0  0  0  0
    4.2511   10.3873   28.2191 H   0  0  0  0  0  0  0  0  0  0  0  0
    4.8765   12.5827   29.1567 H   0  0  0  0  0  0  0  0  0  0  0  0
    5.1208    9.6569   26.0182 H   0  0  0  0  0  0  0  0  0  0  0  0
    6.3956   14.1092   27.9067 H   0  0  0  0  0  0  0  0  0  0  0  0
    8.2868   12.8821   23.4576 H   0  0  0  0  0  0  0  0  0  0  0  0
    9.8157   15.0905   18.5952 H   0  0  0  0  0  0  0  0  0  0  0  0
   10.8538   13.9086   19.3830 H   0  0  0  0  0  0  0  0  0  0  0  0
   12.2250   15.5860   18.2507 H   0  0  0  0  0  0  0  0  0  0  0  0
   11.3848   16.9002   19.0669 H   0  0  0  0  0  0  0  0  0  0  0  0
    9.4055   16.2563   20.7024 H   0  0  0  0  0  0  0  0  0  0  0  0
    9.0099   14.5562   20.8929 H   0  0  0  0  0  0  0  0  0  0  0  0
    8.2110    8.8299   22.4763 H   0  0  0  0  0  0  0  0  0  0  0  0
   13.1595   14.7801   20.3768 H   0  0  0  0  0  0  0  0  0  0  0  0
   11.6732   17.1279   21.6653 H   0  0  0  0  0  0  0  0  0  0  0  0
   10.2841   15.5234   22.8250 H   0  0  0  0  0  0  0  0  0  0  0  0
   13.5349   17.7759   20.0292 H   0  0  0  0  0  0  0  0  0  0  0  0
   14.3605   16.5028   19.1100 H   0  0  0  0  0  0  0  0  0  0  0  0
   14.6501   16.6686   20.8525 H   0  0  0  0  0  0  0  0  0  0  0  0
   13.4075   15.0093   22.9736 H   0  0  0  0  0  0  0  0  0  0  0  0
   12.4769   16.2693   23.8065 H   0  0  0  0  0  0  0  0  0  0  0  0
   13.8259   16.7182   22.7451 H   0  0  0  0  0  0  0  0  0  0  0  0
    6.2234    9.4469   23.8870 H   0  0  0  0  0  0  0  0  0  0  0  0
    6.3896   10.5617   22.5456 H   0  0  0  0  0  0  0  0  0  0  0  0
   11.8827   11.5322   22.4311 H   0  0  0  0  0  0  0  0  0  0  0  0
   12.0822   11.5952   24.2037 H   0  0  0  0  0  0  0  0  0  0  0  0
    7.8509   14.2595   25.4970 H   0  0  0  0  0  0  0  0  0  0  0  0
    8.6054    8.5009   24.9782 H   0  0  0  0  0  0  0  0  0  0  0  0
   11.6900   13.2967   21.4843 H   0  0  0  0  0  0  0  0  0  0  0  0
  1  2  2  0  0  0  0
  1  3  1  0  0  0  0
  2  4  1  0  0  0  0
  3  6  2  0  0  0  0
  4  8  2  0  0  0  0
  5  7  2  0  0  0  0
  5 23  1  0  0  0  0
  6  7  1  0  0  0  0
  6  8  1  0  0  0  0
  7 21  1  0  0  0  0
  8 23  1  0  0  0  0
  9 15  1  0  0  0  0
  9 25  1  0  0  0  0
  9 27  2  0  0  0  0
 10 24  1  0  0  0  0
 10 25  1  0  0  0  0
 10 28  2  0  0  0  0
 11 22  1  0  0  0  0
 11 26  1  0  0  0  0
 11 29  2  0  0  0  0
 12 13  1  0  0  0  0
 12 14  1  0  0  0  0
 13 16  1  0  0  0  0
 14 18  1  0  0  0  0
 15 21  1  0  0  0  0
 15 24  1  0  0  0  0
 16 17  1  0  0  0  0
 16 19  1  0  0  0  0
 17 18  1  0  0  0  0
 17 20  1  0  0  0  0
 18 26  1  0  0  0  0
 22 25  1  0  0  0  0
  1 30  1  0  0  0  0
  2 31  1  0  0  0  0
  3 32  1  0  0  0  0
  4 33  1  0  0  0  0
  5 34  1  0  0  0  0
 12 35  1  0  0  0  0
 12 36  1  0  0  0  0
 13 37  1  0  0  0  0
 13 38  1  0  0  0  0
 14 39  1  0  0  0  0
 14 40  1  0  0  0  0
 15 41  1  0  0  0  0
 16 42  1  0  0  0  0
 17 43  1  0  0  0  0
 18 44  1  0  0  0  0
 19 45  1  0  0  0  0
 19 46  1  0  0  0  0
 19 47  1  0  0  0  0
 20 48  1  0  0  0  0
 20 49  1  0  0  0  0
 20 50  1  0  0  0  0
 21 51  1  0  0  0  0
 21 52  1  0  0  0  0
 22 53  1  0  0  0  0
 22 54  1  0  0  0  0
 23 55  1  0  0  0  0
 24 56  1  0  0  0  0
 26 57  1  0  0  0  0
M  END
> <Catalog ID>
Z16203120

> <PlateID>
1041831-R-20

> <Well>
F03

> <MW (desalted)>
396.483

> <ClogP>
3.268

> <HBD>
3

> <TPSA>
94.300

> <RotBonds>
5

> <ROCS_ShapeQuery>
A71EV2A-x0451_0A_A71EV2A-x0310_0A_A71EV2A-x0416_0A_peptide

> <ROCS_TanimotoCombo>
0.517 

> <ROCS_ShapeTanimoto>
0.386 

> <ROCS_ColorTanimoto>
0.131 

> <ROCS_RefTversky>
0.343 

> <ROCS_RefColorTversky>
0.158 

> <ROCS_RefTverskyCombo>
0.501 

> <ROCS_FitTversky>
1.481 

> <ROCS_FitColorTversky>
0.436 

> <ROCS_FitTverskyCombo>
1.916 

> <ROCS_ColorScore>
-4.836

> <ROCS_Overlap>
2386.904

> <ROCS_Rank>
401                 

$$$$
untitled-dbase-3443_227
  -OEChem-11132311063D

 50 53  0     1  0  0  0  0  0999 V2000
   10.6910   13.5709   23.0212 C   0  0  0  0  0  0  0  0  0  0  0  0
    6.4678   12.1374   25.0552 C   0  0  0  0  0  0  0  0  0  0  0  0
    7.7228   11.5243   25.7264 C   0  0  0  0  0  0  0  0  0  0  0  0
    7.3460   12.4454   23.8159 C   0  0  0  0  0  0  0  0  0  0  0  0
   11.3339   14.5674   19.4874 C   0  0  0  0  0  0  0  0  0  0  0  0
   12.2561   16.9348   19.6869 C   0  0  0  0  0  0  0  0  0  0  0  0
    9.8130    9.9734   23.9554 C   0  0  0  0  0  0  0  0  0  0  0  0
   11.0087   13.4658   20.4893 C   0  0  0  0  0  0  0  0  0  0  0  0
   11.5661   15.4796   21.6834 C   0  0  0  0  0  0  0  0  0  0  0  0
   13.3320   16.7800   18.6313 C   0  0  0  0  0  0  0  0  0  0  0  0
   13.6745   15.1606   20.2742 C   0  0  0  0  0  0  0  0  0  0  0  0
    9.7888   11.5153   24.1525 C   0  0  2  0  0  0  0  0  0  0  0  0
    8.2872   10.0179   23.6631 C   0  0  2  0  0  0  0  0  0  0  0  0
    8.2934   11.3843   24.3265 C   0  0  0  0  0  0  0  0  0  0  0  0
   12.1979   15.5507   20.2977 C   0  0  1  0  0  0  0  0  0  0  0  0
    7.7830    7.6254   22.3153 C   0  0  0  0  0  0  0  0  0  0  0  0
    7.9349    7.6997   23.8196 C   0  0  0  0  0  0  0  0  0  0  0  0
   11.0632   14.1167   21.7952 N   0  0  0  0  0  0  0  0  0  0  0  0
   10.2248   12.2606   22.9570 N   0  0  0  0  0  0  0  0  0  0  0  0
   10.7698   14.1945   24.0832 O   0  0  0  0  0  0  0  0  0  0  0  0
   14.2394   15.7741   19.1034 O   0  0  0  0  0  0  0  0  0  0  0  0
    7.5046    8.9727   24.2641 O   0  0  0  0  0  0  0  0  0  0  0  0
    5.6725   11.4090   24.8600 H   0  0  0  0  0  0  0  0  0  0  0  0
    6.0380   13.0074   25.5582 H   0  0  0  0  0  0  0  0  0  0  0  0
    8.2594   12.2376   26.3632 H   0  0  0  0  0  0  0  0  0  0  0  0
    7.5509   10.6097   26.2992 H   0  0  0  0  0  0  0  0  0  0  0  0
    6.8696   12.2610   22.8494 H   0  0  0  0  0  0  0  0  0  0  0  0
    7.7539   13.4628   23.8223 H   0  0  0  0  0  0  0  0  0  0  0  0
   11.8425   14.1796   18.6015 H   0  0  0  0  0  0  0  0  0  0  0  0
   10.4096   15.0590   19.1642 H   0  0  0  0  0  0  0  0  0  0  0  0
   12.4792   17.7369   20.3969 H   0  0  0  0  0  0  0  0  0  0  0  0
   11.3004   17.1729   19.2026 H   0  0  0  0  0  0  0  0  0  0  0  0
   10.4326    9.6019   23.1336 H   0  0  0  0  0  0  0  0  0  0  0  0
   10.0758    9.4198   24.8649 H   0  0  0  0  0  0  0  0  0  0  0  0
   10.0225   13.0254   20.3140 H   0  0  0  0  0  0  0  0  0  0  0  0
   11.7646   12.6728   20.4757 H   0  0  0  0  0  0  0  0  0  0  0  0
   12.2559   15.6969   22.5096 H   0  0  0  0  0  0  0  0  0  0  0  0
   10.6987   16.1477   21.7792 H   0  0  0  0  0  0  0  0  0  0  0  0
   12.9252   16.4816   17.6608 H   0  0  0  0  0  0  0  0  0  0  0  0
   13.8990   17.7076   18.4996 H   0  0  0  0  0  0  0  0  0  0  0  0
   14.2344   15.4890   21.1554 H   0  0  0  0  0  0  0  0  0  0  0  0
   13.8075   14.0780   20.1677 H   0  0  0  0  0  0  0  0  0  0  0  0
   10.3367   11.8502   25.0411 H   0  0  0  0  0  0  0  0  0  0  0  0
    8.0833   10.0635   22.5851 H   0  0  0  0  0  0  0  0  0  0  0  0
    6.7388    7.7631   22.0213 H   0  0  0  0  0  0  0  0  0  0  0  0
    8.3919    8.3936   21.8274 H   0  0  0  0  0  0  0  0  0  0  0  0
    8.1311    6.6574   21.9397 H   0  0  0  0  0  0  0  0  0  0  0  0
    8.9815    7.5613   24.1070 H   0  0  0  0  0  0  0  0  0  0  0  0
    7.3253    6.9320   24.3055 H   0  0  0  0  0  0  0  0  0  0  0  0
   10.1815   11.7969   22.0575 H   0  0  0  0  0  0  0  0  0  0  0  0
  1 18  1  0  0  0  0
  1 19  1  0  0  0  0
  1 20  2  0  0  0  0
  2  3  1  0  0  0  0
  2  4  1  0  0  0  0
  3 14  1  0  0  0  0
  4 14  1  0  0  0  0
  5  8  1  0  0  0  0
  5 15  1  0  0  0  0
  6 10  1  0  0  0  0
  6 15  1  0  0  0  0
  7 12  1  0  0  0  0
  7 13  1  0  0  0  0
  8 18  1  0  0  0  0
  9 15  1  0  0  0  0
  9 18  1  0  0  0  0
 10 21  1  0  0  0  0
 11 15  1  0  0  0  0
 11 21  1  0  0  0  0
 12 14  1  0  0  0  0
 12 19  1  0  0  0  0
 13 14  1  0  0  0  0
 13 22  1  0  0  0  0
 16 17  1  0  0  0  0
 17 22  1  0  0  0  0
  2 23  1  0  0  0  0
  2 24  1  0  0  0  0
  3 25  1  0  0  0  0
  3 26  1  0  0  0  0
  4 27  1  0  0  0  0
  4 28  1  0  0  0  0
  5 29  1  0  0  0  0
  5 30  1  0  0  0  0
  6 31  1  0  0  0  0
  6 32  1  0  0  0  0
  7 33  1  0  0  0  0
  7 34  1  0  0  0  0
  8 35  1  0  0  0  0
  8 36  1  0  0  0  0
  9 37  1  0  0  0  0
  9 38  1  0  0  0  0
 10 39  1  0  0  0  0
 10 40  1  0  0  0  0
 11 41  1  0  0  0  0
 11 42  1  0  0  0  0
 12 43  1  0  0  0  0
 13 44  1  0  0  0  0
 16 45  1  0  0  0  0
 16 46  1  0  0  0  0
 16 47  1  0  0  0  0
 17 48  1  0  0  0  0
 17 49  1  0  0  0  0
 19 50  1  0  0  0  0
M  END
> <Catalog ID>
Z1402463772

> <PlateID>
1041831-R-44

> <Well>
A04

> <MW (desalted)>
308.416

> <ClogP>
2.492

> <HBD>
1

> <TPSA>
50.800

> <RotBonds>
3

> <ROCS_ShapeQuery>
A71EV2A-x0451_0A_A71EV2A-x0310_0A_A71EV2A-x0416_0A_peptide

> <ROCS_TanimotoCombo>
0.517 

> <ROCS_ShapeTanimoto>
0.331 

> <ROCS_ColorTanimoto>
0.186 

> <ROCS_RefTversky>
0.295 

> <ROCS_RefColorTversky>
0.204 

> <ROCS_RefTverskyCombo>
0.499 

> <ROCS_FitTversky>
1.583 

> <ROCS_FitColorTversky>
0.676 

> <ROCS_FitTverskyCombo>
2.259 

> <ROCS_ColorScore>
-6.225

> <ROCS_Overlap>
2049.217

> <ROCS_Rank>
402                 

$$$$
untitled-dbase-283_569
  -OEChem-11132311063D

 51 54  0     1  0  0  0  0  0999 V2000
    7.3128   10.6928   24.9732 C   0  0  0  0  0  0  0  0  0  0  0  0
    7.9752    9.8651   24.0668 C   0  0  0  0  0  0  0  0  0  0  0  0
    8.7960   12.5109   24.3971 C   0  0  0  0  0  0  0  0  0  0  0  0
    7.7231   12.0158   25.1383 C   0  0  0  0  0  0  0  0  0  0  0  0
    9.0481   10.3603   23.3255 C   0  0  0  0  0  0  0  0  0  0  0  0
    9.4585   11.6831   23.4907 C   0  0  0  0  0  0  0  0  0  0  0  0
   11.0649   13.4980   22.8050 C   0  0  0  0  0  0  0  0  0  0  0  0
   14.1469   16.9195   18.9892 C   0  0  0  0  0  0  0  0  0  0  0  0
   12.7787   16.4915   18.4707 C   0  0  0  0  0  0  0  0  0  0  0  0
   14.1073   16.5358   20.4616 C   0  0  0  0  0  0  0  0  0  0  0  0
   11.1167    9.1916   22.5340 C   0  0  0  0  0  0  0  0  0  0  0  0
    8.9322    8.5668   21.6121 C   0  0  0  0  0  0  0  0  0  0  0  0
   11.3344   15.2583   20.3011 C   0  0  0  0  0  0  0  0  0  0  0  0
   11.2504    7.7784   23.0910 C   0  0  0  0  0  0  0  0  0  0  0  0
    9.1454    7.1672   22.1905 C   0  0  0  0  0  0  0  0  0  0  0  0
   12.4588   15.2142   19.2439 C   0  0  2  0  0  0  0  0  0  0  0  0
   13.4392   15.1633   20.4309 C   0  0  2  0  0  0  0  0  0  0  0  0
   12.2292   13.6418   21.8440 C   0  0  0  0  0  0  0  0  0  0  0  0
    7.0145   12.9004   26.1076 C   0  0  0  0  0  0  0  0  0  0  0  0
    9.6931    9.5187   22.4282 N   0  0  0  0  0  0  0  0  0  0  0  0
   12.3194   15.0241   21.3739 N   0  0  2  0  0  0  0  0  0  0  0  0
   10.5440   12.2080   22.7496 N   0  0  0  0  0  0  0  0  0  0  0  0
   10.6861   14.4231   23.5162 O   0  0  0  0  0  0  0  0  0  0  0  0
   10.5415    6.8551   22.2555 O   0  0  0  0  0  0  0  0  0  0  0  0
    5.9862   12.2833   26.7616 F   0  0  0  0  0  0  0  0  0  0  0  0
    7.8228   13.3879   27.0949 F   0  0  0  0  0  0  0  0  0  0  0  0
    6.4630   13.9973   25.5112 F   0  0  0  0  0  0  0  0  0  0  0  0
    6.4782   10.2983   25.5467 H   0  0  0  0  0  0  0  0  0  0  0  0
    7.6468    8.8357   23.9468 H   0  0  0  0  0  0  0  0  0  0  0  0
    9.1134   13.5432   24.5286 H   0  0  0  0  0  0  0  0  0  0  0  0
   14.9677   16.4355   18.4506 H   0  0  0  0  0  0  0  0  0  0  0  0
   14.2675   18.0047   18.8806 H   0  0  0  0  0  0  0  0  0  0  0  0
   12.0225   17.2659   18.6137 H   0  0  0  0  0  0  0  0  0  0  0  0
   12.8458   16.2695   17.4009 H   0  0  0  0  0  0  0  0  0  0  0  0
   15.1222   16.4425   20.8453 H   0  0  0  0  0  0  0  0  0  0  0  0
   13.5656   17.2581   21.0650 H   0  0  0  0  0  0  0  0  0  0  0  0
   11.6379    9.8963   23.1905 H   0  0  0  0  0  0  0  0  0  0  0  0
   11.5741    9.2405   21.5389 H   0  0  0  0  0  0  0  0  0  0  0  0
    9.2990    8.5989   20.5822 H   0  0  0  0  0  0  0  0  0  0  0  0
    7.8666    8.8058   21.6136 H   0  0  0  0  0  0  0  0  0  0  0  0
   10.8135   16.2187   20.3795 H   0  0  0  0  0  0  0  0  0  0  0  0
   10.5764   14.4770   20.1632 H   0  0  0  0  0  0  0  0  0  0  0  0
   12.3007    7.4797   23.0970 H   0  0  0  0  0  0  0  0  0  0  0  0
   10.8766    7.7113   24.1166 H   0  0  0  0  0  0  0  0  0  0  0  0
    8.6976    7.0719   23.1866 H   0  0  0  0  0  0  0  0  0  0  0  0
    8.6697    6.4245   21.5429 H   0  0  0  0  0  0  0  0  0  0  0  0
   12.4269   14.3273   18.6147 H   0  0  0  0  0  0  0  0  0  0  0  0
   14.1578   14.3257   20.3987 H   0  0  0  0  0  0  0  0  0  0  0  0
   12.0877   12.9732   20.9890 H   0  0  0  0  0  0  0  0  0  0  0  0
   13.1533   13.3639   22.3604 H   0  0  0  0  0  0  0  0  0  0  0  0
   10.9858   11.5555   22.1053 H   0  0  0  0  0  0  0  0  0  0  0  0
  1  2  1  0  0  0  0
  1  4  2  0  0  0  0
  2  5  2  0  0  0  0
  3  4  1  0  0  0  0
  3  6  2  0  0  0  0
  4 19  1  0  0  0  0
  5  6  1  0  0  0  0
  5 20  1  0  0  0  0
  6 22  1  0  0  0  0
  7 18  1  0  0  0  0
  7 22  1  0  0  0  0
  7 23  2  0  0  0  0
  8  9  1  0  0  0  0
  8 10  1  0  0  0  0
  9 16  1  0  0  0  0
 10 17  1  0  0  0  0
 11 14  1  0  0  0  0
 11 20  1  0  0  0  0
 12 15  1  0  0  0  0
 12 20  1  0  0  0  0
 13 16  1  0  0  0  0
 13 21  1  0  0  0  0
 14 24  1  0  0  0  0
 15 24  1  0  0  0  0
 16 17  1  0  0  0  0
 17 21  1  0  0  0  0
 18 21  1  0  0  0  0
 19 25  1  0  0  0  0
 19 26  1  0  0  0  0
 19 27  1  0  0  0  0
  1 28  1  0  0  0  0
  2 29  1  0  0  0  0
  3 30  1  0  0  0  0
  8 31  1  0  0  0  0
  8 32  1  0  0  0  0
  9 33  1  0  0  0  0
  9 34  1  0  0  0  0
 10 35  1  0  0  0  0
 10 36  1  0  0  0  0
 11 37  1  0  0  0  0
 11 38  1  0  0  0  0
 12 39  1  0  0  0  0
 12 40  1  0  0  0  0
 13 41  1  0  0  0  0
 13 42  1  0  0  0  0
 14 43  1  0  0  0  0
 14 44  1  0  0  0  0
 15 45  1  0  0  0  0
 15 46  1  0  0  0  0
 16 47  1  0  0  0  0
 17 48  1  0  0  0  0
 18 49  1  0  0  0  0
 18 50  1  0  0  0  0
 22 51  1  0  0  0  0
M  END
> <Catalog ID>
Z1363070593

> <PlateID>
1041831-R-04

> <Well>
E04

> <MW (desalted)>
383.408

> <ClogP>
3.141

> <HBD>
1

> <TPSA>
44.810

> <RotBonds>
5

> <ROCS_ShapeQuery>
A71EV2A-x0451_0A_A71EV2A-x0310_0A_A71EV2A-x0416_0A_peptide

> <ROCS_TanimotoCombo>
0.517 

> <ROCS_ShapeTanimoto>
0.366 

> <ROCS_ColorTanimoto>
0.150 

> <ROCS_RefTversky>
0.327 

> <ROCS_RefColorTversky>
0.184 

> <ROCS_RefTverskyCombo>
0.511 

> <ROCS_FitTversky>
1.487 

> <ROCS_FitColorTversky>
0.451 

> <ROCS_FitTverskyCombo>
1.938 

> <ROCS_ColorScore>
-5.646

> <ROCS_Overlap>
2276.347

> <ROCS_Rank>
403                 

$$$$
untitled-dbase-591_5278
  -OEChem-11132311063D

 44 47  0     1  0  0  0  0  0999 V2000
    5.5878   12.7004   27.2454 C   0  0  0  0  0  0  0  0  0  0  0  0
    4.6859   11.6641   27.1237 C   0  0  0  0  0  0  0  0  0  0  0  0
    9.0210   10.0766   23.5520 C   0  0  0  0  0  0  0  0  0  0  0  0
    7.7810   11.0628   24.9110 C   0  0  0  0  0  0  0  0  0  0  0  0
    6.6952   11.4664   25.8098 C   0  0  0  0  0  0  0  0  0  0  0  0
   11.0651   13.2042   23.3538 C   0  0  0  0  0  0  0  0  0  0  0  0
   14.2272   16.2642   18.4547 C   0  0  0  0  0  0  0  0  0  0  0  0
   13.5228   14.8998   18.5000 C   0  0  0  0  0  0  0  0  0  0  0  0
   12.0199   16.5536   19.2970 C   0  0  0  0  0  0  0  0  0  0  0  0
   13.7785   16.6089   20.8984 C   0  0  0  0  0  0  0  0  0  0  0  0
   13.4361   17.0960   19.4786 C   0  0  1  0  0  0  0  0  0  0  0  0
   12.4375   15.1075   19.5731 C   0  0  2  0  0  0  0  0  0  0  0  0
   13.1322   15.2078   20.9525 C   0  0  2  0  0  0  0  0  0  0  0  0
   12.7011   15.7091   23.3833 C   0  0  0  0  0  0  0  0  0  0  0  0
   11.0198   11.6916   23.3899 C   0  0  0  0  0  0  0  0  0  0  0  0
   12.1587   15.0648   22.1172 C   0  0  2  0  0  0  0  0  0  0  0  0
    6.7407   12.5886   26.4931 N   0  0  0  0  0  0  0  0  0  0  0  0
    7.8203    9.9647   24.1926 N   0  0  0  0  0  0  0  0  0  0  0  0
    8.9119   11.7884   24.7002 N   0  0  0  0  0  0  0  0  0  0  0  0
    9.7271   11.1749   23.8288 N   0  0  0  0  0  0  0  0  0  0  0  0
   11.9199   13.6244   22.3729 N   0  0  0  0  0  0  0  0  0  0  0  0
   10.4163   13.9192   24.1127 O   0  0  0  0  0  0  0  0  0  0  0  0
    5.2949   10.4977   26.0237 S   0  0  0  0  0  0  0  0  0  0  0  0
    5.4510   13.5681   27.8765 H   0  0  0  0  0  0  0  0  0  0  0  0
    3.7295   11.5417   27.6112 H   0  0  0  0  0  0  0  0  0  0  0  0
    9.3754    9.3203   22.8631 H   0  0  0  0  0  0  0  0  0  0  0  0
   15.2895   16.1877   18.7071 H   0  0  0  0  0  0  0  0  0  0  0  0
   14.1436   16.6971   17.4515 H   0  0  0  0  0  0  0  0  0  0  0  0
   13.0696   14.6776   17.5272 H   0  0  0  0  0  0  0  0  0  0  0  0
   14.2131   14.0871   18.7468 H   0  0  0  0  0  0  0  0  0  0  0  0
   11.3070   16.9532   20.0246 H   0  0  0  0  0  0  0  0  0  0  0  0
   11.6278   16.7029   18.2852 H   0  0  0  0  0  0  0  0  0  0  0  0
   14.8594   16.5627   21.0676 H   0  0  0  0  0  0  0  0  0  0  0  0
   13.3466   17.2822   21.6478 H   0  0  0  0  0  0  0  0  0  0  0  0
   13.5492   18.1739   19.3479 H   0  0  0  0  0  0  0  0  0  0  0  0
   11.6347   14.3686   19.5250 H   0  0  0  0  0  0  0  0  0  0  0  0
   13.9040   14.4355   21.0566 H   0  0  0  0  0  0  0  0  0  0  0  0
   13.6594   15.2596   23.6655 H   0  0  0  0  0  0  0  0  0  0  0  0
   12.0054   15.5763   24.2183 H   0  0  0  0  0  0  0  0  0  0  0  0
   12.8691   16.7833   23.2466 H   0  0  0  0  0  0  0  0  0  0  0  0
   11.7876   11.3141   24.0745 H   0  0  0  0  0  0  0  0  0  0  0  0
   11.2246   11.2894   22.3913 H   0  0  0  0  0  0  0  0  0  0  0  0
   11.2024   15.5262   21.8514 H   0  0  0  0  0  0  0  0  0  0  0  0
   12.4463   12.9890   21.8101 H   0  0  0  0  0  0  0  0  0  0  0  0
  1  2  2  0  0  0  0
  1 17  1  0  0  0  0
  2 23  1  0  0  0  0
  3 18  2  0  0  0  0
  3 20  1  0  0  0  0
  4  5  1  0  0  0  0
  4 18  1  0  0  0  0
  4 19  2  0  0  0  0
  5 17  2  0  0  0  0
  5 23  1  0  0  0  0
  6 15  1  0  0  0  0
  6 21  1  0  0  0  0
  6 22  2  0  0  0  0
  7  8  1  0  0  0  0
  7 11  1  0  0  0  0
  8 12  1  0  0  0  0
  9 11  1  0  0  0  0
  9 12  1  0  0  0  0
 10 11  1  0  0  0  0
 10 13  1  0  0  0  0
 12 13  1  0  0  0  0
 13 16  1  0  0  0  0
 14 16  1  0  0  0  0
 15 20  1  0  0  0  0
 16 21  1  0  0  0  0
 19 20  1  0  0  0  0
  1 24  1  0  0  0  0
  2 25  1  0  0  0  0
  3 26  1  0  0  0  0
  7 27  1  0  0  0  0
  7 28  1  0  0  0  0
  8 29  1  0  0  0  0
  8 30  1  0  0  0  0
  9 31  1  0  0  0  0
  9 32  1  0  0  0  0
 10 33  1  0  0  0  0
 10 34  1  0  0  0  0
 11 35  1  0  0  0  0
 12 36  1  0  0  0  0
 13 37  1  0  0  0  0
 14 38  1  0  0  0  0
 14 39  1  0  0  0  0
 14 40  1  0  0  0  0
 15 41  1  0  0  0  0
 15 42  1  0  0  0  0
 16 43  1  0  0  0  0
 21 44  1  0  0  0  0
M  END
> <Catalog ID>
Z2034644144

> <PlateID>
1041831-R-08

> <Well>
D02

> <MW (desalted)>
331.436

> <ClogP>
2.295

> <HBD>
1

> <TPSA>
72.700

> <RotBonds>
5

> <ROCS_ShapeQuery>
A71EV2A-x0451_0A_A71EV2A-x0310_0A_A71EV2A-x0416_0A_peptide

> <ROCS_TanimotoCombo>
0.517 

> <ROCS_ShapeTanimoto>
0.334 

> <ROCS_ColorTanimoto>
0.183 

> <ROCS_RefTversky>
0.299 

> <ROCS_RefColorTversky>
0.226 

> <ROCS_RefTverskyCombo>
0.525 

> <ROCS_FitTversky>
1.539 

> <ROCS_FitColorTversky>
0.489 

> <ROCS_FitTverskyCombo>
2.027 

> <ROCS_ColorScore>
-6.966

> <ROCS_Overlap>
2076.639

> <ROCS_Rank>
404                 

$$$$
untitled-dbase-1920_138
  -OEChem-11132311063D

 50 53  0     1  0  0  0  0  0999 V2000
   12.7659   13.6930   21.4845 C   0  0  0  0  0  0  0  0  0  0  0  0
   11.3195   14.6909   22.9315 C   0  0  0  0  0  0  0  0  0  0  0  0
    6.7364   13.1347   25.7356 C   0  0  0  0  0  0  0  0  0  0  0  0
    6.4986   11.8065   26.4491 C   0  0  0  0  0  0  0  0  0  0  0  0
   13.6987   16.4198   19.2943 C   0  0  0  0  0  0  0  0  0  0  0  0
   12.9443   15.3340   18.5458 C   0  0  0  0  0  0  0  0  0  0  0  0
    8.1281   13.1945   25.1047 C   0  0  0  0  0  0  0  0  0  0  0  0
    6.7430   10.6191   25.5244 C   0  0  0  0  0  0  0  0  0  0  0  0
   13.7285   15.9239   20.7374 C   0  0  0  0  0  0  0  0  0  0  0  0
   11.8218   14.9653   19.5068 C   0  0  0  0  0  0  0  0  0  0  0  0
    9.7740   10.8496   22.5862 C   0  0  0  0  0  0  0  0  0  0  0  0
    9.5186    9.5479   23.3418 C   0  0  0  0  0  0  0  0  0  0  0  0
    8.3591   12.0058   24.1561 C   0  0  2  0  0  0  0  0  0  0  0  0
    8.1356   10.6678   24.8911 C   0  0  2  0  0  0  0  0  0  0  0  0
   12.4637   15.0717   20.8922 C   0  0  0  0  0  0  0  0  0  0  0  0
   12.1021   12.3782   23.5016 C   0  0  0  0  0  0  0  0  0  0  0  0
   10.8245   12.2004   24.3046 C   0  0  0  0  0  0  0  0  0  0  0  0
   11.5541   15.5856   21.8867 N   0  0  0  0  0  0  0  0  0  0  0  0
   12.0597   13.5578   22.6604 N   0  0  0  0  0  0  0  0  0  0  0  0
    9.6544   12.0407   23.4435 N   0  0  1  0  0  0  0  0  0  0  0  0
   13.5136   12.8698   20.9719 O   0  0  0  0  0  0  0  0  0  0  0  0
   10.5925   14.8979   23.8945 O   0  0  0  0  0  0  0  0  0  0  0  0
    8.2363    9.5787   23.9678 O   0  0  0  0  0  0  0  0  0  0  0  0
    5.9791   13.2683   24.9564 H   0  0  0  0  0  0  0  0  0  0  0  0
    6.6184   13.9586   26.4452 H   0  0  0  0  0  0  0  0  0  0  0  0
    7.1648   11.7356   27.3184 H   0  0  0  0  0  0  0  0  0  0  0  0
    5.4717   11.7720   26.8322 H   0  0  0  0  0  0  0  0  0  0  0  0
   14.7026   16.5834   18.8921 H   0  0  0  0  0  0  0  0  0  0  0  0
   13.1502   17.3677   19.2357 H   0  0  0  0  0  0  0  0  0  0  0  0
   12.5662   15.6805   17.5798 H   0  0  0  0  0  0  0  0  0  0  0  0
   13.5952   14.4695   18.3708 H   0  0  0  0  0  0  0  0  0  0  0  0
    8.2104   14.1441   24.5694 H   0  0  0  0  0  0  0  0  0  0  0  0
    8.8856   13.1975   25.8959 H   0  0  0  0  0  0  0  0  0  0  0  0
    6.6220    9.6800   26.0807 H   0  0  0  0  0  0  0  0  0  0  0  0
    5.9776   10.5933   24.7355 H   0  0  0  0  0  0  0  0  0  0  0  0
   14.6356   15.3328   20.9112 H   0  0  0  0  0  0  0  0  0  0  0  0
   13.7606   16.7717   21.4309 H   0  0  0  0  0  0  0  0  0  0  0  0
   11.0095   15.6953   19.3979 H   0  0  0  0  0  0  0  0  0  0  0  0
   11.4145   13.9736   19.2847 H   0  0  0  0  0  0  0  0  0  0  0  0
   10.7863   10.8001   22.1444 H   0  0  0  0  0  0  0  0  0  0  0  0
    9.0625   10.9215   21.7405 H   0  0  0  0  0  0  0  0  0  0  0  0
    9.5280    8.7045   22.6435 H   0  0  0  0  0  0  0  0  0  0  0  0
   10.2925    9.3603   24.0963 H   0  0  0  0  0  0  0  0  0  0  0  0
    7.5504   12.0818   23.3546 H   0  0  0  0  0  0  0  0  0  0  0  0
    8.8815   10.5312   25.6814 H   0  0  0  0  0  0  0  0  0  0  0  0
   12.2873   11.5184   22.8501 H   0  0  0  0  0  0  0  0  0  0  0  0
   12.9565   12.4951   24.1756 H   0  0  0  0  0  0  0  0  0  0  0  0
   10.8902   11.3028   24.9272 H   0  0  0  0  0  0  0  0  0  0  0  0
   10.6393   13.0612   24.9551 H   0  0  0  0  0  0  0  0  0  0  0  0
   11.1276   16.5053   21.8320 H   0  0  0  0  0  0  0  0  0  0  0  0
  1 15  1  0  0  0  0
  1 19  1  0  0  0  0
  1 21  2  0  0  0  0
  2 18  1  0  0  0  0
  2 19  1  0  0  0  0
  2 22  2  0  0  0  0
  3  4  1  0  0  0  0
  3  7  1  0  0  0  0
  4  8  1  0  0  0  0
  5  6  1  0  0  0  0
  5  9  1  0  0  0  0
  6 10  1  0  0  0  0
  7 13  1  0  0  0  0
  8 14  1  0  0  0  0
  9 15  1  0  0  0  0
 10 15  1  0  0  0  0
 11 12  1  0  0  0  0
 11 20  1  0  0  0  0
 12 23  1  0  0  0  0
 13 14  1  0  0  0  0
 13 20  1  0  0  0  0
 14 23  1  0  0  0  0
 15 18  1  0  0  0  0
 16 17  1  0  0  0  0
 16 19  1  0  0  0  0
 17 20  1  0  0  0  0
  3 24  1  0  0  0  0
  3 25  1  0  0  0  0
  4 26  1  0  0  0  0
  4 27  1  0  0  0  0
  5 28  1  0  0  0  0
  5 29  1  0  0  0  0
  6 30  1  0  0  0  0
  6 31  1  0  0  0  0
  7 32  1  0  0  0  0
  7 33  1  0  0  0  0
  8 34  1  0  0  0  0
  8 35  1  0  0  0  0
  9 36  1  0  0  0  0
  9 37  1  0  0  0  0
 10 38  1  0  0  0  0
 10 39  1  0  0  0  0
 11 40  1  0  0  0  0
 11 41  1  0  0  0  0
 12 42  1  0  0  0  0
 12 43  1  0  0  0  0
 13 44  1  0  0  0  0
 14 45  1  0  0  0  0
 16 46  1  0  0  0  0
 16 47  1  0  0  0  0
 17 48  1  0  0  0  0
 17 49  1  0  0  0  0
 18 50  1  0  0  0  0
M  END
> <Catalog ID>
Z1230757061

> <PlateID>
1041831-R-24

> <Well>
H11

> <MW (desalted)>
321.415

> <ClogP>
1.963

> <HBD>
1

> <TPSA>
61.880

> <RotBonds>
3

> <ROCS_ShapeQuery>
A71EV2A-x0451_0A_A71EV2A-x0310_0A_A71EV2A-x0416_0A_peptide

> <ROCS_TanimotoCombo>
0.517 

> <ROCS_ShapeTanimoto>
0.366 

> <ROCS_ColorTanimoto>
0.151 

> <ROCS_RefTversky>
0.320 

> <ROCS_RefColorTversky>
0.175 

> <ROCS_RefTverskyCombo>
0.495 

> <ROCS_FitTversky>
1.646 

> <ROCS_FitColorTversky>
0.526 

> <ROCS_FitTverskyCombo>
2.172 

> <ROCS_ColorScore>
-5.340

> <ROCS_Overlap>
2222.506

> <ROCS_Rank>
405                 

$$$$
untitled-dbase-7_702
  -OEChem-11132311063D

 46 49  0     1  0  0  0  0  0999 V2000
    3.1942   12.0679   28.9874 C   0  0  0  0  0  0  0  0  0  0  0  0
    4.3017   11.8340   29.8024 C   0  0  0  0  0  0  0  0  0  0  0  0
    3.3746   12.4329   27.6532 C   0  0  0  0  0  0  0  0  0  0  0  0
    5.5898   11.9651   29.2833 C   0  0  0  0  0  0  0  0  0  0  0  0
    4.6626   12.5640   27.1341 C   0  0  0  0  0  0  0  0  0  0  0  0
    5.7702   12.3302   27.9491 C   0  0  0  0  0  0  0  0  0  0  0  0
   11.5105   14.5049   22.0573 C   0  0  0  0  0  0  0  0  0  0  0  0
   11.0904   14.9530   20.8209 C   0  0  0  0  0  0  0  0  0  0  0  0
   10.8506   13.6582   23.0843 C   0  0  0  0  0  0  0  0  0  0  0  0
    8.4942    9.4898   23.8184 C   0  0  0  0  0  0  0  0  0  0  0  0
    9.5209   10.1145   22.8787 C   0  0  0  0  0  0  0  0  0  0  0  0
    7.2382   10.7179   25.7131 C   0  0  0  0  0  0  0  0  0  0  0  0
    8.4098   12.6948   25.3222 C   0  0  0  0  0  0  0  0  0  0  0  0
    7.6150   10.6658   24.2390 C   0  0  1  0  0  0  0  0  0  0  0  0
    8.4436   11.9396   23.9975 C   0  0  2  0  0  0  0  0  0  0  0  0
    9.8227   11.4499   23.5525 C   0  0  2  0  0  0  0  0  0  0  0  0
    9.7869   14.6733   20.1857 C   0  0  0  0  0  0  0  0  0  0  0  0
    7.1563   12.4718   27.3898 C   0  0  0  0  0  0  0  0  0  0  0  0
   11.9974   15.7431   20.1325 N   0  0  0  0  0  0  0  0  0  0  0  0
   13.1148   15.9122   20.8214 N   0  0  0  0  0  0  0  0  0  0  0  0
    7.2044   12.1622   25.9681 N   0  0  2  0  0  0  0  0  0  0  0  0
   10.4892   12.3765   22.6828 N   0  0  0  0  0  0  0  0  0  0  0  0
   10.6423   14.1232   24.2018 O   0  0  0  0  0  0  0  0  0  0  0  0
   13.0912   15.1266   22.3008 S   0  0  0  0  0  0  0  0  0  0  0  0
    2.1914   11.9644   29.3914 H   0  0  0  0  0  0  0  0  0  0  0  0
    4.1614   11.5487   30.8409 H   0  0  0  0  0  0  0  0  0  0  0  0
    2.5126   12.6140   27.0181 H   0  0  0  0  0  0  0  0  0  0  0  0
    6.4469   11.7811   29.9257 H   0  0  0  0  0  0  0  0  0  0  0  0
    4.7936   12.8489   26.0935 H   0  0  0  0  0  0  0  0  0  0  0  0
    7.9174    8.7036   23.3232 H   0  0  0  0  0  0  0  0  0  0  0  0
    9.0039    9.0384   24.6774 H   0  0  0  0  0  0  0  0  0  0  0  0
   10.4131    9.4875   22.7718 H   0  0  0  0  0  0  0  0  0  0  0  0
    9.0800   10.2606   21.8833 H   0  0  0  0  0  0  0  0  0  0  0  0
    6.2506   10.2697   25.8540 H   0  0  0  0  0  0  0  0  0  0  0  0
    7.9562   10.2031   26.3517 H   0  0  0  0  0  0  0  0  0  0  0  0
    9.3076   12.5291   25.9242 H   0  0  0  0  0  0  0  0  0  0  0  0
    8.3123   13.7699   25.1286 H   0  0  0  0  0  0  0  0  0  0  0  0
    6.6997   10.6874   23.6120 H   0  0  0  0  0  0  0  0  0  0  0  0
    7.9658   12.5442   23.1985 H   0  0  0  0  0  0  0  0  0  0  0  0
   10.4850   11.2871   24.4098 H   0  0  0  0  0  0  0  0  0  0  0  0
    9.0422   15.4400   20.4543 H   0  0  0  0  0  0  0  0  0  0  0  0
    9.8605   14.6477   19.0854 H   0  0  0  0  0  0  0  0  0  0  0  0
    9.3824   13.6921   20.4874 H   0  0  0  0  0  0  0  0  0  0  0  0
    7.5246   13.4946   27.5249 H   0  0  0  0  0  0  0  0  0  0  0  0
    7.8568   11.8036   27.9018 H   0  0  0  0  0  0  0  0  0  0  0  0
   10.6418   12.0895   21.7169 H   0  0  0  0  0  0  0  0  0  0  0  0
  1  2  2  0  0  0  0
  1  3  1  0  0  0  0
  2  4  1  0  0  0  0
  3  5  2  0  0  0  0
  4  6  2  0  0  0  0
  5  6  1  0  0  0  0
  6 18  1  0  0  0  0
  7  8  2  0  0  0  0
  7  9  1  0  0  0  0
  7 24  1  0  0  0  0
  8 17  1  0  0  0  0
  8 19  1  0  0  0  0
  9 22  1  0  0  0  0
  9 23  2  0  0  0  0
 10 11  1  0  0  0  0
 10 14  1  0  0  0  0
 11 16  1  0  0  0  0
 12 14  1  0  0  0  0
 12 21  1  0  0  0  0
 13 15  1  0  0  0  0
 13 21  1  0  0  0  0
 14 15  1  0  0  0  0
 15 16  1  0  0  0  0
 16 22  1  0  0  0  0
 18 21  1  0  0  0  0
 19 20  2  0  0  0  0
 20 24  1  0  0  0  0
  1 25  1  0  0  0  0
  2 26  1  0  0  0  0
  3 27  1  0  0  0  0
  4 28  1  0  0  0  0
  5 29  1  0  0  0  0
 10 30  1  0  0  0  0
 10 31  1  0  0  0  0
 11 32  1  0  0  0  0
 11 33  1  0  0  0  0
 12 34  1  0  0  0  0
 12 35  1  0  0  0  0
 13 36  1  0  0  0  0
 13 37  1  0  0  0  0
 14 38  1  0  0  0  0
 15 39  1  0  0  0  0
 16 40  1  0  0  0  0
 17 41  1  0  0  0  0
 17 42  1  0  0  0  0
 17 43  1  0  0  0  0
 18 44  1  0  0  0  0
 18 45  1  0  0  0  0
 22 46  1  0  0  0  0
M  END
> <Catalog ID>
Z1821457294

> <PlateID>
1041831-R-01

> <Well>
A08

> <MW (desalted)>
342.458

> <ClogP>
2.150

> <HBD>
1

> <TPSA>
58.120

> <RotBonds>
4

> <ROCS_ShapeQuery>
A71EV2A-x0451_0A_A71EV2A-x0310_0A_A71EV2A-x0416_0A_peptide

> <ROCS_TanimotoCombo>
0.517 

> <ROCS_ShapeTanimoto>
0.351 

> <ROCS_ColorTanimoto>
0.166 

> <ROCS_RefTversky>
0.311 

> <ROCS_RefColorTversky>
0.191 

> <ROCS_RefTverskyCombo>
0.503 

> <ROCS_FitTversky>
1.568 

> <ROCS_FitColorTversky>
0.555 

> <ROCS_FitTverskyCombo>
2.123 

> <ROCS_ColorScore>
-5.847

> <ROCS_Overlap>
2164.111

> <ROCS_Rank>
406                 

$$$$
untitled-dbase-2847_1174
  -OEChem-11132311063D

 47 49  0     1  0  0  0  0  0999 V2000
    5.6145   11.8814   29.4678 C   0  0  0  0  0  0  0  0  0  0  0  0
    9.0731    9.9237   22.6544 C   0  0  0  0  0  0  0  0  0  0  0  0
    4.3324   12.4124   29.5551 C   0  0  0  0  0  0  0  0  0  0  0  0
    8.0763    9.7847   23.6201 C   0  0  0  0  0  0  0  0  0  0  0  0
    9.9684   10.9910   22.7248 C   0  0  0  0  0  0  0  0  0  0  0  0
    6.1692   11.6198   28.2200 C   0  0  0  0  0  0  0  0  0  0  0  0
    8.8700   11.7805   24.7265 C   0  0  0  0  0  0  0  0  0  0  0  0
    3.6520   12.6618   28.3741 C   0  0  0  0  0  0  0  0  0  0  0  0
    7.9747   10.7131   24.6562 C   0  0  0  0  0  0  0  0  0  0  0  0
    9.8668   11.9194   23.7608 C   0  0  0  0  0  0  0  0  0  0  0  0
    5.4065   11.9045   27.0988 C   0  0  0  0  0  0  0  0  0  0  0  0
    6.9366   10.5671   25.6642 C   0  0  0  0  0  0  0  0  0  0  0  0
    9.9463   15.3137   21.2759 C   0  0  0  0  0  0  0  0  0  0  0  0
   11.2065   16.0660   20.8502 C   0  0  0  0  0  0  0  0  0  0  0  0
   10.1923   13.8112   21.2955 C   0  0  0  0  0  0  0  0  0  0  0  0
   12.5989   14.1743   21.8109 C   0  0  0  0  0  0  0  0  0  0  0  0
   12.4097   15.6869   21.7148 C   0  0  2  0  0  0  0  0  0  0  0  0
    5.6152   12.4444   24.6394 C   0  0  0  0  0  0  0  0  0  0  0  0
    4.1578   12.4207   27.1438 N   0  0  0  0  0  0  0  0  0  0  0  0
   11.3321   13.4862   22.1916 N   0  0  1  0  0  0  0  0  0  0  0  0
    5.9945   11.6282   25.8027 N   0  0  0  0  0  0  0  0  0  0  0  0
    6.8985    9.5568   26.3800 O   0  0  0  0  0  0  0  0  0  0  0  0
   10.2775   14.4235   24.3389 O   0  0  0  0  0  0  0  0  0  0  0  0
   12.1996   12.8035   24.5098 O   0  0  0  0  0  0  0  0  0  0  0  0
   12.2590   16.2217   23.0274 O   0  0  0  0  0  0  0  0  0  0  0  0
   11.0000   13.2698   23.8490 S   0  0  0  0  0  0  0  0  0  0  0  0
    6.1798   11.6716   30.3708 H   0  0  0  0  0  0  0  0  0  0  0  0
    9.1520    9.2010   21.8472 H   0  0  0  0  0  0  0  0  0  0  0  0
    3.8805   12.6248   30.5172 H   0  0  0  0  0  0  0  0  0  0  0  0
    7.3845    8.9491   23.5550 H   0  0  0  0  0  0  0  0  0  0  0  0
   10.7410   11.0905   21.9670 H   0  0  0  0  0  0  0  0  0  0  0  0
    7.1694   11.2062   28.1430 H   0  0  0  0  0  0  0  0  0  0  0  0
    8.7910   12.5048   25.5342 H   0  0  0  0  0  0  0  0  0  0  0  0
    2.6494   13.0764   28.3871 H   0  0  0  0  0  0  0  0  0  0  0  0
    9.6369   15.6507   22.2720 H   0  0  0  0  0  0  0  0  0  0  0  0
    9.1280   15.5472   20.5870 H   0  0  0  0  0  0  0  0  0  0  0  0
   11.4259   15.8381   19.7990 H   0  0  0  0  0  0  0  0  0  0  0  0
   11.0158   17.1443   20.9213 H   0  0  0  0  0  0  0  0  0  0  0  0
    9.2846   13.3080   21.6592 H   0  0  0  0  0  0  0  0  0  0  0  0
   10.3991   13.4382   20.2810 H   0  0  0  0  0  0  0  0  0  0  0  0
   12.9543   13.7720   20.8478 H   0  0  0  0  0  0  0  0  0  0  0  0
   13.3615   13.9499   22.5743 H   0  0  0  0  0  0  0  0  0  0  0  0
   13.3182   16.1392   21.2891 H   0  0  0  0  0  0  0  0  0  0  0  0
    6.2932   13.3068   24.5592 H   0  0  0  0  0  0  0  0  0  0  0  0
    5.6864   11.8359   23.7258 H   0  0  0  0  0  0  0  0  0  0  0  0
    4.5819   12.8008   24.7630 H   0  0  0  0  0  0  0  0  0  0  0  0
   11.4447   15.8389   23.3883 H   0  0  0  0  0  0  0  0  0  0  0  0
  1  3  2  0  0  0  0
  1  6  1  0  0  0  0
  2  4  1  0  0  0  0
  2  5  2  0  0  0  0
  3  8  1  0  0  0  0
  4  9  2  0  0  0  0
  5 10  1  0  0  0  0
  6 11  2  0  0  0  0
  7  9  1  0  0  0  0
  7 10  2  0  0  0  0
  8 19  2  0  0  0  0
  9 12  1  0  0  0  0
 10 26  1  0  0  0  0
 11 19  1  0  0  0  0
 11 21  1  0  0  0  0
 12 21  1  0  0  0  0
 12 22  2  0  0  0  0
 13 14  1  0  0  0  0
 13 15  1  0  0  0  0
 14 17  1  0  0  0  0
 15 20  1  0  0  0  0
 16 17  1  0  0  0  0
 16 20  1  0  0  0  0
 17 25  1  0  0  0  0
 18 21  1  0  0  0  0
 20 26  1  0  0  0  0
 23 26  2  0  0  0  0
 24 26  2  0  0  0  0
  1 27  1  0  0  0  0
  2 28  1  0  0  0  0
  3 29  1  0  0  0  0
  4 30  1  0  0  0  0
  5 31  1  0  0  0  0
  6 32  1  0  0  0  0
  7 33  1  0  0  0  0
  8 34  1  0  0  0  0
 13 35  1  0  0  0  0
 13 36  1  0  0  0  0
 14 37  1  0  0  0  0
 14 38  1  0  0  0  0
 15 39  1  0  0  0  0
 15 40  1  0  0  0  0
 16 41  1  0  0  0  0
 16 42  1  0  0  0  0
 17 43  1  0  0  0  0
 18 44  1  0  0  0  0
 18 45  1  0  0  0  0
 18 46  1  0  0  0  0
 25 47  1  0  0  0  0
M  END
> <Catalog ID>
Z2418215808

> <PlateID>
1041831-R-36

> <Well>
E08

> <MW (desalted)>
375.442

> <ClogP>
0.173

> <HBD>
1

> <TPSA>
90.810

> <RotBonds>
3

> <ROCS_ShapeQuery>
A71EV2A-x0451_0A_A71EV2A-x0310_0A_A71EV2A-x0416_0A_peptide

> <ROCS_TanimotoCombo>
0.517 

> <ROCS_ShapeTanimoto>
0.351 

> <ROCS_ColorTanimoto>
0.165 

> <ROCS_RefTversky>
0.314 

> <ROCS_RefColorTversky>
0.189 

> <ROCS_RefTverskyCombo>
0.503 

> <ROCS_FitTversky>
1.502 

> <ROCS_FitColorTversky>
0.570 

> <ROCS_FitTverskyCombo>
2.072 

> <ROCS_ColorScore>
-5.774

> <ROCS_Overlap>
2186.600

> <ROCS_Rank>
407                 

$$$$
untitled-dbase-2072_40
  -OEChem-11132311063D

 41 43  0     1  0  0  0  0  0999 V2000
    6.2317   11.6093   26.2767 C   0  0  0  0  0  0  0  0  0  0  0  0
    6.6977   10.5378   25.5234 C   0  0  0  0  0  0  0  0  0  0  0  0
    7.9742   13.0048   25.3427 C   0  0  0  0  0  0  0  0  0  0  0  0
    6.8656   12.8426   26.1809 C   0  0  0  0  0  0  0  0  0  0  0  0
    8.4860   11.9306   24.6026 C   0  0  0  0  0  0  0  0  0  0  0  0
    7.8130   10.6951   24.6919 C   0  0  0  0  0  0  0  0  0  0  0  0
   10.5605   13.0562   23.6503 C   0  0  0  0  0  0  0  0  0  0  0  0
   11.9258   15.5129   22.2747 C   0  0  0  0  0  0  0  0  0  0  0  0
   13.6347   12.4495   23.5030 C   0  0  0  0  0  0  0  0  0  0  0  0
   12.5235   11.9009   22.6113 C   0  0  0  0  0  0  0  0  0  0  0  0
   13.7127   13.9150   23.1027 C   0  0  0  0  0  0  0  0  0  0  0  0
    9.6417   10.9960   22.6852 C   0  0  0  0  0  0  0  0  0  0  0  0
    9.4445    9.6547   23.3601 C   0  0  0  0  0  0  0  0  0  0  0  0
   11.5403   13.0618   22.5157 C   0  0  2  0  0  0  0  0  0  0  0  0
   12.9621   16.6067   22.3321 C   0  0  0  0  0  0  0  0  0  0  0  0
    6.3703   13.9948   26.9897 C   0  0  0  0  0  0  0  0  0  0  0  0
    9.5911   12.0526   23.6991 N   0  0  0  0  0  0  0  0  0  0  0  0
   12.3619   14.2560   22.6636 N   0  0  0  0  0  0  0  0  0  0  0  0
   10.6043   13.9909   24.4590 O   0  0  0  0  0  0  0  0  0  0  0  0
   10.7759   15.7634   21.9095 O   0  0  0  0  0  0  0  0  0  0  0  0
    8.1592    9.5756   23.9734 O   0  0  0  0  0  0  0  0  0  0  0  0
    5.2942   13.6895   27.7728 F   0  0  0  0  0  0  0  0  0  0  0  0
    7.3045   14.5002   27.8476 F   0  0  0  0  0  0  0  0  0  0  0  0
    5.9748   15.0468   26.2161 F   0  0  0  0  0  0  0  0  0  0  0  0
    5.3794   11.4727   26.9368 H   0  0  0  0  0  0  0  0  0  0  0  0
    6.1833    9.5817   25.5793 H   0  0  0  0  0  0  0  0  0  0  0  0
    8.4331   13.9870   25.3266 H   0  0  0  0  0  0  0  0  0  0  0  0
   13.3562   12.3583   24.5592 H   0  0  0  0  0  0  0  0  0  0  0  0
   14.5824   11.9249   23.3517 H   0  0  0  0  0  0  0  0  0  0  0  0
   12.9238   11.6793   21.6155 H   0  0  0  0  0  0  0  0  0  0  0  0
   12.0895   10.9868   23.0258 H   0  0  0  0  0  0  0  0  0  0  0  0
   14.0303   14.5605   23.9261 H   0  0  0  0  0  0  0  0  0  0  0  0
   14.3896   14.0596   22.2537 H   0  0  0  0  0  0  0  0  0  0  0  0
   10.6205   11.0562   22.2056 H   0  0  0  0  0  0  0  0  0  0  0  0
    8.8659   11.1278   21.9349 H   0  0  0  0  0  0  0  0  0  0  0  0
    9.5745    8.8170   22.6601 H   0  0  0  0  0  0  0  0  0  0  0  0
   10.1915    9.5277   24.1533 H   0  0  0  0  0  0  0  0  0  0  0  0
   10.9813   13.0803   21.5769 H   0  0  0  0  0  0  0  0  0  0  0  0
   13.4765   16.6587   21.3783 H   0  0  0  0  0  0  0  0  0  0  0  0
   13.6703   16.3842   23.1238 H   0  0  0  0  0  0  0  0  0  0  0  0
   12.4701   17.5514   22.5402 H   0  0  0  0  0  0  0  0  0  0  0  0
  1  2  1  0  0  0  0
  1  4  2  0  0  0  0
  2  6  2  0  0  0  0
  3  4  1  0  0  0  0
  3  5  2  0  0  0  0
  4 16  1  0  0  0  0
  5  6  1  0  0  0  0
  5 17  1  0  0  0  0
  6 21  1  0  0  0  0
  7 14  1  1  0  0  0
  7 17  1  0  0  0  0
  7 19  2  0  0  0  0
  8 15  1  0  0  0  0
  8 18  1  0  0  0  0
  8 20  2  0  0  0  0
  9 10  1  0  0  0  0
  9 11  1  0  0  0  0
 10 14  1  0  0  0  0
 11 18  1  0  0  0  0
 12 13  1  0  0  0  0
 12 17  1  0  0  0  0
 13 21  1  0  0  0  0
 14 18  1  0  0  0  0
 16 22  1  0  0  0  0
 16 23  1  0  0  0  0
 16 24  1  0  0  0  0
  1 25  1  0  0  0  0
  2 26  1  0  0  0  0
  3 27  1  0  0  0  0
  9 28  1  0  0  0  0
  9 29  1  0  0  0  0
 10 30  1  0  0  0  0
 10 31  1  0  0  0  0
 11 32  1  0  0  0  0
 11 33  1  0  0  0  0
 12 34  1  0  0  0  0
 12 35  1  0  0  0  0
 13 36  1  0  0  0  0
 13 37  1  0  0  0  0
 14 38  1  0  0  0  0
 15 39  1  0  0  0  0
 15 40  1  0  0  0  0
 15 41  1  0  0  0  0
M  END
> <Catalog ID>
Z1832747671

> <PlateID>
1041831-R-26

> <Well>
H03

> <MW (desalted)>
342.313

> <ClogP>
2.223

> <HBD>
0

> <TPSA>
49.850

> <RotBonds>
2

> <ROCS_ShapeQuery>
A71EV2A-x0451_0A_A71EV2A-x0310_0A_A71EV2A-x0416_0A_peptide

> <ROCS_TanimotoCombo>
0.517 

> <ROCS_ShapeTanimoto>
0.359 

> <ROCS_ColorTanimoto>
0.158 

> <ROCS_RefTversky>
0.318 

> <ROCS_RefColorTversky>
0.169 

> <ROCS_RefTverskyCombo>
0.487 

> <ROCS_FitTversky>
1.564 

> <ROCS_FitColorTversky>
0.704 

> <ROCS_FitTverskyCombo>
2.268 

> <ROCS_ColorScore>
-5.134

> <ROCS_Overlap>
2209.967

> <ROCS_Rank>
408                 

$$$$
untitled-dbase-2187_116
  -OEChem-11132311063D

 45 48  0     1  0  0  0  0  0999 V2000
    7.9109   13.0439   24.9923 C   0  0  0  0  0  0  0  0  0  0  0  0
    8.5874   12.0482   24.3303 C   0  0  0  0  0  0  0  0  0  0  0  0
    7.7590   10.9104   24.4729 C   0  0  0  0  0  0  0  0  0  0  0  0
   13.3184   14.6395   22.9214 C   0  0  0  0  0  0  0  0  0  0  0  0
   10.5650   13.1940   23.4963 C   0  0  0  0  0  0  0  0  0  0  0  0
    8.0934    9.5825   23.9080 C   0  0  0  0  0  0  0  0  0  0  0  0
    9.6103    9.4891   23.6997 C   0  0  0  0  0  0  0  0  0  0  0  0
   15.8953   14.6670   20.9509 C   0  0  0  0  0  0  0  0  0  0  0  0
   16.6585   15.3418   22.0764 C   0  0  0  0  0  0  0  0  0  0  0  0
   14.5699   15.4159   20.9377 C   0  0  0  0  0  0  0  0  0  0  0  0
   15.6027   15.5852   23.1502 C   0  0  0  0  0  0  0  0  0  0  0  0
   10.1890   10.7329   22.9988 C   0  0  0  0  0  0  0  0  0  0  0  0
   10.4165   13.3759   20.9910 C   0  0  0  0  0  0  0  0  0  0  0  0
   11.4000   15.7267   21.6936 C   0  0  0  0  0  0  0  0  0  0  0  0
   14.2726   15.7016   22.4065 C   0  0  0  0  0  0  0  0  0  0  0  0
   11.3341   13.3298   22.2022 C   0  0  1  0  0  0  0  0  0  0  0  0
    6.6448   11.1585   25.1640 N   0  0  0  0  0  0  0  0  0  0  0  0
    6.7664   12.4632   25.4675 N   0  0  0  0  0  0  0  0  0  0  0  0
    9.8079   12.0219   23.6364 N   0  0  0  0  0  0  0  0  0  0  0  0
   12.0798   14.5816   22.2892 N   0  0  0  0  0  0  0  0  0  0  0  0
   13.6614   13.8950   23.8418 O   0  0  0  0  0  0  0  0  0  0  0  0
   10.6514   14.0988   24.3294 O   0  0  0  0  0  0  0  0  0  0  0  0
    9.9407   15.1146   20.8219 S   0  0  0  0  0  0  0  0  0  0  0  0
    8.1118   14.0892   25.1753 H   0  0  0  0  0  0  0  0  0  0  0  0
    7.7602    8.7763   24.5708 H   0  0  0  0  0  0  0  0  0  0  0  0
    7.5798    9.4589   22.9473 H   0  0  0  0  0  0  0  0  0  0  0  0
   10.1051    9.3749   24.6735 H   0  0  0  0  0  0  0  0  0  0  0  0
    9.8475    8.5919   23.1166 H   0  0  0  0  0  0  0  0  0  0  0  0
   16.4196   14.7327   19.9933 H   0  0  0  0  0  0  0  0  0  0  0  0
   15.7322   13.6080   21.1828 H   0  0  0  0  0  0  0  0  0  0  0  0
   17.4895   14.7320   22.4425 H   0  0  0  0  0  0  0  0  0  0  0  0
   17.0674   16.2993   21.7318 H   0  0  0  0  0  0  0  0  0  0  0  0
   14.6953   16.3667   20.4052 H   0  0  0  0  0  0  0  0  0  0  0  0
   13.7879   14.8465   20.4256 H   0  0  0  0  0  0  0  0  0  0  0  0
   15.6021   14.7587   23.8717 H   0  0  0  0  0  0  0  0  0  0  0  0
   15.8261   16.5007   23.7094 H   0  0  0  0  0  0  0  0  0  0  0  0
   11.2787   10.6402   22.9734 H   0  0  0  0  0  0  0  0  0  0  0  0
    9.8362   10.7783   21.9612 H   0  0  0  0  0  0  0  0  0  0  0  0
   10.9583   13.0762   20.0891 H   0  0  0  0  0  0  0  0  0  0  0  0
    9.5272   12.7495   21.0993 H   0  0  0  0  0  0  0  0  0  0  0  0
   11.1065   16.4204   22.4868 H   0  0  0  0  0  0  0  0  0  0  0  0
   12.0732   16.2359   20.9988 H   0  0  0  0  0  0  0  0  0  0  0  0
   13.7967   16.6548   22.5456 H   0  0  0  0  0  0  0  0  0  0  0  0
   12.0204   12.4782   22.1506 H   0  0  0  0  0  0  0  0  0  0  0  0
    6.0280   12.9010   26.0040 H   0  0  0  0  0  0  0  0  0  0  0  0
  1  2  2  0  0  0  0
  1 18  1  0  0  0  0
  2  3  1  0  0  0  0
  2 19  1  0  0  0  0
  3  6  1  0  0  0  0
  3 17  2  0  0  0  0
  4 15  1  0  0  0  0
  4 20  1  0  0  0  0
  4 21  2  0  0  0  0
  5 16  1  0  0  0  0
  5 19  1  0  0  0  0
  5 22  2  0  0  0  0
  6  7  1  0  0  0  0
  7 12  1  0  0  0  0
  8  9  1  0  0  0  0
  8 10  1  0  0  0  0
  9 11  1  0  0  0  0
 10 15  1  0  0  0  0
 11 15  1  0  0  0  0
 12 19  1  0  0  0  0
 13 16  1  0  0  0  0
 13 23  1  0  0  0  0
 14 20  1  0  0  0  0
 14 23  1  0  0  0  0
 16 20  1  0  0  0  0
 17 18  1  0  0  0  0
  1 24  1  0  0  0  0
  6 25  1  0  0  0  0
  6 26  1  0  0  0  0
  7 27  1  0  0  0  0
  7 28  1  0  0  0  0
  8 29  1  0  0  0  0
  8 30  1  0  0  0  0
  9 31  1  0  0  0  0
  9 32  1  0  0  0  0
 10 33  1  0  0  0  0
 10 34  1  0  0  0  0
 11 35  1  0  0  0  0
 11 36  1  0  0  0  0
 12 37  1  0  0  0  0
 12 38  1  0  0  0  0
 13 39  1  0  0  0  0
 13 40  1  0  0  0  0
 14 41  1  0  0  0  0
 14 42  1  0  0  0  0
 15 43  1  0  0  0  0
 16 44  1  0  0  0  0
 18 45  1  0  0  0  0
M  END
> <Catalog ID>
Z1928105606

> <PlateID>
1041831-R-28

> <Well>
C08

> <MW (desalted)>
334.436

> <ClogP>
1.802

> <HBD>
1

> <TPSA>
69.300

> <RotBonds>
2

> <ROCS_ShapeQuery>
A71EV2A-x0451_0A_A71EV2A-x0310_0A_A71EV2A-x0416_0A_peptide

> <ROCS_TanimotoCombo>
0.517 

> <ROCS_ShapeTanimoto>
0.332 

> <ROCS_ColorTanimoto>
0.185 

> <ROCS_RefTversky>
0.297 

> <ROCS_RefColorTversky>
0.203 

> <ROCS_RefTverskyCombo>
0.501 

> <ROCS_FitTversky>
1.530 

> <ROCS_FitColorTversky>
0.674 

> <ROCS_FitTverskyCombo>
2.204 

> <ROCS_ColorScore>
-6.202

> <ROCS_Overlap>
2066.932

> <ROCS_Rank>
409                 

$$$$
untitled-dbase-2422_833
  -OEChem-11132311063D

 45 48  0     1  0  0  0  0  0999 V2000
   14.3744   16.5579   19.8048 C   0  0  0  0  0  0  0  0  0  0  0  0
   13.8672   16.1822   18.5465 C   0  0  0  0  0  0  0  0  0  0  0  0
   13.4875   16.0221   20.7064 C   0  0  0  0  0  0  0  0  0  0  0  0
    9.7290    8.2316   23.0465 C   0  0  0  0  0  0  0  0  0  0  0  0
   10.5428    9.5216   23.3228 C   0  0  0  0  0  0  0  0  0  0  0  0
    8.5503    9.1387   22.6114 C   0  0  0  0  0  0  0  0  0  0  0  0
    7.4614   12.5467   24.9646 C   0  0  0  0  0  0  0  0  0  0  0  0
    6.5022   11.3726   24.8042 C   0  0  0  0  0  0  0  0  0  0  0  0
    8.8212   12.0213   24.5176 C   0  0  2  0  0  0  0  0  0  0  0  0
    9.0305   11.6716   23.0128 C   0  0  2  0  0  0  0  0  0  0  0  0
    8.6806   10.5065   24.8281 C   0  0  2  0  0  0  0  0  0  0  0  0
    9.2049   10.2332   23.4285 C   0  0  0  0  0  0  0  0  0  0  0  0
    8.8624   14.2373   21.8694 C   0  0  0  0  0  0  0  0  0  0  0  0
   11.3736   14.4057   22.0101 C   0  0  0  0  0  0  0  0  0  0  0  0
   11.3440   14.6317   20.4908 C   0  0  0  0  0  0  0  0  0  0  0  0
   10.1137   13.7379   22.5923 C   0  0  2  0  0  0  0  0  0  0  0  0
   12.7452   15.4632   18.6366 N   0  0  0  0  0  0  0  0  0  0  0  0
   12.5401   15.3827   19.9623 N   0  0  0  0  0  0  0  0  0  0  0  0
   10.1952   12.2882   22.4801 N   0  0  0  0  0  0  0  0  0  0  0  0
    7.2898   10.2174   25.1135 O   0  0  0  0  0  0  0  0  0  0  0  0
   15.2589   17.1362   20.0267 H   0  0  0  0  0  0  0  0  0  0  0  0
   14.2700   16.4029   17.5684 H   0  0  0  0  0  0  0  0  0  0  0  0
   13.4523   16.0428   21.7869 H   0  0  0  0  0  0  0  0  0  0  0  0
   10.1308    7.5726   22.2728 H   0  0  0  0  0  0  0  0  0  0  0  0
    9.5208    7.6415   23.9467 H   0  0  0  0  0  0  0  0  0  0  0  0
   11.1685    9.4968   24.2192 H   0  0  0  0  0  0  0  0  0  0  0  0
   11.1678    9.8023   22.4675 H   0  0  0  0  0  0  0  0  0  0  0  0
    8.5320    9.3357   21.5329 H   0  0  0  0  0  0  0  0  0  0  0  0
    7.5589    8.7971   22.9188 H   0  0  0  0  0  0  0  0  0  0  0  0
    7.1383   13.4264   24.4008 H   0  0  0  0  0  0  0  0  0  0  0  0
    7.5160   12.8256   26.0239 H   0  0  0  0  0  0  0  0  0  0  0  0
    5.6483   11.4378   25.4835 H   0  0  0  0  0  0  0  0  0  0  0  0
    6.1408   11.2798   23.7751 H   0  0  0  0  0  0  0  0  0  0  0  0
    9.6655   12.5063   25.0226 H   0  0  0  0  0  0  0  0  0  0  0  0
    8.0993   11.8409   22.3869 H   0  0  0  0  0  0  0  0  0  0  0  0
    9.3155   10.1537   25.6476 H   0  0  0  0  0  0  0  0  0  0  0  0
    8.8967   14.0076   20.7985 H   0  0  0  0  0  0  0  0  0  0  0  0
    8.7618   15.3228   21.9776 H   0  0  0  0  0  0  0  0  0  0  0  0
    7.9585   13.7782   22.2854 H   0  0  0  0  0  0  0  0  0  0  0  0
   12.2503   13.7981   22.2697 H   0  0  0  0  0  0  0  0  0  0  0  0
   11.5249   15.3797   22.4950 H   0  0  0  0  0  0  0  0  0  0  0  0
   11.2346   13.6748   19.9661 H   0  0  0  0  0  0  0  0  0  0  0  0
   10.4432   15.2058   20.2364 H   0  0  0  0  0  0  0  0  0  0  0  0
   10.0192   13.9964   23.6526 H   0  0  0  0  0  0  0  0  0  0  0  0
   10.2902   12.0317   21.4981 H   0  0  0  0  0  0  0  0  0  0  0  0
  1  2  1  0  0  0  0
  1  3  2  0  0  0  0
  2 17  2  0  0  0  0
  3 18  1  0  0  0  0
  4  5  1  0  0  0  0
  4  6  1  0  0  0  0
  5 12  1  0  0  0  0
  6 12  1  0  0  0  0
  7  8  1  0  0  0  0
  7  9  1  0  0  0  0
  8 20  1  0  0  0  0
  9 10  1  0  0  0  0
  9 11  1  0  0  0  0
 10 12  1  0  0  0  0
 10 19  1  0  0  0  0
 11 12  1  0  0  0  0
 11 20  1  0  0  0  0
 13 16  1  0  0  0  0
 14 15  1  0  0  0  0
 14 16  1  0  0  0  0
 15 18  1  0  0  0  0
 16 19  1  0  0  0  0
 17 18  1  0  0  0  0
  1 21  1  0  0  0  0
  2 22  1  0  0  0  0
  3 23  1  0  0  0  0
  4 24  1  0  0  0  0
  4 25  1  0  0  0  0
  5 26  1  0  0  0  0
  5 27  1  0  0  0  0
  6 28  1  0  0  0  0
  6 29  1  0  0  0  0
  7 30  1  0  0  0  0
  7 31  1  0  0  0  0
  8 32  1  0  0  0  0
  8 33  1  0  0  0  0
  9 34  1  0  0  0  0
 10 35  1  0  0  0  0
 11 36  1  0  0  0  0
 13 37  1  0  0  0  0
 13 38  1  0  0  0  0
 13 39  1  0  0  0  0
 14 40  1  0  0  0  0
 14 41  1  0  0  0  0
 15 42  1  0  0  0  0
 15 43  1  0  0  0  0
 16 44  1  0  0  0  0
 19 45  1  0  0  0  0
M  END
> <Catalog ID>
Z1701585255

> <PlateID>
1041831-R-31

> <Well>
C03

> <MW (desalted)>
275.389

> <ClogP>
1.889

> <HBD>
1

> <TPSA>
39.080

> <RotBonds>
5

> <ROCS_ShapeQuery>
A71EV2A-x0451_0A_A71EV2A-x0310_0A_A71EV2A-x0416_0A_peptide

> <ROCS_TanimotoCombo>
0.517 

> <ROCS_ShapeTanimoto>
0.325 

> <ROCS_ColorTanimoto>
0.192 

> <ROCS_RefTversky>
0.288 

> <ROCS_RefColorTversky>
0.227 

> <ROCS_RefTverskyCombo>
0.515 

> <ROCS_FitTversky>
1.643 

> <ROCS_FitColorTversky>
0.557 

> <ROCS_FitTverskyCombo>
2.200 

> <ROCS_ColorScore>
-6.960

> <ROCS_Overlap>
1998.616

> <ROCS_Rank>
410                 

$$$$
untitled-dbase-890_663
  -OEChem-11132311063D

 51 53  0     1  0  0  0  0  0999 V2000
    6.7320   12.1280   26.0301 C   0  0  0  0  0  0  0  0  0  0  0  0
    6.5226   10.7593   25.8732 C   0  0  0  0  0  0  0  0  0  0  0  0
    7.7415   12.7847   25.3170 C   0  0  0  0  0  0  0  0  0  0  0  0
    7.3127   10.0046   25.0014 C   0  0  0  0  0  0  0  0  0  0  0  0
   10.0341   11.2158   22.9414 C   0  0  0  0  0  0  0  0  0  0  0  0
    8.5508   12.0445   24.4322 C   0  0  0  0  0  0  0  0  0  0  0  0
    9.6361   12.3720   23.5721 C   0  0  0  0  0  0  0  0  0  0  0  0
    8.3181   10.6744   24.2951 C   0  0  0  0  0  0  0  0  0  0  0  0
   11.7757   15.1601   22.0282 C   0  0  0  0  0  0  0  0  0  0  0  0
   13.1982   12.9619   23.3653 C   0  0  0  0  0  0  0  0  0  0  0  0
   14.0254   15.9092   18.5677 C   0  0  0  0  0  0  0  0  0  0  0  0
   12.7569   16.8658   20.5273 C   0  0  0  0  0  0  0  0  0  0  0  0
   12.0081   14.7354   19.5305 C   0  0  0  0  0  0  0  0  0  0  0  0
   14.1313   16.7368   19.8589 C   0  0  2  0  0  0  0  0  0  0  0  0
   13.3629   14.5477   18.8347 C   0  0  1  0  0  0  0  0  0  0  0  0
   14.7256   18.1134   19.5726 C   0  0  0  0  0  0  0  0  0  0  0  0
   13.2008   13.7617   17.5360 C   0  0  0  0  0  0  0  0  0  0  0  0
   10.2498   13.7370   23.3791 C   0  0  0  0  0  0  0  0  0  0  0  0
   11.1712   13.7858   22.1676 C   0  0  2  0  0  0  0  0  0  0  0  0
    9.2331   10.1973   23.3838 N   0  0  0  0  0  0  0  0  0  0  0  0
   12.1595   15.5468   20.7446 N   0  0  0  0  0  0  0  0  0  0  0  0
   14.2151   12.0324   23.2399 N   0  0  0  0  0  0  0  0  0  0  0  0
   12.3138   12.9269   22.2884 N   0  0  0  0  0  0  0  0  0  0  0  0
   11.9041   15.8662   23.0317 O   0  0  0  0  0  0  0  0  0  0  0  0
   13.1056   13.7228   24.3270 O   0  0  0  0  0  0  0  0  0  0  0  0
    6.1044   12.6936   26.7135 H   0  0  0  0  0  0  0  0  0  0  0  0
    5.7329   10.2696   26.4371 H   0  0  0  0  0  0  0  0  0  0  0  0
    7.8915   13.8523   25.4497 H   0  0  0  0  0  0  0  0  0  0  0  0
    7.1497    8.9390   24.8807 H   0  0  0  0  0  0  0  0  0  0  0  0
   10.8138   11.0257   22.2167 H   0  0  0  0  0  0  0  0  0  0  0  0
   13.4438   16.4635   17.8190 H   0  0  0  0  0  0  0  0  0  0  0  0
   15.0256   15.7565   18.1432 H   0  0  0  0  0  0  0  0  0  0  0  0
   12.8534   17.4265   21.4608 H   0  0  0  0  0  0  0  0  0  0  0  0
   12.0655   17.4309   19.8879 H   0  0  0  0  0  0  0  0  0  0  0  0
   11.3012   15.2596   18.8776 H   0  0  0  0  0  0  0  0  0  0  0  0
   11.5714   13.7618   19.7712 H   0  0  0  0  0  0  0  0  0  0  0  0
   14.8064   16.2150   20.5528 H   0  0  0  0  0  0  0  0  0  0  0  0
   14.0174   13.9667   19.5011 H   0  0  0  0  0  0  0  0  0  0  0  0
   14.0798   18.6587   18.8863 H   0  0  0  0  0  0  0  0  0  0  0  0
   15.7113   18.0036   19.1236 H   0  0  0  0  0  0  0  0  0  0  0  0
   14.8166   18.6762   20.5002 H   0  0  0  0  0  0  0  0  0  0  0  0
   12.5563   14.3100   16.8508 H   0  0  0  0  0  0  0  0  0  0  0  0
   12.7546   12.7909   17.7455 H   0  0  0  0  0  0  0  0  0  0  0  0
   14.1737   13.6143   17.0699 H   0  0  0  0  0  0  0  0  0  0  0  0
    9.4399   14.4711   23.2707 H   0  0  0  0  0  0  0  0  0  0  0  0
   10.7870   14.0318   24.2910 H   0  0  0  0  0  0  0  0  0  0  0  0
   10.6585   13.5465   21.2356 H   0  0  0  0  0  0  0  0  0  0  0  0
    9.3029    9.2343   23.0851 H   0  0  0  0  0  0  0  0  0  0  0  0
   14.2756   11.4136   22.4385 H   0  0  0  0  0  0  0  0  0  0  0  0
   14.9350   11.9430   23.9491 H   0  0  0  0  0  0  0  0  0  0  0  0
   12.4891   12.2521   21.5438 H   0  0  0  0  0  0  0  0  0  0  0  0
  1  2  2  0  0  0  0
  1  3  1  0  0  0  0
  2  4  1  0  0  0  0
  3  6  2  0  0  0  0
  4  8  2  0  0  0  0
  5  7  2  0  0  0  0
  5 20  1  0  0  0  0
  6  7  1  0  0  0  0
  6  8  1  0  0  0  0
  7 18  1  0  0  0  0
  8 20  1  0  0  0  0
  9 19  1  0  0  0  0
  9 21  1  0  0  0  0
  9 24  2  0  0  0  0
 10 22  1  0  0  0  0
 10 23  1  0  0  0  0
 10 25  2  0  0  0  0
 11 14  1  0  0  0  0
 11 15  1  0  0  0  0
 12 14  1  0  0  0  0
 12 21  1  0  0  0  0
 13 15  1  0  0  0  0
 13 21  1  0  0  0  0
 14 16  1  0  0  0  0
 15 17  1  0  0  0  0
 18 19  1  0  0  0  0
 19 23  1  0  0  0  0
  1 26  1  0  0  0  0
  2 27  1  0  0  0  0
  3 28  1  0  0  0  0
  4 29  1  0  0  0  0
  5 30  1  0  0  0  0
 11 31  1  0  0  0  0
 11 32  1  0  0  0  0
 12 33  1  0  0  0  0
 12 34  1  0  0  0  0
 13 35  1  0  0  0  0
 13 36  1  0  0  0  0
 14 37  1  0  0  0  0
 15 38  1  0  0  0  0
 16 39  1  0  0  0  0
 16 40  1  0  0  0  0
 16 41  1  0  0  0  0
 17 42  1  0  0  0  0
 17 43  1  0  0  0  0
 17 44  1  0  0  0  0
 18 45  1  0  0  0  0
 18 46  1  0  0  0  0
 19 47  1  0  0  0  0
 20 48  1  0  0  0  0
 22 49  1  0  0  0  0
 22 50  1  0  0  0  0
 23 51  1  0  0  0  0
M  END
> <Catalog ID>
Z220434540

> <PlateID>
1041831-R-12

> <Well>
A11

> <MW (desalted)>
342.435

> <ClogP>
2.059

> <HBD>
3

> <TPSA>
91.220

> <RotBonds>
4

> <ROCS_ShapeQuery>
A71EV2A-x0451_0A_A71EV2A-x0310_0A_A71EV2A-x0416_0A_peptide

> <ROCS_TanimotoCombo>
0.517 

> <ROCS_ShapeTanimoto>
0.353 

> <ROCS_ColorTanimoto>
0.164 

> <ROCS_RefTversky>
0.314 

> <ROCS_RefColorTversky>
0.183 

> <ROCS_RefTverskyCombo>
0.497 

> <ROCS_FitTversky>
1.535 

> <ROCS_FitColorTversky>
0.607 

> <ROCS_FitTverskyCombo>
2.142 

> <ROCS_ColorScore>
-5.593

> <ROCS_Overlap>
2184.262

> <ROCS_Rank>
411                 

$$$$
untitled-dbase-1113_1171
  -OEChem-11132311063D

 57 60  0     1  0  0  0  0  0999 V2000
    5.1065   13.5566   25.9435 C   0  0  0  0  0  0  0  0  0  0  0  0
    7.8847   12.8912   24.7733 C   0  0  0  0  0  0  0  0  0  0  0  0
   10.0213   10.2537   23.1100 C   0  0  0  0  0  0  0  0  0  0  0  0
    9.1249   11.1129   23.7761 C   0  0  0  0  0  0  0  0  0  0  0  0
    5.8333   12.3426   25.9764 C   0  0  0  0  0  0  0  0  0  0  0  0
    8.9945   12.4833   24.0331 C   0  0  0  0  0  0  0  0  0  0  0  0
    6.9784   11.9314   25.2115 C   0  0  0  0  0  0  0  0  0  0  0  0
    4.1063   13.4285   26.8790 C   0  0  0  0  0  0  0  0  0  0  0  0
    5.2256   11.5593   26.9299 C   0  0  0  0  0  0  0  0  0  0  0  0
    8.1483   10.2633   24.2720 C   0  0  0  0  0  0  0  0  0  0  0  0
    9.9808   13.4563   23.5459 C   0  0  0  0  0  0  0  0  0  0  0  0
   11.4404   13.9370   21.5114 C   0  0  0  0  0  0  0  0  0  0  0  0
    9.1111   13.1869   21.2464 C   0  0  0  0  0  0  0  0  0  0  0  0
   11.1682   14.9975   20.4419 C   0  0  1  0  0  0  0  0  0  0  0  0
    8.9227   14.2802   20.1955 C   0  0  2  0  0  0  0  0  0  0  0  0
    3.0264   14.3198   27.3259 C   0  0  0  0  0  0  0  0  0  0  0  0
    5.4813   10.2057   27.4478 C   0  0  0  0  0  0  0  0  0  0  0  0
   12.4251   15.3019   19.6398 C   0  0  0  0  0  0  0  0  0  0  0  0
    7.9061   13.8613   19.1436 C   0  0  0  0  0  0  0  0  0  0  0  0
    7.6014    7.5582   25.6602 C   0  0  0  0  0  0  0  0  0  0  0  0
    8.4761    6.5723   23.4994 C   0  0  0  0  0  0  0  0  0  0  0  0
    7.8052    7.7781   24.1600 C   0  0  0  0  0  0  0  0  0  0  0  0
    9.6526    8.9700   23.1734 N   0  0  0  0  0  0  0  0  0  0  0  0
    7.0609   10.5973   24.9886 N   0  0  0  0  0  0  0  0  0  0  0  0
    8.5115    9.0070   23.8852 N   0  0  0  0  0  0  0  0  0  0  0  0
   10.1860   13.5502   22.1685 N   0  0  0  0  0  0  0  0  0  0  0  0
   10.5544   14.1266   24.4031 O   0  0  0  0  0  0  0  0  0  0  0  0
    4.1720   12.2139   27.4849 O   0  0  0  0  0  0  0  0  0  0  0  0
   10.1680   14.5276   19.5287 O   0  0  0  0  0  0  0  0  0  0  0  0
    5.2871   14.4188   25.3168 H   0  0  0  0  0  0  0  0  0  0  0  0
    7.7365   13.9445   24.9993 H   0  0  0  0  0  0  0  0  0  0  0  0
   10.9290   10.5061   22.5803 H   0  0  0  0  0  0  0  0  0  0  0  0
   11.8386   13.0225   21.0548 H   0  0  0  0  0  0  0  0  0  0  0  0
   12.1786   14.3016   22.2303 H   0  0  0  0  0  0  0  0  0  0  0  0
    8.1785   13.0051   21.7905 H   0  0  0  0  0  0  0  0  0  0  0  0
    9.4160   12.2441   20.7757 H   0  0  0  0  0  0  0  0  0  0  0  0
   10.8159   15.9281   20.9081 H   0  0  0  0  0  0  0  0  0  0  0  0
    8.5786   15.2120   20.6666 H   0  0  0  0  0  0  0  0  0  0  0  0
    2.1082   14.1715   26.7301 H   0  0  0  0  0  0  0  0  0  0  0  0
    2.7606   14.1584   28.3871 H   0  0  0  0  0  0  0  0  0  0  0  0
    3.3028   15.3876   27.2457 H   0  0  0  0  0  0  0  0  0  0  0  0
    6.1730   10.2287   28.3079 H   0  0  0  0  0  0  0  0  0  0  0  0
    4.5550    9.7034   27.7807 H   0  0  0  0  0  0  0  0  0  0  0  0
    5.9250    9.5424   26.6832 H   0  0  0  0  0  0  0  0  0  0  0  0
   12.7959   14.3925   19.1658 H   0  0  0  0  0  0  0  0  0  0  0  0
   13.2004   15.6990   20.2958 H   0  0  0  0  0  0  0  0  0  0  0  0
   12.2059   16.0387   18.8663 H   0  0  0  0  0  0  0  0  0  0  0  0
    8.2262   12.9373   18.6610 H   0  0  0  0  0  0  0  0  0  0  0  0
    7.8095   14.6396   18.3859 H   0  0  0  0  0  0  0  0  0  0  0  0
    6.9330   13.6981   19.6079 H   0  0  0  0  0  0  0  0  0  0  0  0
    8.5534    7.4438   26.1895 H   0  0  0  0  0  0  0  0  0  0  0  0
    7.0102    6.6538   25.8395 H   0  0  0  0  0  0  0  0  0  0  0  0
    7.0691    8.4037   26.1100 H   0  0  0  0  0  0  0  0  0  0  0  0
    9.4803    6.4125   23.9070 H   0  0  0  0  0  0  0  0  0  0  0  0
    8.5716    6.7292   22.4197 H   0  0  0  0  0  0  0  0  0  0  0  0
    7.9036    5.6513   23.6526 H   0  0  0  0  0  0  0  0  0  0  0  0
    6.8096    7.8821   23.7096 H   0  0  0  0  0  0  0  0  0  0  0  0
  1  5  1  0  0  0  0
  1  8  2  0  0  0  0
  2  6  1  0  0  0  0
  2  7  2  0  0  0  0
  3  4  1  0  0  0  0
  3 23  2  0  0  0  0
  4  6  2  0  0  0  0
  4 10  1  0  0  0  0
  5  7  1  0  0  0  0
  5  9  2  0  0  0  0
  6 11  1  0  0  0  0
  7 24  1  0  0  0  0
  8 16  1  0  0  0  0
  8 28  1  0  0  0  0
  9 17  1  0  0  0  0
  9 28  1  0  0  0  0
 10 24  2  0  0  0  0
 10 25  1  0  0  0  0
 11 26  1  0  0  0  0
 11 27  2  0  0  0  0
 12 14  1  0  0  0  0
 12 26  1  0  0  0  0
 13 15  1  0  0  0  0
 13 26  1  0  0  0  0
 14 18  1  0  0  0  0
 14 29  1  0  0  0  0
 15 19  1  0  0  0  0
 15 29  1  0  0  0  0
 20 22  1  0  0  0  0
 21 22  1  0  0  0  0
 22 25  1  0  0  0  0
 23 25  1  0  0  0  0
  1 30  1  0  0  0  0
  2 31  1  0  0  0  0
  3 32  1  0  0  0  0
 12 33  1  0  0  0  0
 12 34  1  0  0  0  0
 13 35  1  0  0  0  0
 13 36  1  0  0  0  0
 14 37  1  0  0  0  0
 15 38  1  0  0  0  0
 16 39  1  0  0  0  0
 16 40  1  0  0  0  0
 16 41  1  0  0  0  0
 17 42  1  0  0  0  0
 17 43  1  0  0  0  0
 17 44  1  0  0  0  0
 18 45  1  0  0  0  0
 18 46  1  0  0  0  0
 18 47  1  0  0  0  0
 19 48  1  0  0  0  0
 19 49  1  0  0  0  0
 19 50  1  0  0  0  0
 20 51  1  0  0  0  0
 20 52  1  0  0  0  0
 20 53  1  0  0  0  0
 21 54  1  0  0  0  0
 21 55  1  0  0  0  0
 21 56  1  0  0  0  0
 22 57  1  0  0  0  0
M  END
> <Catalog ID>
Z223857138

> <PlateID>
1041831-R-14

> <Well>
H04

> <MW (desalted)>
396.483

> <ClogP>
3.334

> <HBD>
0

> <TPSA>
73.390

> <RotBonds>
3

> <ROCS_ShapeQuery>
A71EV2A-x0451_0A_A71EV2A-x0310_0A_A71EV2A-x0416_0A_peptide

> <ROCS_TanimotoCombo>
0.517 

> <ROCS_ShapeTanimoto>
0.373 

> <ROCS_ColorTanimoto>
0.144 

> <ROCS_RefTversky>
0.336 

> <ROCS_RefColorTversky>
0.171 

> <ROCS_RefTverskyCombo>
0.507 

> <ROCS_FitTversky>
1.429 

> <ROCS_FitColorTversky>
0.472 

> <ROCS_FitTverskyCombo>
1.900 

> <ROCS_ColorScore>
-5.239

> <ROCS_Overlap>
2336.242

> <ROCS_Rank>
412                 

$$$$
untitled-dbase-1054_15
  -OEChem-11132311063D

 30 31  0     0  0  0  0  0  0999 V2000
    9.5320   10.6225   23.2491 C   0  0  0  0  0  0  0  0  0  0  0  0
    9.4753   11.9243   23.7604 C   0  0  0  0  0  0  0  0  0  0  0  0
    8.3954   11.9222   24.6136 C   0  0  0  0  0  0  0  0  0  0  0  0
    6.1719   11.2243   26.1213 C   0  0  0  0  0  0  0  0  0  0  0  0
    6.7371   10.2906   25.3404 C   0  0  0  0  0  0  0  0  0  0  0  0
    6.8119   12.5734   26.0978 C   0  0  0  0  0  0  0  0  0  0  0  0
   10.3293   13.0402   23.4849 C   0  0  0  0  0  0  0  0  0  0  0  0
    6.2082    8.8906   25.2580 C   0  0  0  0  0  0  0  0  0  0  0  0
    6.1941   13.6388   26.9687 C   0  0  0  0  0  0  0  0  0  0  0  0
   11.8298   14.1596   21.7898 C   0  0  0  0  0  0  0  0  0  0  0  0
   11.0881   15.3102   21.1575 C   0  0  0  0  0  0  0  0  0  0  0  0
    8.5703    9.8358   23.7282 N   0  0  0  0  0  0  0  0  0  0  0  0
    7.8542   12.8995   25.3915 N   0  0  0  0  0  0  0  0  0  0  0  0
    7.8608   10.6331   24.5745 N   0  0  0  0  0  0  0  0  0  0  0  0
   10.9285   13.1110   22.2105 N   0  0  0  0  0  0  0  0  0  0  0  0
   10.5574   13.9186   24.3521 O   0  0  0  0  0  0  0  0  0  0  0  0
   11.9520   16.2769   20.7760 F   0  0  0  0  0  0  0  0  0  0  0  0
   10.4066   14.9148   20.0611 F   0  0  0  0  0  0  0  0  0  0  0  0
   10.2097   15.8642   22.0202 F   0  0  0  0  0  0  0  0  0  0  0  0
   10.2362   10.2060   22.5429 H   0  0  0  0  0  0  0  0  0  0  0  0
    5.3048   11.0435   26.7425 H   0  0  0  0  0  0  0  0  0  0  0  0
    5.4674    8.8275   24.4637 H   0  0  0  0  0  0  0  0  0  0  0  0
    5.7490    8.6180   26.2063 H   0  0  0  0  0  0  0  0  0  0  0  0
    7.0262    8.2041   25.0482 H   0  0  0  0  0  0  0  0  0  0  0  0
    6.6617   13.6120   27.9472 H   0  0  0  0  0  0  0  0  0  0  0  0
    5.1296   13.4490   27.0606 H   0  0  0  0  0  0  0  0  0  0  0  0
    6.3518   14.6087   26.5082 H   0  0  0  0  0  0  0  0  0  0  0  0
   12.3830   14.4948   22.6721 H   0  0  0  0  0  0  0  0  0  0  0  0
   12.5395   13.7220   21.0817 H   0  0  0  0  0  0  0  0  0  0  0  0
   10.7703   12.3494   21.5588 H   0  0  0  0  0  0  0  0  0  0  0  0
  1  2  1  0  0  0  0
  1 12  2  0  0  0  0
  2  3  2  0  0  0  0
  2  7  1  0  0  0  0
  3 13  1  0  0  0  0
  3 14  1  0  0  0  0
  4  5  2  0  0  0  0
  4  6  1  0  0  0  0
  5  8  1  0  0  0  0
  5 14  1  0  0  0  0
  6  9  1  0  0  0  0
  6 13  2  0  0  0  0
  7 15  1  0  0  0  0
  7 16  2  0  0  0  0
 10 11  1  0  0  0  0
 10 15  1  0  0  0  0
 11 17  1  0  0  0  0
 11 18  1  0  0  0  0
 11 19  1  0  0  0  0
 12 14  1  0  0  0  0
  1 20  1  0  0  0  0
  4 21  1  0  0  0  0
  8 22  1  0  0  0  0
  8 23  1  0  0  0  0
  8 24  1  0  0  0  0
  9 25  1  0  0  0  0
  9 26  1  0  0  0  0
  9 27  1  0  0  0  0
 10 28  1  0  0  0  0
 10 29  1  0  0  0  0
 15 30  1  0  0  0  0
M  END
> <Catalog ID>
Z336830666

> <PlateID>
1041831-R-14

> <Well>
B05

> <MW (desalted)>
272.226

> <ClogP>
1.467

> <HBD>
1

> <TPSA>
59.290

> <RotBonds>
3

> <ROCS_ShapeQuery>
A71EV2A-x0451_0A_A71EV2A-x0310_0A_A71EV2A-x0416_0A_peptide

> <ROCS_TanimotoCombo>
0.517 

> <ROCS_ShapeTanimoto>
0.331 

> <ROCS_ColorTanimoto>
0.186 

> <ROCS_RefTversky>
0.291 

> <ROCS_RefColorTversky>
0.194 

> <ROCS_RefTverskyCombo>
0.486 

> <ROCS_FitTversky>
1.693 

> <ROCS_FitColorTversky>
0.809 

> <ROCS_FitTverskyCombo>
2.502 

> <ROCS_ColorScore>
-5.914

> <ROCS_Overlap>
2021.629

> <ROCS_Rank>
413                 

$$$$
untitled-dbase-634_194
  -OEChem-11132311063D

 47 50  0     1  0  0  0  0  0999 V2000
    9.0680    7.4615   22.4959 C   0  0  0  0  0  0  0  0  0  0  0  0
    7.9273    7.5017   23.2943 C   0  0  0  0  0  0  0  0  0  0  0  0
    9.8531    8.6048   22.3372 C   0  0  0  0  0  0  0  0  0  0  0  0
    7.5665    8.6854   23.9376 C   0  0  0  0  0  0  0  0  0  0  0  0
   10.2710   10.9683   22.8382 C   0  0  0  0  0  0  0  0  0  0  0  0
    9.5047    9.8053   22.9774 C   0  0  0  0  0  0  0  0  0  0  0  0
    8.3491    9.8419   23.7849 C   0  0  0  0  0  0  0  0  0  0  0  0
    9.8606   12.1139   23.5028 C   0  0  0  0  0  0  0  0  0  0  0  0
    8.0347   11.0526   24.4053 C   0  0  0  0  0  0  0  0  0  0  0  0
   10.6369   13.3553   23.3820 C   0  0  0  0  0  0  0  0  0  0  0  0
   14.0879   16.8834   19.6159 C   0  0  0  0  0  0  0  0  0  0  0  0
   13.5613   16.2324   18.3437 C   0  0  0  0  0  0  0  0  0  0  0  0
   14.0257   15.9004   20.7794 C   0  0  0  0  0  0  0  0  0  0  0  0
   12.1741   15.6304   18.5645 C   0  0  0  0  0  0  0  0  0  0  0  0
   10.8394   13.0235   20.9447 C   0  0  0  0  0  0  0  0  0  0  0  0
   10.8474   14.0642   19.8287 C   0  0  0  0  0  0  0  0  0  0  0  0
   12.6256   14.2818   22.0894 C   0  0  0  0  0  0  0  0  0  0  0  0
   12.6180   15.3002   20.9360 C   0  0  2  0  0  0  0  0  0  0  0  0
    6.6736   12.4182   25.7976 C   0  0  0  0  0  0  0  0  0  0  0  0
    8.7616   12.1863   24.2834 N   0  0  0  0  0  0  0  0  0  0  0  0
   11.3416   13.5812   22.1965 N   0  0  0  0  0  0  0  0  0  0  0  0
   12.1785   14.6685   19.6764 N   0  0  2  0  0  0  0  0  0  0  0  0
   10.5996   14.1155   24.3486 O   0  0  0  0  0  0  0  0  0  0  0  0
    6.9229   11.1509   25.2029 O   0  0  0  0  0  0  0  0  0  0  0  0
    9.3474    6.5387   21.9953 H   0  0  0  0  0  0  0  0  0  0  0  0
    7.3176    6.6109   23.4151 H   0  0  0  0  0  0  0  0  0  0  0  0
   10.7400    8.5497   21.7094 H   0  0  0  0  0  0  0  0  0  0  0  0
    6.6705    8.6886   24.5537 H   0  0  0  0  0  0  0  0  0  0  0  0
   11.1686   10.9751   22.2258 H   0  0  0  0  0  0  0  0  0  0  0  0
   15.1185   17.2233   19.4658 H   0  0  0  0  0  0  0  0  0  0  0  0
   13.4863   17.7697   19.8517 H   0  0  0  0  0  0  0  0  0  0  0  0
   13.5193   16.9751   17.5392 H   0  0  0  0  0  0  0  0  0  0  0  0
   14.2561   15.4476   18.0186 H   0  0  0  0  0  0  0  0  0  0  0  0
   14.7594   15.1004   20.6139 H   0  0  0  0  0  0  0  0  0  0  0  0
   14.3192   16.4144   21.7027 H   0  0  0  0  0  0  0  0  0  0  0  0
   11.4494   16.4346   18.7478 H   0  0  0  0  0  0  0  0  0  0  0  0
   11.8720   15.1250   17.6391 H   0  0  0  0  0  0  0  0  0  0  0  0
    9.8269   12.6282   21.0787 H   0  0  0  0  0  0  0  0  0  0  0  0
   11.4877   12.1774   20.6852 H   0  0  0  0  0  0  0  0  0  0  0  0
   10.5589   13.5648   18.8958 H   0  0  0  0  0  0  0  0  0  0  0  0
   10.0895   14.8313   20.0358 H   0  0  0  0  0  0  0  0  0  0  0  0
   13.3889   13.5105   21.9236 H   0  0  0  0  0  0  0  0  0  0  0  0
   12.8772   14.7887   23.0254 H   0  0  0  0  0  0  0  0  0  0  0  0
   11.9240   16.1118   21.2000 H   0  0  0  0  0  0  0  0  0  0  0  0
    5.7661   12.3648   26.4040 H   0  0  0  0  0  0  0  0  0  0  0  0
    6.5578   13.1724   25.0151 H   0  0  0  0  0  0  0  0  0  0  0  0
    7.5199   12.6845   26.4351 H   0  0  0  0  0  0  0  0  0  0  0  0
  1  2  2  0  0  0  0
  1  3  1  0  0  0  0
  2  4  1  0  0  0  0
  3  6  2  0  0  0  0
  4  7  2  0  0  0  0
  5  6  1  0  0  0  0
  5  8  2  0  0  0  0
  6  7  1  0  0  0  0
  7  9  1  0  0  0  0
  8 10  1  0  0  0  0
  8 20  1  0  0  0  0
  9 20  2  0  0  0  0
  9 24  1  0  0  0  0
 10 21  1  0  0  0  0
 10 23  2  0  0  0  0
 11 12  1  0  0  0  0
 11 13  1  0  0  0  0
 12 14  1  0  0  0  0
 13 18  1  0  0  0  0
 14 22  1  0  0  0  0
 15 16  1  0  0  0  0
 15 21  1  0  0  0  0
 16 22  1  0  0  0  0
 17 18  1  0  0  0  0
 17 21  1  0  0  0  0
 18 22  1  0  0  0  0
 19 24  1  0  0  0  0
  1 25  1  0  0  0  0
  2 26  1  0  0  0  0
  3 27  1  0  0  0  0
  4 28  1  0  0  0  0
  5 29  1  0  0  0  0
 11 30  1  0  0  0  0
 11 31  1  0  0  0  0
 12 32  1  0  0  0  0
 12 33  1  0  0  0  0
 13 34  1  0  0  0  0
 13 35  1  0  0  0  0
 14 36  1  0  0  0  0
 14 37  1  0  0  0  0
 15 38  1  0  0  0  0
 15 39  1  0  0  0  0
 16 40  1  0  0  0  0
 16 41  1  0  0  0  0
 17 42  1  0  0  0  0
 17 43  1  0  0  0  0
 18 44  1  0  0  0  0
 19 45  1  0  0  0  0
 19 46  1  0  0  0  0
 19 47  1  0  0  0  0
M  END
> <Catalog ID>
Z908771316

> <PlateID>
1041831-R-08

> <Well>
H05

> <MW (desalted)>
325.405

> <ClogP>
2.974

> <HBD>
0

> <TPSA>
45.670

> <RotBonds>
2

> <ROCS_ShapeQuery>
A71EV2A-x0451_0A_A71EV2A-x0310_0A_A71EV2A-x0416_0A_peptide

> <ROCS_TanimotoCombo>
0.516 

> <ROCS_ShapeTanimoto>
0.373 

> <ROCS_ColorTanimoto>
0.144 

> <ROCS_RefTversky>
0.327 

> <ROCS_RefColorTversky>
0.163 

> <ROCS_RefTverskyCombo>
0.490 

> <ROCS_FitTversky>
1.611 

> <ROCS_FitColorTversky>
0.542 

> <ROCS_FitTverskyCombo>
2.153 

> <ROCS_ColorScore>
-4.989

> <ROCS_Overlap>
2270.511

> <ROCS_Rank>
414                 

$$$$
untitled-dbase-3244_683
  -OEChem-11132311063D

 45 48  0     1  0  0  0  0  0999 V2000
   12.2216   15.0674   24.2770 C   0  0  0  0  0  0  0  0  0  0  0  0
   11.3340   14.3491   23.4760 C   0  0  0  0  0  0  0  0  0  0  0  0
   13.1759   14.3931   25.0388 C   0  0  0  0  0  0  0  0  0  0  0  0
   12.3547   12.2820   24.1988 C   0  0  0  0  0  0  0  0  0  0  0  0
   11.4004   12.9563   23.4369 C   0  0  0  0  0  0  0  0  0  0  0  0
   13.2424   13.0004   24.9997 C   0  0  0  0  0  0  0  0  0  0  0  0
    9.3522    8.2798   22.6157 C   0  0  0  0  0  0  0  0  0  0  0  0
   10.3621    9.3611   23.0778 C   0  0  0  0  0  0  0  0  0  0  0  0
    8.3564    9.4261   22.3061 C   0  0  0  0  0  0  0  0  0  0  0  0
    7.7834   12.6096   25.1123 C   0  0  0  0  0  0  0  0  0  0  0  0
    6.6461   11.6501   24.7804 C   0  0  0  0  0  0  0  0  0  0  0  0
    9.0488   11.9273   24.6042 C   0  0  2  0  0  0  0  0  0  0  0  0
    9.2425   11.7594   23.0664 C   0  0  2  0  0  0  0  0  0  0  0  0
    8.6464   10.4304   24.6954 C   0  0  2  0  0  0  0  0  0  0  0  0
    9.1601   10.2687   23.2747 C   0  0  0  0  0  0  0  0  0  0  0  0
   13.2168   13.1435   28.1767 C   0  0  0  0  0  0  0  0  0  0  0  0
   13.6325   11.8530   27.5067 C   0  0  0  0  0  0  0  0  0  0  0  0
   10.5099   12.2363   22.6344 N   0  0  0  0  0  0  0  0  0  0  0  0
   14.6884   10.8691   25.3177 O   0  0  0  0  0  0  0  0  0  0  0  0
   15.5512   13.0580   26.2180 O   0  0  0  0  0  0  0  0  0  0  0  0
    7.2188   10.3460   24.9277 O   0  0  0  0  0  0  0  0  0  0  0  0
   14.4390   12.1563   25.9508 S   0  0  0  0  0  0  0  0  0  0  0  0
   12.1702   16.1518   24.3073 H   0  0  0  0  0  0  0  0  0  0  0  0
   10.5942   14.8849   22.8868 H   0  0  0  0  0  0  0  0  0  0  0  0
   13.8634   14.9626   25.6586 H   0  0  0  0  0  0  0  0  0  0  0  0
   12.4066   11.1958   24.1685 H   0  0  0  0  0  0  0  0  0  0  0  0
    9.6612    7.6757   21.7590 H   0  0  0  0  0  0  0  0  0  0  0  0
    9.0205    7.6147   23.4215 H   0  0  0  0  0  0  0  0  0  0  0  0
   10.9465    9.1069   23.9662 H   0  0  0  0  0  0  0  0  0  0  0  0
   11.0514    9.6547   22.2784 H   0  0  0  0  0  0  0  0  0  0  0  0
    8.4045    9.7710   21.2663 H   0  0  0  0  0  0  0  0  0  0  0  0
    7.3129    9.2191   22.5558 H   0  0  0  0  0  0  0  0  0  0  0  0
    7.6297   13.6013   24.6775 H   0  0  0  0  0  0  0  0  0  0  0  0
    7.8517   12.7248   26.2008 H   0  0  0  0  0  0  0  0  0  0  0  0
    5.7947   11.7658   25.4561 H   0  0  0  0  0  0  0  0  0  0  0  0
    6.3055   11.7640   23.7463 H   0  0  0  0  0  0  0  0  0  0  0  0
    9.9534   12.1888   25.1655 H   0  0  0  0  0  0  0  0  0  0  0  0
    8.4364   12.1839   22.4593 H   0  0  0  0  0  0  0  0  0  0  0  0
    9.1879    9.8651   25.4609 H   0  0  0  0  0  0  0  0  0  0  0  0
   14.0914   13.7691   28.3778 H   0  0  0  0  0  0  0  0  0  0  0  0
   12.5276   13.7105   27.5424 H   0  0  0  0  0  0  0  0  0  0  0  0
   12.7093   12.9470   29.1266 H   0  0  0  0  0  0  0  0  0  0  0  0
   12.7640   11.2210   27.3018 H   0  0  0  0  0  0  0  0  0  0  0  0
   14.3363   11.2966   28.1316 H   0  0  0  0  0  0  0  0  0  0  0  0
   10.8130   12.0503   21.6734 H   0  0  0  0  0  0  0  0  0  0  0  0
  1  2  2  0  0  0  0
  1  3  1  0  0  0  0
  2  5  1  0  0  0  0
  3  6  2  0  0  0  0
  4  5  2  0  0  0  0
  4  6  1  0  0  0  0
  5 18  1  0  0  0  0
  6 22  1  0  0  0  0
  7  8  1  0  0  0  0
  7  9  1  0  0  0  0
  8 15  1  0  0  0  0
  9 15  1  0  0  0  0
 10 11  1  0  0  0  0
 10 12  1  0  0  0  0
 11 21  1  0  0  0  0
 12 13  1  0  0  0  0
 12 14  1  0  0  0  0
 13 15  1  0  0  0  0
 13 18  1  0  0  0  0
 14 15  1  0  0  0  0
 14 21  1  0  0  0  0
 16 17  1  0  0  0  0
 17 22  1  0  0  0  0
 19 22  2  0  0  0  0
 20 22  2  0  0  0  0
  1 23  1  0  0  0  0
  2 24  1  0  0  0  0
  3 25  1  0  0  0  0
  4 26  1  0  0  0  0
  7 27  1  0  0  0  0
  7 28  1  0  0  0  0
  8 29  1  0  0  0  0
  8 30  1  0  0  0  0
  9 31  1  0  0  0  0
  9 32  1  0  0  0  0
 10 33  1  0  0  0  0
 10 34  1  0  0  0  0
 11 35  1  0  0  0  0
 11 36  1  0  0  0  0
 12 37  1  0  0  0  0
 13 38  1  0  0  0  0
 14 39  1  0  0  0  0
 16 40  1  0  0  0  0
 16 41  1  0  0  0  0
 16 42  1  0  0  0  0
 17 43  1  0  0  0  0
 17 44  1  0  0  0  0
 18 45  1  0  0  0  0
M  END
> <Catalog ID>
Z1681931698

> <PlateID>
1041831-R-41

> <Well>
E05

> <MW (desalted)>
321.434

> <ClogP>
2.379

> <HBD>
1

> <TPSA>
55.400

> <RotBonds>
4

> <ROCS_ShapeQuery>
A71EV2A-x0451_0A_A71EV2A-x0310_0A_A71EV2A-x0416_0A_peptide

> <ROCS_TanimotoCombo>
0.516 

> <ROCS_ShapeTanimoto>
0.326 

> <ROCS_ColorTanimoto>
0.190 

> <ROCS_RefTversky>
0.291 

> <ROCS_RefColorTversky>
0.225 

> <ROCS_RefTverskyCombo>
0.516 

> <ROCS_FitTversky>
1.575 

> <ROCS_FitColorTversky>
0.553 

> <ROCS_FitTverskyCombo>
2.128 

> <ROCS_ColorScore>
-6.903

> <ROCS_Overlap>
2024.024

> <ROCS_Rank>
415                 

$$$$
untitled-dbase-1057_2528
  -OEChem-11132311063D

 45 48  0     1  0  0  0  0  0999 V2000
    9.8471   10.0500   23.2140 C   0  0  0  0  0  0  0  0  0  0  0  0
    8.5008    9.8837   23.5474 C   0  0  0  0  0  0  0  0  0  0  0  0
    9.9371   12.1485   24.4455 C   0  0  0  0  0  0  0  0  0  0  0  0
   10.5612   11.1759   23.6605 C   0  0  0  0  0  0  0  0  0  0  0  0
    7.9082   10.8584   24.3235 C   0  0  0  0  0  0  0  0  0  0  0  0
    8.6071   11.9604   24.7606 C   0  0  0  0  0  0  0  0  0  0  0  0
   11.4173   14.8839   22.2879 C   0  0  0  0  0  0  0  0  0  0  0  0
   13.8824   16.2176   18.3561 C   0  0  0  0  0  0  0  0  0  0  0  0
   13.3358   17.3532   19.2344 C   0  0  0  0  0  0  0  0  0  0  0  0
   13.7448   15.4636   20.6095 C   0  0  0  0  0  0  0  0  0  0  0  0
   12.0459   14.6953   19.1317 C   0  0  0  0  0  0  0  0  0  0  0  0
    6.5769   12.0969   25.4964 C   0  0  0  0  0  0  0  0  0  0  0  0
   13.5621   14.9586   19.1797 C   0  0  1  0  0  0  0  0  0  0  0  0
   12.7354   16.6007   20.4368 C   0  0  2  0  0  0  0  0  0  0  0  0
   11.4626   15.8608   19.9595 C   0  0  2  0  0  0  0  0  0  0  0  0
   12.0146   11.3344   23.2867 C   0  0  0  0  0  0  0  0  0  0  0  0
   10.5942   15.3723   21.1136 C   0  0  0  0  0  0  0  0  0  0  0  0
   12.4445   12.7950   23.1738 C   0  0  0  0  0  0  0  0  0  0  0  0
   11.6770   13.5246   22.1906 N   0  0  0  0  0  0  0  0  0  0  0  0
   11.7977   15.6156   23.1978 O   0  0  0  0  0  0  0  0  0  0  0  0
    6.6144   10.8662   24.7454 O   0  0  0  0  0  0  0  0  0  0  0  0
    7.8384   12.7961   25.5107 O   0  0  0  0  0  0  0  0  0  0  0  0
   10.3414    9.2974   22.6045 H   0  0  0  0  0  0  0  0  0  0  0  0
    7.9471    9.0167   23.2060 H   0  0  0  0  0  0  0  0  0  0  0  0
   10.4768   13.0211   24.7976 H   0  0  0  0  0  0  0  0  0  0  0  0
   13.4156   16.2016   17.3662 H   0  0  0  0  0  0  0  0  0  0  0  0
   14.9640   16.3328   18.2231 H   0  0  0  0  0  0  0  0  0  0  0  0
   14.1539   18.0081   19.5552 H   0  0  0  0  0  0  0  0  0  0  0  0
   12.5982   17.9651   18.7058 H   0  0  0  0  0  0  0  0  0  0  0  0
   13.4564   14.7293   21.3677 H   0  0  0  0  0  0  0  0  0  0  0  0
   14.7609   15.8172   20.8149 H   0  0  0  0  0  0  0  0  0  0  0  0
   11.6610   14.6947   18.1066 H   0  0  0  0  0  0  0  0  0  0  0  0
   11.8125   13.7236   19.5820 H   0  0  0  0  0  0  0  0  0  0  0  0
    5.8176   12.7532   25.0557 H   0  0  0  0  0  0  0  0  0  0  0  0
    6.2902   11.8692   26.5293 H   0  0  0  0  0  0  0  0  0  0  0  0
   14.1647   14.0907   18.9048 H   0  0  0  0  0  0  0  0  0  0  0  0
   12.5866   17.2349   21.3134 H   0  0  0  0  0  0  0  0  0  0  0  0
   10.8499   16.5112   19.3234 H   0  0  0  0  0  0  0  0  0  0  0  0
   12.1837   10.8314   22.3262 H   0  0  0  0  0  0  0  0  0  0  0  0
   12.6448   10.8106   24.0168 H   0  0  0  0  0  0  0  0  0  0  0  0
    9.9586   14.5533   20.7647 H   0  0  0  0  0  0  0  0  0  0  0  0
    9.9496   16.1890   21.4503 H   0  0  0  0  0  0  0  0  0  0  0  0
   12.2946   13.3030   24.1317 H   0  0  0  0  0  0  0  0  0  0  0  0
   13.5012   12.8852   22.9013 H   0  0  0  0  0  0  0  0  0  0  0  0
   11.3101   13.0181   21.3901 H   0  0  0  0  0  0  0  0  0  0  0  0
  1  2  1  0  0  0  0
  1  4  2  0  0  0  0
  2  5  2  0  0  0  0
  3  4  1  0  0  0  0
  3  6  2  0  0  0  0
  4 16  1  0  0  0  0
  5  6  1  0  0  0  0
  5 21  1  0  0  0  0
  6 22  1  0  0  0  0
  7 17  1  0  0  0  0
  7 19  1  0  0  0  0
  7 20  2  0  0  0  0
  8  9  1  0  0  0  0
  8 13  1  0  0  0  0
  9 14  1  0  0  0  0
 10 13  1  0  0  0  0
 10 14  1  0  0  0  0
 11 13  1  0  0  0  0
 11 15  1  0  0  0  0
 12 21  1  0  0  0  0
 12 22  1  0  0  0  0
 14 15  1  0  0  0  0
 15 17  1  0  0  0  0
 16 18  1  0  0  0  0
 18 19  1  0  0  0  0
  1 23  1  0  0  0  0
  2 24  1  0  0  0  0
  3 25  1  0  0  0  0
  8 26  1  0  0  0  0
  8 27  1  0  0  0  0
  9 28  1  0  0  0  0
  9 29  1  0  0  0  0
 10 30  1  0  0  0  0
 10 31  1  0  0  0  0
 11 32  1  0  0  0  0
 11 33  1  0  0  0  0
 12 34  1  0  0  0  0
 12 35  1  0  0  0  0
 13 36  1  0  0  0  0
 14 37  1  0  0  0  0
 15 38  1  0  0  0  0
 16 39  1  0  0  0  0
 16 40  1  0  0  0  0
 17 41  1  0  0  0  0
 17 42  1  0  0  0  0
 18 43  1  0  0  0  0
 18 44  1  0  0  0  0
 19 45  1  0  0  0  0
M  END
> <Catalog ID>
Z91143500

> <PlateID>
1041831-R-14

> <Well>
B08

> <MW (desalted)>
301.380

> <ClogP>
3.909

> <HBD>
1

> <TPSA>
47.560

> <RotBonds>
5

> <ROCS_ShapeQuery>
A71EV2A-x0451_0A_A71EV2A-x0310_0A_A71EV2A-x0416_0A_peptide

> <ROCS_TanimotoCombo>
0.516 

> <ROCS_ShapeTanimoto>
0.329 

> <ROCS_ColorTanimoto>
0.188 

> <ROCS_RefTversky>
0.294 

> <ROCS_RefColorTversky>
0.227 

> <ROCS_RefTverskyCombo>
0.521 

> <ROCS_FitTversky>
1.556 

> <ROCS_FitColorTversky>
0.523 

> <ROCS_FitTverskyCombo>
2.079 

> <ROCS_ColorScore>
-6.965

> <ROCS_Overlap>
2042.906

> <ROCS_Rank>
416                 

$$$$
untitled-dbase-2898_4973
  -OEChem-11132311063D

 46 48  0     0  0  0  0  0  0999 V2000
    7.5673    9.8973   24.8711 C   0  0  0  0  0  0  0  0  0  0  0  0
    6.8125   10.8043   25.6149 C   0  0  0  0  0  0  0  0  0  0  0  0
    8.5719   10.3584   24.0203 C   0  0  0  0  0  0  0  0  0  0  0  0
    4.9201   11.4939   29.2308 C   0  0  0  0  0  0  0  0  0  0  0  0
   10.2651   14.6553   19.6413 C   0  0  0  0  0  0  0  0  0  0  0  0
    8.0667   12.6336   24.6568 C   0  0  0  0  0  0  0  0  0  0  0  0
    3.8363   11.6416   28.3446 C   0  0  0  0  0  0  0  0  0  0  0  0
    9.8924   14.3273   18.3478 C   0  0  0  0  0  0  0  0  0  0  0  0
   11.7682   15.3144   17.4616 C   0  0  0  0  0  0  0  0  0  0  0  0
    5.9861   12.0479   28.5650 C   0  0  0  0  0  0  0  0  0  0  0  0
    7.0622   12.1724   25.5077 C   0  0  0  0  0  0  0  0  0  0  0  0
   11.4569   15.3491   19.8191 C   0  0  0  0  0  0  0  0  0  0  0  0
   12.2287   15.6888   18.7136 C   0  0  0  0  0  0  0  0  0  0  0  0
    8.8215   11.7265   23.9131 C   0  0  0  0  0  0  0  0  0  0  0  0
   10.6242   13.3424   23.1920 C   0  0  0  0  0  0  0  0  0  0  0  0
   13.5136   16.4302   18.8477 C   0  0  0  0  0  0  0  0  0  0  0  0
   11.8916   15.7203   21.2157 C   0  0  0  0  0  0  0  0  0  0  0  0
    6.2549   13.1417   26.3031 C   0  0  0  0  0  0  0  0  0  0  0  0
   12.4640   14.5388   21.9950 C   0  0  0  0  0  0  0  0  0  0  0  0
   10.6158   14.6400   17.2494 N   0  0  0  0  0  0  0  0  0  0  0  0
    4.1820   12.2425   27.2029 N   0  0  0  0  0  0  0  0  0  0  0  0
    5.4950   12.4773   27.3672 N   0  0  0  0  0  0  0  0  0  0  0  0
    9.8268   12.1873   23.0624 N   0  0  0  0  0  0  0  0  0  0  0  0
   11.5215   13.4514   22.1248 N   0  0  0  0  0  0  0  0  0  0  0  0
   10.5647   14.1618   24.1057 O   0  0  0  0  0  0  0  0  0  0  0  0
    7.3732    8.8319   24.9549 H   0  0  0  0  0  0  0  0  0  0  0  0
    6.0318   10.4356   26.2744 H   0  0  0  0  0  0  0  0  0  0  0  0
    9.1537    9.6424   23.4453 H   0  0  0  0  0  0  0  0  0  0  0  0
    4.9271   11.0481   30.2143 H   0  0  0  0  0  0  0  0  0  0  0  0
    9.6406   14.3761   20.4830 H   0  0  0  0  0  0  0  0  0  0  0  0
    8.2590   13.7011   24.5743 H   0  0  0  0  0  0  0  0  0  0  0  0
    2.8093   11.3363   28.4850 H   0  0  0  0  0  0  0  0  0  0  0  0
    8.9718   13.7863   18.1554 H   0  0  0  0  0  0  0  0  0  0  0  0
   12.3266   15.5508   16.5611 H   0  0  0  0  0  0  0  0  0  0  0  0
    7.0258   12.1683   28.8363 H   0  0  0  0  0  0  0  0  0  0  0  0
   13.3387   17.5127   18.8017 H   0  0  0  0  0  0  0  0  0  0  0  0
   14.0113   16.1999   19.7994 H   0  0  0  0  0  0  0  0  0  0  0  0
   14.2176   16.1587   18.0492 H   0  0  0  0  0  0  0  0  0  0  0  0
   11.0250   16.1242   21.7541 H   0  0  0  0  0  0  0  0  0  0  0  0
   12.6259   16.5348   21.1715 H   0  0  0  0  0  0  0  0  0  0  0  0
    6.8870   13.9108   26.7753 H   0  0  0  0  0  0  0  0  0  0  0  0
    5.5360   13.6900   25.6735 H   0  0  0  0  0  0  0  0  0  0  0  0
   13.3392   14.1375   21.4745 H   0  0  0  0  0  0  0  0  0  0  0  0
   12.7715   14.8316   23.0043 H   0  0  0  0  0  0  0  0  0  0  0  0
   10.0218   11.6207   22.2303 H   0  0  0  0  0  0  0  0  0  0  0  0
   11.5101   12.7330   21.4077 H   0  0  0  0  0  0  0  0  0  0  0  0
  1  2  2  0  0  0  0
  1  3  1  0  0  0  0
  2 11  1  0  0  0  0
  3 14  2  0  0  0  0
  4  7  1  0  0  0  0
  4 10  2  0  0  0  0
  5  8  1  0  0  0  0
  5 12  2  0  0  0  0
  6 11  2  0  0  0  0
  6 14  1  0  0  0  0
  7 21  2  0  0  0  0
  8 20  2  0  0  0  0
  9 13  2  0  0  0  0
  9 20  1  0  0  0  0
 10 22  1  0  0  0  0
 11 18  1  0  0  0  0
 12 13  1  0  0  0  0
 12 17  1  0  0  0  0
 13 16  1  0  0  0  0
 14 23  1  0  0  0  0
 15 23  1  0  0  0  0
 15 24  1  0  0  0  0
 15 25  2  0  0  0  0
 17 19  1  0  0  0  0
 18 22  1  0  0  0  0
 19 24  1  0  0  0  0
 21 22  1  0  0  0  0
  1 26  1  0  0  0  0
  2 27  1  0  0  0  0
  3 28  1  0  0  0  0
  4 29  1  0  0  0  0
  5 30  1  0  0  0  0
  6 31  1  0  0  0  0
  7 32  1  0  0  0  0
  8 33  1  0  0  0  0
  9 34  1  0  0  0  0
 10 35  1  0  0  0  0
 16 36  1  0  0  0  0
 16 37  1  0  0  0  0
 16 38  1  0  0  0  0
 17 39  1  0  0  0  0
 17 40  1  0  0  0  0
 18 41  1  0  0  0  0
 18 42  1  0  0  0  0
 19 43  1  0  0  0  0
 19 44  1  0  0  0  0
 23 45  1  0  0  0  0
 24 46  1  0  0  0  0
M  END
> <Catalog ID>
Z1514658829

> <PlateID>
1041831-R-37

> <Well>
B09

> <MW (desalted)>
335.403

> <ClogP>
2.223

> <HBD>
2

> <TPSA>
71.840

> <RotBonds>
6

> <ROCS_ShapeQuery>
A71EV2A-x0451_0A_A71EV2A-x0310_0A_A71EV2A-x0416_0A_peptide

> <ROCS_TanimotoCombo>
0.516 

> <ROCS_ShapeTanimoto>
0.322 

> <ROCS_ColorTanimoto>
0.194 

> <ROCS_RefTversky>
0.294 

> <ROCS_RefColorTversky>
0.211 

> <ROCS_RefTverskyCombo>
0.505 

> <ROCS_FitTversky>
1.424 

> <ROCS_FitColorTversky>
0.702 

> <ROCS_FitTverskyCombo>
2.125 

> <ROCS_ColorScore>
-6.452

> <ROCS_Overlap>
2044.644

> <ROCS_Rank>
417                 

$$$$
untitled-dbase-598_4429
  -OEChem-11132311063D

 36 38  0     0  0  0  0  0  0999 V2000
   12.4905   15.5641   19.9883 C   0  0  0  0  0  0  0  0  0  0  0  0
   13.6129   15.9412   20.7256 C   0  0  0  0  0  0  0  0  0  0  0  0
    8.8486    9.6491   23.7261 C   0  0  0  0  0  0  0  0  0  0  0  0
    9.7888   10.6497   23.5071 C   0  0  0  0  0  0  0  0  0  0  0  0
   11.5735   14.6612   20.5266 C   0  0  0  0  0  0  0  0  0  0  0  0
   13.8184   15.4154   22.0011 C   0  0  0  0  0  0  0  0  0  0  0  0
    7.6577   10.0013   24.3405 C   0  0  0  0  0  0  0  0  0  0  0  0
   13.4483   11.9463   25.9935 C   0  0  0  0  0  0  0  0  0  0  0  0
   15.2735   12.6521   27.3981 C   0  0  0  0  0  0  0  0  0  0  0  0
    9.5133   11.9536   23.9035 C   0  0  0  0  0  0  0  0  0  0  0  0
   11.7791   14.1354   21.8021 C   0  0  0  0  0  0  0  0  0  0  0  0
   12.9015   14.5125   22.5394 C   0  0  0  0  0  0  0  0  0  0  0  0
   14.3721   12.7830   25.4030 C   0  0  0  0  0  0  0  0  0  0  0  0
    8.2926   12.2028   24.5098 C   0  0  0  0  0  0  0  0  0  0  0  0
   10.5049   13.0188   23.6756 C   0  0  0  0  0  0  0  0  0  0  0  0
   14.3274   13.2764   23.9867 C   0  0  0  0  0  0  0  0  0  0  0  0
    7.3544   11.2569   24.7395 N   0  0  0  0  0  0  0  0  0  0  0  0
   15.4192   13.1890   26.2071 N   0  0  0  0  0  0  0  0  0  0  0  0
   10.8524   13.2317   22.3273 N   0  0  0  0  0  0  0  0  0  0  0  0
   10.9995   13.6347   24.6173 O   0  0  0  0  0  0  0  0  0  0  0  0
    7.9815   13.4747   24.9161 O   0  0  0  0  0  0  0  0  0  0  0  0
   13.1213   14.0104   23.7874 O   0  0  0  0  0  0  0  0  0  0  0  0
   13.8999   11.6478   27.6208 S   0  0  0  0  0  0  0  0  0  0  0  0
   12.3304   15.9741   18.9954 H   0  0  0  0  0  0  0  0  0  0  0  0
   14.3264   16.6448   20.3068 H   0  0  0  0  0  0  0  0  0  0  0  0
    9.0406    8.6257   23.4244 H   0  0  0  0  0  0  0  0  0  0  0  0
   10.7320   10.4025   23.0272 H   0  0  0  0  0  0  0  0  0  0  0  0
   10.7026   14.3749   19.9424 H   0  0  0  0  0  0  0  0  0  0  0  0
   14.6949   15.7137   22.5700 H   0  0  0  0  0  0  0  0  0  0  0  0
    6.8908    9.2584   24.5335 H   0  0  0  0  0  0  0  0  0  0  0  0
   12.5583   11.5070   25.5652 H   0  0  0  0  0  0  0  0  0  0  0  0
   15.9778   12.8295   28.1993 H   0  0  0  0  0  0  0  0  0  0  0  0
   15.1814   13.9276   23.7715 H   0  0  0  0  0  0  0  0  0  0  0  0
   14.3580   12.4377   23.2828 H   0  0  0  0  0  0  0  0  0  0  0  0
   10.3611   12.6474   21.6421 H   0  0  0  0  0  0  0  0  0  0  0  0
    7.1017   13.4832   25.3175 H   0  0  0  0  0  0  0  0  0  0  0  0
  1  2  2  0  0  0  0
  1  5  1  0  0  0  0
  2  6  1  0  0  0  0
  3  4  1  0  0  0  0
  3  7  2  0  0  0  0
  4 10  2  0  0  0  0
  5 11  2  0  0  0  0
  6 12  2  0  0  0  0
  7 17  1  0  0  0  0
  8 13  2  0  0  0  0
  8 23  1  0  0  0  0
  9 18  2  0  0  0  0
  9 23  1  0  0  0  0
 10 14  1  0  0  0  0
 10 15  1  0  0  0  0
 11 12  1  0  0  0  0
 11 19  1  0  0  0  0
 12 22  1  0  0  0  0
 13 16  1  0  0  0  0
 13 18  1  0  0  0  0
 14 17  2  0  0  0  0
 14 21  1  0  0  0  0
 15 19  1  0  0  0  0
 15 20  2  0  0  0  0
 16 22  1  0  0  0  0
  1 24  1  0  0  0  0
  2 25  1  0  0  0  0
  3 26  1  0  0  0  0
  4 27  1  0  0  0  0
  5 28  1  0  0  0  0
  6 29  1  0  0  0  0
  7 30  1  0  0  0  0
  8 31  1  0  0  0  0
  9 32  1  0  0  0  0
 16 33  1  0  0  0  0
 16 34  1  0  0  0  0
 19 35  1  0  0  0  0
 21 36  1  0  0  0  0
M  END
> <Catalog ID>
Z1000107754

> <PlateID>
1041831-R-08

> <Well>
D09

> <MW (desalted)>
327.358

> <ClogP>
2.681

> <HBD>
2

> <TPSA>
84.340

> <RotBonds>
5

> <ROCS_ShapeQuery>
A71EV2A-x0451_0A_A71EV2A-x0310_0A_A71EV2A-x0416_0A_peptide

> <ROCS_TanimotoCombo>
0.516 

> <ROCS_ShapeTanimoto>
0.332 

> <ROCS_ColorTanimoto>
0.185 

> <ROCS_RefTversky>
0.298 

> <ROCS_RefColorTversky>
0.212 

> <ROCS_RefTverskyCombo>
0.510 

> <ROCS_FitTversky>
1.526 

> <ROCS_FitColorTversky>
0.586 

> <ROCS_FitTverskyCombo>
2.112 

> <ROCS_ColorScore>
-6.500

> <ROCS_Overlap>
2067.617

> <ROCS_Rank>
418                 

$$$$
untitled-dbase-1185_181
  -OEChem-11132311063D

 44 46  0     0  0  0  0  0  0999 V2000
    6.7727   12.2611   26.0797 C   0  0  0  0  0  0  0  0  0  0  0  0
    6.3625   10.9381   25.9275 C   0  0  0  0  0  0  0  0  0  0  0  0
    7.8592   12.7622   25.3535 C   0  0  0  0  0  0  0  0  0  0  0  0
    7.0225   10.0755   25.0476 C   0  0  0  0  0  0  0  0  0  0  0  0
    9.8675   10.8736   22.9535 C   0  0  0  0  0  0  0  0  0  0  0  0
    8.5402   11.9112   24.4604 C   0  0  0  0  0  0  0  0  0  0  0  0
    9.6514   12.0756   23.5869 C   0  0  0  0  0  0  0  0  0  0  0  0
    8.1070   10.5902   24.3283 C   0  0  0  0  0  0  0  0  0  0  0  0
   10.4667   13.2966   23.3597 C   0  0  0  0  0  0  0  0  0  0  0  0
   11.2168   15.3435   20.5897 C   0  0  0  0  0  0  0  0  0  0  0  0
   13.2603   14.0710   21.3456 C   0  0  0  0  0  0  0  0  0  0  0  0
   12.1227   16.4850   20.1417 C   0  0  0  0  0  0  0  0  0  0  0  0
   14.1280   15.2366   20.8839 C   0  0  0  0  0  0  0  0  0  0  0  0
   11.8542   14.5431   21.7296 C   0  0  0  0  0  0  0  0  0  0  0  0
    8.8349    8.6076   22.9705 C   0  0  0  0  0  0  0  0  0  0  0  0
   13.2253   16.7710   17.2535 C   0  0  0  0  0  0  0  0  0  0  0  0
    8.9309    9.9839   23.4070 N   0  0  0  0  0  0  0  0  0  0  0  0
   13.4681   15.9686   19.7676 N   0  0  0  0  0  0  0  0  0  0  0  0
   11.0187   13.4261   22.0961 N   0  0  0  0  0  0  0  0  0  0  0  0
   10.6224   14.0941   24.2807 O   0  0  0  0  0  0  0  0  0  0  0  0
   12.6278   14.3326   17.9777 O   0  0  0  0  0  0  0  0  0  0  0  0
   15.0520   15.0459   17.9712 O   0  0  0  0  0  0  0  0  0  0  0  0
   13.6521   15.3295   18.1952 S   0  0  0  0  0  0  0  0  0  0  0  0
    6.2437   12.9127   26.7701 H   0  0  0  0  0  0  0  0  0  0  0  0
    5.5161   10.5697   26.5016 H   0  0  0  0  0  0  0  0  0  0  0  0
    8.1667   13.7960   25.4834 H   0  0  0  0  0  0  0  0  0  0  0  0
    6.6988    9.0464   24.9331 H   0  0  0  0  0  0  0  0  0  0  0  0
   10.6063   10.5768   22.2204 H   0  0  0  0  0  0  0  0  0  0  0  0
   10.2724   15.7611   20.9475 H   0  0  0  0  0  0  0  0  0  0  0  0
   10.9821   14.6942   19.7452 H   0  0  0  0  0  0  0  0  0  0  0  0
   13.2112   13.3062   20.5675 H   0  0  0  0  0  0  0  0  0  0  0  0
   13.7227   13.6074   22.2219 H   0  0  0  0  0  0  0  0  0  0  0  0
   11.6824   17.0230   19.2887 H   0  0  0  0  0  0  0  0  0  0  0  0
   12.2251   17.2014   20.9696 H   0  0  0  0  0  0  0  0  0  0  0  0
   14.2765   15.9229   21.7306 H   0  0  0  0  0  0  0  0  0  0  0  0
   15.1205   14.8860   20.5625 H   0  0  0  0  0  0  0  0  0  0  0  0
   11.9160   15.1747   22.6241 H   0  0  0  0  0  0  0  0  0  0  0  0
    9.4558    7.9994   23.6335 H   0  0  0  0  0  0  0  0  0  0  0  0
    7.7919    8.2823   23.0184 H   0  0  0  0  0  0  0  0  0  0  0  0
    9.1869    8.5306   21.9380 H   0  0  0  0  0  0  0  0  0  0  0  0
   13.2955   16.5229   16.1932 H   0  0  0  0  0  0  0  0  0  0  0  0
   12.2058   17.0615   17.5115 H   0  0  0  0  0  0  0  0  0  0  0  0
   13.9260   17.5678   17.5070 H   0  0  0  0  0  0  0  0  0  0  0  0
   10.8985   12.6949   21.4038 H   0  0  0  0  0  0  0  0  0  0  0  0
  1  2  2  0  0  0  0
  1  3  1  0  0  0  0
  2  4  1  0  0  0  0
  3  6  2  0  0  0  0
  4  8  2  0  0  0  0
  5  7  2  0  0  0  0
  5 17  1  0  0  0  0
  6  7  1  0  0  0  0
  6  8  1  0  0  0  0
  7  9  1  0  0  0  0
  8 17  1  0  0  0  0
  9 19  1  0  0  0  0
  9 20  2  0  0  0  0
 10 12  1  0  0  0  0
 10 14  1  0  0  0  0
 11 13  1  0  0  0  0
 11 14  1  0  0  0  0
 12 18  1  0  0  0  0
 13 18  1  0  0  0  0
 14 19  1  0  0  0  0
 15 17  1  0  0  0  0
 16 23  1  0  0  0  0
 18 23  1  0  0  0  0
 21 23  2  0  0  0  0
 22 23  2  0  0  0  0
  1 24  1  0  0  0  0
  2 25  1  0  0  0  0
  3 26  1  0  0  0  0
  4 27  1  0  0  0  0
  5 28  1  0  0  0  0
 10 29  1  0  0  0  0
 10 30  1  0  0  0  0
 11 31  1  0  0  0  0
 11 32  1  0  0  0  0
 12 33  1  0  0  0  0
 12 34  1  0  0  0  0
 13 35  1  0  0  0  0
 13 36  1  0  0  0  0
 14 37  1  0  0  0  0
 15 38  1  0  0  0  0
 15 39  1  0  0  0  0
 15 40  1  0  0  0  0
 16 41  1  0  0  0  0
 16 42  1  0  0  0  0
 16 43  1  0  0  0  0
 19 44  1  0  0  0  0
M  END
> <Catalog ID>
Z319709180

> <PlateID>
1041831-R-15

> <Well>
G06

> <MW (desalted)>
335.421

> <ClogP>
0.855

> <HBD>
1

> <TPSA>
71.410

> <RotBonds>
2

> <ROCS_ShapeQuery>
A71EV2A-x0451_0A_A71EV2A-x0310_0A_A71EV2A-x0416_0A_peptide

> <ROCS_TanimotoCombo>
0.516 

> <ROCS_ShapeTanimoto>
0.350 

> <ROCS_ColorTanimoto>
0.166 

> <ROCS_RefTversky>
0.309 

> <ROCS_RefColorTversky>
0.181 

> <ROCS_RefTverskyCombo>
0.490 

> <ROCS_FitTversky>
1.616 

> <ROCS_FitColorTversky>
0.668 

> <ROCS_FitTverskyCombo>
2.284 

> <ROCS_ColorScore>
-5.512

> <ROCS_Overlap>
2146.166

> <ROCS_Rank>
419                 

$$$$
untitled-dbase-201_367
  -OEChem-11132311063D

 37 38  0     1  0  0  0  0  0999 V2000
    6.9878   12.3919   25.0872 C   0  0  0  0  0  0  0  0  0  0  0  0
    7.8663   10.5651   24.5406 C   0  0  0  0  0  0  0  0  0  0  0  0
    9.9709   10.1281   22.7789 C   0  0  0  0  0  0  0  0  0  0  0  0
    9.5655   11.3920   22.9824 C   0  0  0  0  0  0  0  0  0  0  0  0
    9.2378    9.0668   23.5318 C   0  0  0  0  0  0  0  0  0  0  0  0
   11.6826   13.3890   23.9442 C   0  0  0  0  0  0  0  0  0  0  0  0
    9.6837    7.6424   23.3137 C   0  0  0  0  0  0  0  0  0  0  0  0
   10.1448   15.4958   21.8082 C   0  0  0  0  0  0  0  0  0  0  0  0
   13.5220   13.6503   21.2264 C   0  0  0  0  0  0  0  0  0  0  0  0
   11.6409   15.2393   21.6973 C   0  0  0  0  0  0  0  0  0  0  0  0
   11.4972   12.8079   22.5457 C   0  0  2  0  0  0  0  0  0  0  0  0
   12.0042   13.7608   21.4386 C   0  0  2  0  0  0  0  0  0  0  0  0
    6.9118   11.0547   25.3062 N   0  0  0  0  0  0  0  0  0  0  0  0
    7.9264   12.7880   24.2329 N   0  0  0  0  0  0  0  0  0  0  0  0
    8.2534    9.2720   24.3563 N   0  0  0  0  0  0  0  0  0  0  0  0
    8.5048   11.6131   23.8700 N   0  0  0  0  0  0  0  0  0  0  0  0
   12.9026   13.0691   24.5014 N   0  0  0  0  0  0  0  0  0  0  0  0
   10.1088   12.4549   22.3928 N   0  0  0  0  0  0  0  0  0  0  0  0
   10.8475   14.0934   24.5070 O   0  0  0  0  0  0  0  0  0  0  0  0
    6.3361   13.1069   25.5665 H   0  0  0  0  0  0  0  0  0  0  0  0
   10.7810    9.8614   22.1126 H   0  0  0  0  0  0  0  0  0  0  0  0
   10.4542    7.3975   24.0371 H   0  0  0  0  0  0  0  0  0  0  0  0
   10.0752    7.5433   22.3065 H   0  0  0  0  0  0  0  0  0  0  0  0
    8.8326    6.9812   23.4394 H   0  0  0  0  0  0  0  0  0  0  0  0
    9.7044   14.9119   22.6224 H   0  0  0  0  0  0  0  0  0  0  0  0
    9.9286   16.5539   21.9806 H   0  0  0  0  0  0  0  0  0  0  0  0
    9.6461   15.2078   20.8771 H   0  0  0  0  0  0  0  0  0  0  0  0
   14.0732   13.9273   22.1304 H   0  0  0  0  0  0  0  0  0  0  0  0
   13.8015   12.6198   20.9806 H   0  0  0  0  0  0  0  0  0  0  0  0
   13.8634   14.2913   20.4070 H   0  0  0  0  0  0  0  0  0  0  0  0
   12.0256   15.8481   20.8692 H   0  0  0  0  0  0  0  0  0  0  0  0
   12.1371   15.6031   22.6050 H   0  0  0  0  0  0  0  0  0  0  0  0
   12.0537   11.8643   22.5189 H   0  0  0  0  0  0  0  0  0  0  0  0
   11.5313   13.4676   20.4915 H   0  0  0  0  0  0  0  0  0  0  0  0
   13.1315   13.4048   25.4317 H   0  0  0  0  0  0  0  0  0  0  0  0
   13.5745   12.5028   23.9945 H   0  0  0  0  0  0  0  0  0  0  0  0
    9.4998   13.0327   21.8104 H   0  0  0  0  0  0  0  0  0  0  0  0
  1 13  1  0  0  0  0
  1 14  2  0  0  0  0
  2 13  2  0  0  0  0
  2 15  1  0  0  0  0
  2 16  1  0  0  0  0
  3  4  2  0  0  0  0
  3  5  1  0  0  0  0
  4 16  1  0  0  0  0
  4 18  1  0  0  0  0
  5  7  1  0  0  0  0
  5 15  2  0  0  0  0
  6 11  1  0  0  0  0
  6 17  1  0  0  0  0
  6 19  2  0  0  0  0
  8 10  1  0  0  0  0
  9 12  1  0  0  0  0
 10 12  1  0  0  0  0
 11 12  1  0  0  0  0
 11 18  1  0  0  0  0
 14 16  1  0  0  0  0
  1 20  1  0  0  0  0
  3 21  1  0  0  0  0
  7 22  1  0  0  0  0
  7 23  1  0  0  0  0
  7 24  1  0  0  0  0
  8 25  1  0  0  0  0
  8 26  1  0  0  0  0
  8 27  1  0  0  0  0
  9 28  1  0  0  0  0
  9 29  1  0  0  0  0
  9 30  1  0  0  0  0
 10 31  1  0  0  0  0
 10 32  1  0  0  0  0
 11 33  1  0  0  0  0
 12 34  1  0  0  0  0
 17 35  1  0  0  0  0
 17 36  1  0  0  0  0
 18 37  1  0  0  0  0
M  END
> <Catalog ID>
Z1454295736

> <PlateID>
1041831-R-03

> <Well>
E02

> <MW (desalted)>
262.311

> <ClogP>
0.983

> <HBD>
2

> <TPSA>
98.200

> <RotBonds>
5

> <ROCS_ShapeQuery>
A71EV2A-x0451_0A_A71EV2A-x0310_0A_A71EV2A-x0416_0A_peptide

> <ROCS_TanimotoCombo>
0.516 

> <ROCS_ShapeTanimoto>
0.343 

> <ROCS_ColorTanimoto>
0.173 

> <ROCS_RefTversky>
0.299 

> <ROCS_RefColorTversky>
0.201 

> <ROCS_RefTverskyCombo>
0.500 

> <ROCS_FitTversky>
1.762 

> <ROCS_FitColorTversky>
0.554 

> <ROCS_FitTverskyCombo>
2.316 

> <ROCS_ColorScore>
-6.168

> <ROCS_Overlap>
2071.576

> <ROCS_Rank>
420                 

$$$$
untitled-dbase-2302_7653
  -OEChem-11132311063D

 46 48  0     0  0  0  0  0  0999 V2000
    8.0006    9.3376   24.2532 C   0  0  0  0  0  0  0  0  0  0  0  0
   14.0957   16.3318   19.9604 C   0  0  0  0  0  0  0  0  0  0  0  0
    7.1351   10.3188   24.7367 C   0  0  0  0  0  0  0  0  0  0  0  0
    9.2839    9.6858   23.8316 C   0  0  0  0  0  0  0  0  0  0  0  0
   13.3274   15.6339   20.9226 C   0  0  0  0  0  0  0  0  0  0  0  0
    5.6965   12.3430   26.2541 C   0  0  0  0  0  0  0  0  0  0  0  0
    6.7485   13.9716   24.8309 C   0  0  0  0  0  0  0  0  0  0  0  0
    8.8360   11.9964   24.3768 C   0  0  0  0  0  0  0  0  0  0  0  0
    4.8621   13.3539   26.7032 C   0  0  0  0  0  0  0  0  0  0  0  0
    5.8669   14.9095   25.3436 C   0  0  0  0  0  0  0  0  0  0  0  0
   13.2790   16.4966   18.8660 C   0  0  0  0  0  0  0  0  0  0  0  0
    7.5528   11.6482   24.7985 C   0  0  0  0  0  0  0  0  0  0  0  0
    6.6550   12.6660   25.3001 C   0  0  0  0  0  0  0  0  0  0  0  0
    9.7016   11.0152   23.8934 C   0  0  0  0  0  0  0  0  0  0  0  0
   12.0959   15.4222   20.3476 C   0  0  0  0  0  0  0  0  0  0  0  0
   11.1624   13.8743   23.1295 C   0  0  0  0  0  0  0  0  0  0  0  0
   13.6413   12.7005   24.9653 C   0  0  0  0  0  0  0  0  0  0  0  0
   11.0829   11.3892   23.4393 C   0  0  0  0  0  0  0  0  0  0  0  0
   10.8413   14.7503   20.8259 C   0  0  0  0  0  0  0  0  0  0  0  0
   12.1663   12.7960   25.1604 C   0  0  0  0  0  0  0  0  0  0  0  0
    4.9227   14.6334   26.2710 N   0  0  0  0  0  0  0  0  0  0  0  0
   11.1220   13.6766   21.7520 N   0  0  0  0  0  0  0  0  0  0  0  0
   11.4601   12.7244   23.8837 N   0  0  0  0  0  0  0  0  0  0  0  0
   10.9603   14.9808   23.6389 O   0  0  0  0  0  0  0  0  0  0  0  0
   12.0582   15.9451   19.0939 O   0  0  0  0  0  0  0  0  0  0  0  0
    7.6751    8.3024   24.2048 H   0  0  0  0  0  0  0  0  0  0  0  0
   15.1170   16.6718   20.0528 H   0  0  0  0  0  0  0  0  0  0  0  0
    6.1378   10.0315   25.0618 H   0  0  0  0  0  0  0  0  0  0  0  0
    9.9519    8.9148   23.4565 H   0  0  0  0  0  0  0  0  0  0  0  0
   13.6360   15.3248   21.9111 H   0  0  0  0  0  0  0  0  0  0  0  0
    5.5937   11.3358   26.6451 H   0  0  0  0  0  0  0  0  0  0  0  0
    7.4835   14.2605   24.0865 H   0  0  0  0  0  0  0  0  0  0  0  0
    9.1679   13.0317   24.4220 H   0  0  0  0  0  0  0  0  0  0  0  0
    4.0989   13.1539   27.4484 H   0  0  0  0  0  0  0  0  0  0  0  0
    5.8980   15.9412   25.0096 H   0  0  0  0  0  0  0  0  0  0  0  0
   13.4099   16.9593   17.8988 H   0  0  0  0  0  0  0  0  0  0  0  0
   13.9813   13.5278   24.3250 H   0  0  0  0  0  0  0  0  0  0  0  0
   14.1448   12.7617   25.9414 H   0  0  0  0  0  0  0  0  0  0  0  0
   13.8863   11.7413   24.4858 H   0  0  0  0  0  0  0  0  0  0  0  0
   11.8226   10.6821   23.8304 H   0  0  0  0  0  0  0  0  0  0  0  0
   11.1570   11.3665   22.3470 H   0  0  0  0  0  0  0  0  0  0  0  0
   10.1869   15.4691   21.3311 H   0  0  0  0  0  0  0  0  0  0  0  0
   10.2765   14.3299   19.9872 H   0  0  0  0  0  0  0  0  0  0  0  0
   11.8345   11.9658   25.8013 H   0  0  0  0  0  0  0  0  0  0  0  0
   11.9299   13.7531   25.6483 H   0  0  0  0  0  0  0  0  0  0  0  0
   11.2953   12.7480   21.3861 H   0  0  0  0  0  0  0  0  0  0  0  0
  1  3  2  0  0  0  0
  1  4  1  0  0  0  0
  2  5  1  0  0  0  0
  2 11  2  0  0  0  0
  3 12  1  0  0  0  0
  4 14  2  0  0  0  0
  5 15  2  0  0  0  0
  6  9  1  0  0  0  0
  6 13  2  0  0  0  0
  7 10  2  0  0  0  0
  7 13  1  0  0  0  0
  8 12  2  0  0  0  0
  8 14  1  0  0  0  0
  9 21  2  0  0  0  0
 10 21  1  0  0  0  0
 11 25  1  0  0  0  0
 12 13  1  0  0  0  0
 14 18  1  0  0  0  0
 15 19  1  0  0  0  0
 15 25  1  0  0  0  0
 16 22  1  0  0  0  0
 16 23  1  0  0  0  0
 16 24  2  0  0  0  0
 17 20  1  0  0  0  0
 18 23  1  0  0  0  0
 19 22  1  0  0  0  0
 20 23  1  0  0  0  0
  1 26  1  0  0  0  0
  2 27  1  0  0  0  0
  3 28  1  0  0  0  0
  4 29  1  0  0  0  0
  5 30  1  0  0  0  0
  6 31  1  0  0  0  0
  7 32  1  0  0  0  0
  8 33  1  0  0  0  0
  9 34  1  0  0  0  0
 10 35  1  0  0  0  0
 11 36  1  0  0  0  0
 17 37  1  0  0  0  0
 17 38  1  0  0  0  0
 17 39  1  0  0  0  0
 18 40  1  0  0  0  0
 18 41  1  0  0  0  0
 19 42  1  0  0  0  0
 19 43  1  0  0  0  0
 20 44  1  0  0  0  0
 20 45  1  0  0  0  0
 22 46  1  0  0  0  0
M  END
> <Catalog ID>
Z1274609406

> <PlateID>
1041831-R-29

> <Well>
G03

> <MW (desalted)>
335.400

> <ClogP>
2.720

> <HBD>
1

> <TPSA>
58.370

> <RotBonds>
6

> <ROCS_ShapeQuery>
A71EV2A-x0451_0A_A71EV2A-x0310_0A_A71EV2A-x0416_0A_peptide

> <ROCS_TanimotoCombo>
0.516 

> <ROCS_ShapeTanimoto>
0.364 

> <ROCS_ColorTanimoto>
0.152 

> <ROCS_RefTversky>
0.322 

> <ROCS_RefColorTversky>
0.168 

> <ROCS_RefTverskyCombo>
0.490 

> <ROCS_FitTversky>
1.558 

> <ROCS_FitColorTversky>
0.621 

> <ROCS_FitTverskyCombo>
2.179 

> <ROCS_ColorScore>
-5.116

> <ROCS_Overlap>
2237.609

> <ROCS_Rank>
421                 

$$$$
untitled-dbase-1018_2328
  -OEChem-11132311063D

 50 53  0     0  0  0  0  0  0999 V2000
   10.2735    6.6484   21.3857 C   0  0  0  0  0  0  0  0  0  0  0  0
   10.5091    8.0175   21.6563 C   0  0  0  0  0  0  0  0  0  0  0  0
    9.9908   10.7784   22.9824 C   0  0  0  0  0  0  0  0  0  0  0  0
    7.8588   12.8213   25.3423 C   0  0  0  0  0  0  0  0  0  0  0  0
    9.1735    6.2952   22.1322 C   0  0  0  0  0  0  0  0  0  0  0  0
    8.5538   11.9323   24.4985 C   0  0  0  0  0  0  0  0  0  0  0  0
    9.6591   11.9635   23.6392 C   0  0  0  0  0  0  0  0  0  0  0  0
    9.2191    9.6440   23.2107 C   0  0  0  0  0  0  0  0  0  0  0  0
    9.5362    8.4034   22.5488 C   0  0  0  0  0  0  0  0  0  0  0  0
    7.8712   10.7337   24.6353 C   0  0  0  0  0  0  0  0  0  0  0  0
   10.4339   13.1800   23.4339 C   0  0  0  0  0  0  0  0  0  0  0  0
   11.8126   15.8945   20.2993 C   0  0  0  0  0  0  0  0  0  0  0  0
   11.2054   14.8142   19.4044 C   0  0  0  0  0  0  0  0  0  0  0  0
   12.0133   15.5767   21.7823 C   0  0  0  0  0  0  0  0  0  0  0  0
   10.0378   14.0352   20.0067 C   0  0  0  0  0  0  0  0  0  0  0  0
   12.2974   14.1141   22.1050 C   0  0  0  0  0  0  0  0  0  0  0  0
   10.4989   12.8836   20.9006 C   0  0  0  0  0  0  0  0  0  0  0  0
    4.8408   10.6877   26.9029 C   0  0  0  0  0  0  0  0  0  0  0  0
    6.5089    8.8043   26.6264 C   0  0  0  0  0  0  0  0  0  0  0  0
    5.8681   10.0326   25.9776 C   0  0  0  0  0  0  0  0  0  0  0  0
    6.8246   12.2446   25.9635 N   0  0  0  0  0  0  0  0  0  0  0  0
    8.1432    9.5641   24.0307 N   0  0  0  0  0  0  0  0  0  0  0  0
    6.8574   10.9768   25.5143 N   0  0  0  0  0  0  0  0  0  0  0  0
   11.0508   13.3469   22.1784 N   0  0  0  0  0  0  0  0  0  0  0  0
   10.5135   13.9997   24.3482 O   0  0  0  0  0  0  0  0  0  0  0  0
    8.7180    7.3594   22.8440 O   0  0  0  0  0  0  0  0  0  0  0  0
   10.8353    6.0003   20.7287 H   0  0  0  0  0  0  0  0  0  0  0  0
   11.2925    8.6408   21.2485 H   0  0  0  0  0  0  0  0  0  0  0  0
   10.8398   10.7480   22.3042 H   0  0  0  0  0  0  0  0  0  0  0  0
    8.0595   13.8664   25.5316 H   0  0  0  0  0  0  0  0  0  0  0  0
    8.6208    5.3761   22.2605 H   0  0  0  0  0  0  0  0  0  0  0  0
   12.7994   16.1799   19.8768 H   0  0  0  0  0  0  0  0  0  0  0  0
   11.2002   16.8182   20.2132 H   0  0  0  0  0  0  0  0  0  0  0  0
   10.8383   15.3181   18.4878 H   0  0  0  0  0  0  0  0  0  0  0  0
   11.9957   14.1202   19.0525 H   0  0  0  0  0  0  0  0  0  0  0  0
   12.8125   16.2163   22.1937 H   0  0  0  0  0  0  0  0  0  0  0  0
   11.0963   15.8786   22.3153 H   0  0  0  0  0  0  0  0  0  0  0  0
    9.3618   14.6994   20.5467 H   0  0  0  0  0  0  0  0  0  0  0  0
    9.4569   13.5997   19.1899 H   0  0  0  0  0  0  0  0  0  0  0  0
   12.9110   13.7005   21.3007 H   0  0  0  0  0  0  0  0  0  0  0  0
   12.8619   13.9907   23.0308 H   0  0  0  0  0  0  0  0  0  0  0  0
    9.6590   12.2420   21.1264 H   0  0  0  0  0  0  0  0  0  0  0  0
   11.2477   12.3128   20.3727 H   0  0  0  0  0  0  0  0  0  0  0  0
    5.3011   11.0657   27.8220 H   0  0  0  0  0  0  0  0  0  0  0  0
    4.0673    9.9673   27.1899 H   0  0  0  0  0  0  0  0  0  0  0  0
    4.3485   11.5306   26.4052 H   0  0  0  0  0  0  0  0  0  0  0  0
    7.0677    9.0848   27.5260 H   0  0  0  0  0  0  0  0  0  0  0  0
    7.2064    8.3229   25.9327 H   0  0  0  0  0  0  0  0  0  0  0  0
    5.7611    8.0588   26.9173 H   0  0  0  0  0  0  0  0  0  0  0  0
    5.3273    9.6844   25.0881 H   0  0  0  0  0  0  0  0  0  0  0  0
  1  2  1  0  0  0  0
  1  5  2  0  0  0  0
  2  9  2  0  0  0  0
  3  7  1  0  0  0  0
  3  8  2  0  0  0  0
  4  6  1  0  0  0  0
  4 21  2  0  0  0  0
  5 26  1  0  0  0  0
  6  7  2  0  0  0  0
  6 10  1  0  0  0  0
  7 11  1  0  0  0  0
  8  9  1  0  0  0  0
  8 22  1  0  0  0  0
  9 26  1  0  0  0  0
 10 22  2  0  0  0  0
 10 23  1  0  0  0  0
 11 24  1  0  0  0  0
 11 25  2  0  0  0  0
 12 13  1  0  0  0  0
 12 14  1  0  0  0  0
 13 15  1  0  0  0  0
 14 16  1  0  0  0  0
 15 17  1  0  0  0  0
 16 24  1  0  0  0  0
 17 24  1  0  0  0  0
 18 20  1  0  0  0  0
 19 20  1  0  0  0  0
 20 23  1  0  0  0  0
 21 23  1  0  0  0  0
  1 27  1  0  0  0  0
  2 28  1  0  0  0  0
  3 29  1  0  0  0  0
  4 30  1  0  0  0  0
  5 31  1  0  0  0  0
 12 32  1  0  0  0  0
 12 33  1  0  0  0  0
 13 34  1  0  0  0  0
 13 35  1  0  0  0  0
 14 36  1  0  0  0  0
 14 37  1  0  0  0  0
 15 38  1  0  0  0  0
 15 39  1  0  0  0  0
 16 40  1  0  0  0  0
 16 41  1  0  0  0  0
 17 42  1  0  0  0  0
 17 43  1  0  0  0  0
 18 44  1  0  0  0  0
 18 45  1  0  0  0  0
 18 46  1  0  0  0  0
 19 47  1  0  0  0  0
 19 48  1  0  0  0  0
 19 49  1  0  0  0  0
 20 50  1  0  0  0  0
M  END
> <Catalog ID>
Z212183766

> <PlateID>
1041831-R-13

> <Well>
F09

> <MW (desalted)>
352.430

> <ClogP>
3.395

> <HBD>
0

> <TPSA>
64.160

> <RotBonds>
3

> <ROCS_ShapeQuery>
A71EV2A-x0451_0A_A71EV2A-x0310_0A_A71EV2A-x0416_0A_peptide

> <ROCS_TanimotoCombo>
0.516 

> <ROCS_ShapeTanimoto>
0.368 

> <ROCS_ColorTanimoto>
0.148 

> <ROCS_RefTversky>
0.327 

> <ROCS_RefColorTversky>
0.172 

> <ROCS_RefTverskyCombo>
0.499 

> <ROCS_FitTversky>
1.512 

> <ROCS_FitColorTversky>
0.518 

> <ROCS_FitTverskyCombo>
2.030 

> <ROCS_ColorScore>
-5.261

> <ROCS_Overlap>
2273.817

> <ROCS_Rank>
422                 

$$$$
untitled-dbase-195_15
  -OEChem-11132311063D

 43 45  0     0  0  0  0  0  0999 V2000
    5.4218   13.3307   27.9364 C   0  0  0  0  0  0  0  0  0  0  0  0
    5.4179   14.3333   26.9355 C   0  0  0  0  0  0  0  0  0  0  0  0
    7.3312   10.4300   25.5021 C   0  0  0  0  0  0  0  0  0  0  0  0
    8.1313    9.6237   24.6927 C   0  0  0  0  0  0  0  0  0  0  0  0
    8.3151   12.4015   24.5110 C   0  0  0  0  0  0  0  0  0  0  0  0
    6.1783   12.2810   27.4641 C   0  0  0  0  0  0  0  0  0  0  0  0
    6.1719   13.8657   25.8818 C   0  0  0  0  0  0  0  0  0  0  0  0
    7.4230   11.8189   25.4113 C   0  0  0  0  0  0  0  0  0  0  0  0
    9.1153   11.5952   23.7015 C   0  0  0  0  0  0  0  0  0  0  0  0
   12.3208   14.7299   21.4844 C   0  0  0  0  0  0  0  0  0  0  0  0
    9.0234   10.2063   23.7924 C   0  0  0  0  0  0  0  0  0  0  0  0
   13.1342   14.9566   20.3580 C   0  0  0  0  0  0  0  0  0  0  0  0
   12.5083   15.8392   22.2722 C   0  0  0  0  0  0  0  0  0  0  0  0
   10.6828   13.4194   22.9052 C   0  0  0  0  0  0  0  0  0  0  0  0
   13.3189   14.0832   19.1852 C   0  0  0  0  0  0  0  0  0  0  0  0
   13.9010   17.9145   22.0192 C   0  0  0  0  0  0  0  0  0  0  0  0
   10.7842   16.9511   23.4752 C   0  0  0  0  0  0  0  0  0  0  0  0
   13.7896   16.1187   20.4208 N   0  0  0  0  0  0  0  0  0  0  0  0
    6.6288   12.6171   26.2142 N   0  0  0  0  0  0  0  0  0  0  0  0
   13.3881   16.6322   21.5960 N   0  0  0  0  0  0  0  0  0  0  0  0
   10.0067   12.1794   22.8009 N   0  0  0  0  0  0  0  0  0  0  0  0
   11.4874   13.6234   21.7728 N   0  0  0  0  0  0  0  0  0  0  0  0
   10.5762   14.1959   23.8491 O   0  0  0  0  0  0  0  0  0  0  0  0
   12.0112   16.1914   23.4494 O   0  0  0  0  0  0  0  0  0  0  0  0
    9.7882    9.4213   23.0203 F   0  0  0  0  0  0  0  0  0  0  0  0
    4.9272   13.3686   28.8968 H   0  0  0  0  0  0  0  0  0  0  0  0
    4.9196   15.2918   26.9768 H   0  0  0  0  0  0  0  0  0  0  0  0
    6.6401    9.9633   26.1998 H   0  0  0  0  0  0  0  0  0  0  0  0
    8.0593    8.5424   24.7632 H   0  0  0  0  0  0  0  0  0  0  0  0
    8.3876   13.4850   24.4384 H   0  0  0  0  0  0  0  0  0  0  0  0
    6.4259   11.3288   27.9155 H   0  0  0  0  0  0  0  0  0  0  0  0
    6.4156   14.3210   24.9307 H   0  0  0  0  0  0  0  0  0  0  0  0
   12.5846   14.3147   18.3952 H   0  0  0  0  0  0  0  0  0  0  0  0
   14.3261   14.1859   18.7445 H   0  0  0  0  0  0  0  0  0  0  0  0
   13.2078   13.0146   19.4408 H   0  0  0  0  0  0  0  0  0  0  0  0
   14.8143   17.7394   22.5939 H   0  0  0  0  0  0  0  0  0  0  0  0
   14.1144   18.5293   21.1403 H   0  0  0  0  0  0  0  0  0  0  0  0
   13.1509   18.4183   22.6352 H   0  0  0  0  0  0  0  0  0  0  0  0
   10.5071   17.1619   24.5110 H   0  0  0  0  0  0  0  0  0  0  0  0
    9.9916   16.3815   22.9834 H   0  0  0  0  0  0  0  0  0  0  0  0
   10.9378   17.8926   22.9427 H   0  0  0  0  0  0  0  0  0  0  0  0
   10.1977   11.6391   21.9506 H   0  0  0  0  0  0  0  0  0  0  0  0
   11.4737   12.8895   21.0690 H   0  0  0  0  0  0  0  0  0  0  0  0
  1  2  1  0  0  0  0
  1  6  2  0  0  0  0
  2  7  2  0  0  0  0
  3  4  1  0  0  0  0
  3  8  2  0  0  0  0
  4 11  2  0  0  0  0
  5  8  1  0  0  0  0
  5  9  2  0  0  0  0
  6 19  1  0  0  0  0
  7 19  1  0  0  0  0
  8 19  1  0  0  0  0
  9 11  1  0  0  0  0
  9 21  1  0  0  0  0
 10 12  1  0  0  0  0
 10 13  2  0  0  0  0
 10 22  1  0  0  0  0
 11 25  1  0  0  0  0
 12 15  1  0  0  0  0
 12 18  2  0  0  0  0
 13 20  1  0  0  0  0
 13 24  1  0  0  0  0
 14 21  1  0  0  0  0
 14 22  1  0  0  0  0
 14 23  2  0  0  0  0
 16 20  1  0  0  0  0
 17 24  1  0  0  0  0
 18 20  1  0  0  0  0
  1 26  1  0  0  0  0
  2 27  1  0  0  0  0
  3 28  1  0  0  0  0
  4 29  1  0  0  0  0
  5 30  1  0  0  0  0
  6 31  1  0  0  0  0
  7 32  1  0  0  0  0
 15 33  1  0  0  0  0
 15 34  1  0  0  0  0
 15 35  1  0  0  0  0
 16 36  1  0  0  0  0
 16 37  1  0  0  0  0
 16 38  1  0  0  0  0
 17 39  1  0  0  0  0
 17 40  1  0  0  0  0
 17 41  1  0  0  0  0
 21 42  1  0  0  0  0
 22 43  1  0  0  0  0
M  END
> <Catalog ID>
Z1393622262

> <PlateID>
1041831-R-03

> <Well>
D06

> <MW (desalted)>
343.356

> <ClogP>
2.184

> <HBD>
2

> <TPSA>
73.110

> <RotBonds>
4

> <ROCS_ShapeQuery>
A71EV2A-x0451_0A_A71EV2A-x0310_0A_A71EV2A-x0416_0A_peptide

> <ROCS_TanimotoCombo>
0.516 

> <ROCS_ShapeTanimoto>
0.353 

> <ROCS_ColorTanimoto>
0.163 

> <ROCS_RefTversky>
0.316 

> <ROCS_RefColorTversky>
0.182 

> <ROCS_RefTverskyCombo>
0.498 

> <ROCS_FitTversky>
1.496 

> <ROCS_FitColorTversky>
0.605 

> <ROCS_FitTverskyCombo>
2.101 

> <ROCS_ColorScore>
-5.562

> <ROCS_Overlap>
2197.365

> <ROCS_Rank>
423                 

$$$$
untitled-dbase-2296_1840
  -OEChem-11132311063D

 52 55  0     1  0  0  0  0  0999 V2000
    9.3224    9.8118   23.4141 C   0  0  0  0  0  0  0  0  0  0  0  0
   10.0470   10.9640   23.1092 C   0  0  0  0  0  0  0  0  0  0  0  0
    8.1564    9.9019   24.1744 C   0  0  0  0  0  0  0  0  0  0  0  0
    8.4397   12.2965   24.3250 C   0  0  0  0  0  0  0  0  0  0  0  0
    6.0043   12.7551   28.3523 C   0  0  0  0  0  0  0  0  0  0  0  0
    9.6057   12.2063   23.5647 C   0  0  0  0  0  0  0  0  0  0  0  0
    7.7151   11.1442   24.6299 C   0  0  0  0  0  0  0  0  0  0  0  0
    5.4769   12.4182   27.1233 C   0  0  0  0  0  0  0  0  0  0  0  0
    3.7481   11.9116   28.3740 C   0  0  0  0  0  0  0  0  0  0  0  0
   10.3673   13.4186   23.2440 C   0  0  0  0  0  0  0  0  0  0  0  0
   12.7762   16.4677   19.3589 C   0  0  0  0  0  0  0  0  0  0  0  0
   12.2204   16.9905   20.6789 C   0  0  0  0  0  0  0  0  0  0  0  0
   10.1182   12.7699   19.6588 C   0  0  0  0  0  0  0  0  0  0  0  0
   13.2762   15.0309   19.4882 C   0  0  0  0  0  0  0  0  0  0  0  0
   11.1367   13.7253   19.0452 C   0  0  0  0  0  0  0  0  0  0  0  0
   11.1300   16.0778   21.2312 C   0  0  0  0  0  0  0  0  0  0  0  0
    9.5170   13.3479   20.9330 C   0  0  0  0  0  0  0  0  0  0  0  0
   12.2272   14.0719   20.0704 C   0  0  2  0  0  0  0  0  0  0  0  0
   11.6259   14.6285   21.3790 C   0  0  2  0  0  0  0  0  0  0  0  0
    2.4019   11.4527   28.7803 C   0  0  0  0  0  0  0  0  0  0  0  0
    6.1839   12.5338   25.8048 C   0  0  0  0  0  0  0  0  0  0  0  0
    4.1834   11.9339   27.1338 N   0  0  0  0  0  0  0  0  0  0  0  0
   10.5484   13.7497   21.8941 N   0  0  0  0  0  0  0  0  0  0  0  0
   10.7883   14.0605   24.2053 O   0  0  0  0  0  0  0  0  0  0  0  0
    6.5775   11.2325   25.3717 O   0  0  0  0  0  0  0  0  0  0  0  0
    4.8416   12.4595   29.5778 S   0  0  0  0  0  0  0  0  0  0  0  0
    9.6661    8.8446   23.0594 H   0  0  0  0  0  0  0  0  0  0  0  0
   10.9535   10.8827   22.5152 H   0  0  0  0  0  0  0  0  0  0  0  0
    7.5963    9.0008   24.4086 H   0  0  0  0  0  0  0  0  0  0  0  0
    8.0908   13.2628   24.6821 H   0  0  0  0  0  0  0  0  0  0  0  0
    6.9838   13.1486   28.5848 H   0  0  0  0  0  0  0  0  0  0  0  0
   12.0031   16.5273   18.5840 H   0  0  0  0  0  0  0  0  0  0  0  0
   13.5997   17.1115   19.0291 H   0  0  0  0  0  0  0  0  0  0  0  0
   13.0332   17.0724   21.4111 H   0  0  0  0  0  0  0  0  0  0  0  0
   11.8187   18.0000   20.5357 H   0  0  0  0  0  0  0  0  0  0  0  0
    9.3209   12.5689   18.9343 H   0  0  0  0  0  0  0  0  0  0  0  0
   10.5976   11.8085   19.8809 H   0  0  0  0  0  0  0  0  0  0  0  0
   13.6185   14.6708   18.5108 H   0  0  0  0  0  0  0  0  0  0  0  0
   14.1559   15.0269   20.1449 H   0  0  0  0  0  0  0  0  0  0  0  0
   11.5880   13.2547   18.1637 H   0  0  0  0  0  0  0  0  0  0  0  0
   10.6228   14.6272   18.6944 H   0  0  0  0  0  0  0  0  0  0  0  0
   10.8040   16.4614   22.2054 H   0  0  0  0  0  0  0  0  0  0  0  0
   10.2616   16.1263   20.5643 H   0  0  0  0  0  0  0  0  0  0  0  0
    8.9132   14.2338   20.7065 H   0  0  0  0  0  0  0  0  0  0  0  0
    8.8430   12.6120   21.3845 H   0  0  0  0  0  0  0  0  0  0  0  0
   12.7493   13.1353   20.3140 H   0  0  0  0  0  0  0  0  0  0  0  0
   12.4397   14.6437   22.1135 H   0  0  0  0  0  0  0  0  0  0  0  0
    2.4024   10.3731   28.9975 H   0  0  0  0  0  0  0  0  0  0  0  0
    2.0432   11.9781   29.6805 H   0  0  0  0  0  0  0  0  0  0  0  0
    1.6503   11.6391   27.9958 H   0  0  0  0  0  0  0  0  0  0  0  0
    5.5302   12.9797   25.0475 H   0  0  0  0  0  0  0  0  0  0  0  0
    7.0734   13.1663   25.8960 H   0  0  0  0  0  0  0  0  0  0  0  0
  1  2  2  0  0  0  0
  1  3  1  0  0  0  0
  2  6  1  0  0  0  0
  3  7  2  0  0  0  0
  4  6  2  0  0  0  0
  4  7  1  0  0  0  0
  5  8  2  0  0  0  0
  5 26  1  0  0  0  0
  6 10  1  0  0  0  0
  7 25  1  0  0  0  0
  8 21  1  0  0  0  0
  8 22  1  0  0  0  0
  9 20  1  0  0  0  0
  9 22  2  0  0  0  0
  9 26  1  0  0  0  0
 10 23  1  0  0  0  0
 10 24  2  0  0  0  0
 11 12  1  0  0  0  0
 11 14  1  0  0  0  0
 12 16  1  0  0  0  0
 13 15  1  0  0  0  0
 13 17  1  0  0  0  0
 14 18  1  0  0  0  0
 15 18  1  0  0  0  0
 16 19  1  0  0  0  0
 17 23  1  0  0  0  0
 18 19  1  0  0  0  0
 19 23  1  0  0  0  0
 21 25  1  0  0  0  0
  1 27  1  0  0  0  0
  2 28  1  0  0  0  0
  3 29  1  0  0  0  0
  4 30  1  0  0  0  0
  5 31  1  0  0  0  0
 11 32  1  0  0  0  0
 11 33  1  0  0  0  0
 12 34  1  0  0  0  0
 12 35  1  0  0  0  0
 13 36  1  0  0  0  0
 13 37  1  0  0  0  0
 14 38  1  0  0  0  0
 14 39  1  0  0  0  0
 15 40  1  0  0  0  0
 15 41  1  0  0  0  0
 16 42  1  0  0  0  0
 16 43  1  0  0  0  0
 17 44  1  0  0  0  0
 17 45  1  0  0  0  0
 18 46  1  0  0  0  0
 19 47  1  0  0  0  0
 20 48  1  0  0  0  0
 20 49  1  0  0  0  0
 20 50  1  0  0  0  0
 21 51  1  0  0  0  0
 21 52  1  0  0  0  0
M  END
> <Catalog ID>
Z166753528

> <PlateID>
1041831-R-29

> <Well>
F07

> <MW (desalted)>
370.508

> <ClogP>
4.063

> <HBD>
0

> <TPSA>
42.430

> <RotBonds>
4

> <ROCS_ShapeQuery>
A71EV2A-x0451_0A_A71EV2A-x0310_0A_A71EV2A-x0416_0A_peptide

> <ROCS_TanimotoCombo>
0.516 

> <ROCS_ShapeTanimoto>
0.335 

> <ROCS_ColorTanimoto>
0.181 

> <ROCS_RefTversky>
0.303 

> <ROCS_RefColorTversky>
0.195 

> <ROCS_RefTverskyCombo>
0.498 

> <ROCS_FitTversky>
1.450 

> <ROCS_FitColorTversky>
0.719 

> <ROCS_FitTverskyCombo>
2.169 

> <ROCS_ColorScore>
-5.929

> <ROCS_Overlap>
2110.104

> <ROCS_Rank>
424                 

$$$$
untitled-dbase-1851_8705
  -OEChem-11132311063D

 43 45  0     1  0  0  0  0  0999 V2000
    4.6435   11.3664   27.7342 C   0  0  0  0  0  0  0  0  0  0  0  0
    4.6069   12.7189   28.0546 C   0  0  0  0  0  0  0  0  0  0  0  0
   11.7941   15.1342   19.8686 C   0  0  0  0  0  0  0  0  0  0  0  0
   12.0354   15.6528   18.5965 C   0  0  0  0  0  0  0  0  0  0  0  0
    5.5528   10.9060   26.7884 C   0  0  0  0  0  0  0  0  0  0  0  0
   13.9229   15.9926   20.6224 C   0  0  0  0  0  0  0  0  0  0  0  0
    5.4936   13.5633   27.4059 C   0  0  0  0  0  0  0  0  0  0  0  0
    8.7224   10.1666   23.6680 C   0  0  0  0  0  0  0  0  0  0  0  0
   12.7379   15.3041   20.8817 C   0  0  0  0  0  0  0  0  0  0  0  0
   13.2205   16.3413   18.3373 C   0  0  0  0  0  0  0  0  0  0  0  0
   14.1643   16.5112   19.3503 C   0  0  0  0  0  0  0  0  0  0  0  0
    6.3970   11.8316   26.1963 C   0  0  0  0  0  0  0  0  0  0  0  0
    8.9784   11.5209   23.7183 C   0  0  0  0  0  0  0  0  0  0  0  0
    7.3683   11.4342   25.2050 C   0  0  0  0  0  0  0  0  0  0  0  0
   10.7064   13.3023   23.2482 C   0  0  0  0  0  0  0  0  0  0  0  0
   13.7631   14.3640   22.9929 C   0  0  0  0  0  0  0  0  0  0  0  0
   14.1254   15.9974   16.1650 C   0  0  0  0  0  0  0  0  0  0  0  0
   12.4799   14.7475   22.2407 C   0  0  2  0  0  0  0  0  0  0  0  0
    6.3909   13.1530   26.4818 N   0  0  0  0  0  0  0  0  0  0  0  0
    8.2026   12.2494   24.5988 N   0  0  0  0  0  0  0  0  0  0  0  0
    9.9648   12.1606   22.9320 N   0  0  0  0  0  0  0  0  0  0  0  0
   11.5763   13.6099   22.2033 N   0  0  0  0  0  0  0  0  0  0  0  0
   10.6306   13.9619   24.2820 O   0  0  0  0  0  0  0  0  0  0  0  0
   13.4549   16.8463   17.0953 O   0  0  0  0  0  0  0  0  0  0  0  0
   15.3048   17.1714   19.1072 F   0  0  0  0  0  0  0  0  0  0  0  0
    7.4625    9.7781   24.7648 S   0  0  0  0  0  0  0  0  0  0  0  0
    3.9648   10.6725   28.2208 H   0  0  0  0  0  0  0  0  0  0  0  0
    3.9072   13.1001   28.7894 H   0  0  0  0  0  0  0  0  0  0  0  0
   10.8685   14.5980   20.0612 H   0  0  0  0  0  0  0  0  0  0  0  0
   11.2966   15.5183   17.8111 H   0  0  0  0  0  0  0  0  0  0  0  0
    5.5886    9.8520   26.5324 H   0  0  0  0  0  0  0  0  0  0  0  0
   14.6644   16.1287   21.4052 H   0  0  0  0  0  0  0  0  0  0  0  0
    5.5064   14.6266   27.6213 H   0  0  0  0  0  0  0  0  0  0  0  0
    9.1966    9.4070   23.0619 H   0  0  0  0  0  0  0  0  0  0  0  0
   14.3363   13.6220   22.4264 H   0  0  0  0  0  0  0  0  0  0  0  0
   14.4050   15.2372   23.1551 H   0  0  0  0  0  0  0  0  0  0  0  0
   13.5422   13.9395   23.9787 H   0  0  0  0  0  0  0  0  0  0  0  0
   14.2488   16.5226   15.2147 H   0  0  0  0  0  0  0  0  0  0  0  0
   13.5418   15.0854   16.0165 H   0  0  0  0  0  0  0  0  0  0  0  0
   15.1082   15.7375   16.5654 H   0  0  0  0  0  0  0  0  0  0  0  0
   11.9567   15.4929   22.8657 H   0  0  0  0  0  0  0  0  0  0  0  0
   10.1541   11.7341   22.0284 H   0  0  0  0  0  0  0  0  0  0  0  0
   11.5788   13.0164   21.3846 H   0  0  0  0  0  0  0  0  0  0  0  0
  1  2  2  0  0  0  0
  1  5  1  0  0  0  0
  2  7  1  0  0  0  0
  3  4  1  0  0  0  0
  3  9  2  0  0  0  0
  4 10  2  0  0  0  0
  5 12  2  0  0  0  0
  6  9  1  0  0  0  0
  6 11  2  0  0  0  0
  7 19  2  0  0  0  0
  8 13  2  0  0  0  0
  8 26  1  0  0  0  0
  9 18  1  0  0  0  0
 10 11  1  0  0  0  0
 10 24  1  0  0  0  0
 11 25  1  0  0  0  0
 12 14  1  0  0  0  0
 12 19  1  0  0  0  0
 13 20  1  0  0  0  0
 13 21  1  0  0  0  0
 14 20  2  0  0  0  0
 14 26  1  0  0  0  0
 15 21  1  0  0  0  0
 15 22  1  0  0  0  0
 15 23  2  0  0  0  0
 16 18  1  0  0  0  0
 17 24  1  0  0  0  0
 18 22  1  0  0  0  0
  1 27  1  0  0  0  0
  2 28  1  0  0  0  0
  3 29  1  0  0  0  0
  4 30  1  0  0  0  0
  5 31  1  0  0  0  0
  6 32  1  0  0  0  0
  7 33  1  0  0  0  0
  8 34  1  0  0  0  0
 16 35  1  0  0  0  0
 16 36  1  0  0  0  0
 16 37  1  0  0  0  0
 17 38  1  0  0  0  0
 17 39  1  0  0  0  0
 17 40  1  0  0  0  0
 18 41  1  0  0  0  0
 21 42  1  0  0  0  0
 22 43  1  0  0  0  0
M  END
> <Catalog ID>
Z1622858065

> <PlateID>
1041831-R-24

> <Well>
B02

> <MW (desalted)>
372.417

> <ClogP>
3.493

> <HBD>
2

> <TPSA>
76.140

> <RotBonds>
5

> <ROCS_ShapeQuery>
A71EV2A-x0451_0A_A71EV2A-x0310_0A_A71EV2A-x0416_0A_peptide

> <ROCS_TanimotoCombo>
0.516 

> <ROCS_ShapeTanimoto>
0.335 

> <ROCS_ColorTanimoto>
0.181 

> <ROCS_RefTversky>
0.304 

> <ROCS_RefColorTversky>
0.204 

> <ROCS_RefTverskyCombo>
0.508 

> <ROCS_FitTversky>
1.435 

> <ROCS_FitColorTversky>
0.615 

> <ROCS_FitTverskyCombo>
2.050 

> <ROCS_ColorScore>
-6.241

> <ROCS_Overlap>
2113.567

> <ROCS_Rank>
425                 

$$$$
untitled-dbase-17_45
  -OEChem-11132311063D

 55 59  0     1  0  0  0  0  0999 V2000
   14.0776   16.8632   18.1127 C   0  0  0  0  0  0  0  0  0  0  0  0
   12.6943   16.8218   17.9644 C   0  0  0  0  0  0  0  0  0  0  0  0
    6.4449   13.1699   25.4168 C   0  0  0  0  0  0  0  0  0  0  0  0
    5.9682   11.9742   25.9384 C   0  0  0  0  0  0  0  0  0  0  0  0
   14.6815   16.2135   19.1883 C   0  0  0  0  0  0  0  0  0  0  0  0
   11.9156   16.1267   18.8893 C   0  0  0  0  0  0  0  0  0  0  0  0
    7.5432   13.1691   24.5511 C   0  0  0  0  0  0  0  0  0  0  0  0
    6.5841   10.7790   25.5861 C   0  0  0  0  0  0  0  0  0  0  0  0
   13.9045   15.5243   20.1306 C   0  0  0  0  0  0  0  0  0  0  0  0
   12.5121   15.4678   19.9751 C   0  0  0  0  0  0  0  0  0  0  0  0
    8.1986   11.9787   24.1788 C   0  0  0  0  0  0  0  0  0  0  0  0
    7.6757   10.7815   24.7084 C   0  0  0  0  0  0  0  0  0  0  0  0
   11.7269   13.0608   22.8423 C   0  0  0  0  0  0  0  0  0  0  0  0
   13.3855   15.8163   23.2530 C   0  0  0  0  0  0  0  0  0  0  0  0
   14.5732   14.8070   21.2713 C   0  0  0  0  0  0  0  0  0  0  0  0
   11.6351   14.7238   20.9475 C   0  0  0  0  0  0  0  0  0  0  0  0
    9.3620   12.6651   21.9327 C   0  0  0  0  0  0  0  0  0  0  0  0
   10.1130   10.5861   23.2921 C   0  0  0  0  0  0  0  0  0  0  0  0
   10.2715   13.1721   23.0184 C   0  0  1  0  0  0  0  0  0  0  0  0
   13.6414   14.5688   22.4556 C   0  0  2  0  0  0  0  0  0  0  0  0
    9.4156   11.9317   23.2580 C   0  0  2  0  0  0  0  0  0  0  0  0
    9.0874    9.4409   23.3060 C   0  0  0  0  0  0  0  0  0  0  0  0
    9.8400    8.1140   23.4932 C   0  0  0  0  0  0  0  0  0  0  0  0
    8.2685    9.3519   22.0088 C   0  0  0  0  0  0  0  0  0  0  0  0
   12.3350   14.0454   22.0509 N   0  0  0  0  0  0  0  0  0  0  0  0
   14.5252   16.3919   23.7631 N   0  0  0  0  0  0  0  0  0  0  0  0
   12.3312   12.1282   23.3775 O   0  0  0  0  0  0  0  0  0  0  0  0
   12.2551   16.2718   23.4078 O   0  0  0  0  0  0  0  0  0  0  0  0
    8.1980    9.5407   24.4324 O   0  0  0  0  0  0  0  0  0  0  0  0
   14.6863   17.3990   17.3904 H   0  0  0  0  0  0  0  0  0  0  0  0
   12.2217   17.3269   17.1272 H   0  0  0  0  0  0  0  0  0  0  0  0
    5.9664   14.1081   25.6826 H   0  0  0  0  0  0  0  0  0  0  0  0
    5.1183   11.9726   26.6138 H   0  0  0  0  0  0  0  0  0  0  0  0
   15.7633   16.2486   19.2899 H   0  0  0  0  0  0  0  0  0  0  0  0
   10.8365   16.0981   18.7586 H   0  0  0  0  0  0  0  0  0  0  0  0
    7.8795   14.1283   24.1659 H   0  0  0  0  0  0  0  0  0  0  0  0
    6.2069    9.8434   25.9912 H   0  0  0  0  0  0  0  0  0  0  0  0
   14.9406   13.8434   20.8968 H   0  0  0  0  0  0  0  0  0  0  0  0
   15.4423   15.3872   21.6062 H   0  0  0  0  0  0  0  0  0  0  0  0
   10.9342   15.4295   21.4099 H   0  0  0  0  0  0  0  0  0  0  0  0
   11.0544   13.9783   20.3936 H   0  0  0  0  0  0  0  0  0  0  0  0
    8.4859   13.2578   21.6945 H   0  0  0  0  0  0  0  0  0  0  0  0
    9.8063   12.1942   21.0627 H   0  0  0  0  0  0  0  0  0  0  0  0
   10.7993   10.4662   22.4444 H   0  0  0  0  0  0  0  0  0  0  0  0
   10.7180   10.5495   24.2084 H   0  0  0  0  0  0  0  0  0  0  0  0
    9.9617   14.1010   23.4939 H   0  0  0  0  0  0  0  0  0  0  0  0
   14.1240   13.8664   23.1451 H   0  0  0  0  0  0  0  0  0  0  0  0
    9.1275    7.2951   23.5051 H   0  0  0  0  0  0  0  0  0  0  0  0
   10.3827    8.1380   24.4331 H   0  0  0  0  0  0  0  0  0  0  0  0
   10.5379    7.9777   22.6730 H   0  0  0  0  0  0  0  0  0  0  0  0
    7.5663    8.5272   22.0825 H   0  0  0  0  0  0  0  0  0  0  0  0
    8.9387    9.1854   21.1711 H   0  0  0  0  0  0  0  0  0  0  0  0
    7.7255   10.2804   21.8618 H   0  0  0  0  0  0  0  0  0  0  0  0
   14.4379   17.2392   24.3146 H   0  0  0  0  0  0  0  0  0  0  0  0
   15.4502   16.0033   23.6103 H   0  0  0  0  0  0  0  0  0  0  0  0
  1  2  2  0  0  0  0
  1  5  1  0  0  0  0
  2  6  1  0  0  0  0
  3  4  2  0  0  0  0
  3  7  1  0  0  0  0
  4  8  1  0  0  0  0
  5  9  2  0  0  0  0
  6 10  2  0  0  0  0
  7 11  2  0  0  0  0
  8 12  2  0  0  0  0
  9 10  1  0  0  0  0
  9 15  1  0  0  0  0
 10 16  1  0  0  0  0
 11 12  1  0  0  0  0
 11 21  1  0  0  0  0
 12 29  1  0  0  0  0
 13 19  1  6  0  0  0
 13 25  1  0  0  0  0
 13 27  2  0  0  0  0
 14 20  1  1  0  0  0
 14 26  1  0  0  0  0
 14 28  2  0  0  0  0
 15 20  1  0  0  0  0
 16 25  1  0  0  0  0
 17 19  1  0  0  0  0
 17 21  1  1  0  0  0
 18 21  1  0  0  0  0
 18 22  1  0  0  0  0
 19 21  1  0  0  0  0
 20 25  1  0  0  0  0
 22 23  1  0  0  0  0
 22 24  1  0  0  0  0
 22 29  1  0  0  0  0
  1 30  1  0  0  0  0
  2 31  1  0  0  0  0
  3 32  1  0  0  0  0
  4 33  1  0  0  0  0
  5 34  1  0  0  0  0
  6 35  1  0  0  0  0
  7 36  1  0  0  0  0
  8 37  1  0  0  0  0
 15 38  1  0  0  0  0
 15 39  1  0  0  0  0
 16 40  1  0  0  0  0
 16 41  1  0  0  0  0
 17 42  1  0  0  0  0
 17 43  1  0  0  0  0
 18 44  1  0  0  0  0
 18 45  1  0  0  0  0
 19 46  1  0  0  0  0
 20 47  1  0  0  0  0
 23 48  1  0  0  0  0
 23 49  1  0  0  0  0
 23 50  1  0  0  0  0
 24 51  1  0  0  0  0
 24 52  1  0  0  0  0
 24 53  1  0  0  0  0
 26 54  1  0  0  0  0
 26 55  1  0  0  0  0
M  END
> <Catalog ID>
Z1849182103

> <PlateID>
1041831-R-01

> <Well>
B08

> <MW (desalted)>
390.475

> <ClogP>
2.857

> <HBD>
1

> <TPSA>
72.630

> <RotBonds>
2

> <ROCS_ShapeQuery>
A71EV2A-x0451_0A_A71EV2A-x0310_0A_A71EV2A-x0416_0A_peptide

> <ROCS_TanimotoCombo>
0.516 

> <ROCS_ShapeTanimoto>
0.385 

> <ROCS_ColorTanimoto>
0.130 

> <ROCS_RefTversky>
0.343 

> <ROCS_RefColorTversky>
0.154 

> <ROCS_RefTverskyCombo>
0.497 

> <ROCS_FitTversky>
1.465 

> <ROCS_FitColorTversky>
0.463 

> <ROCS_FitTverskyCombo>
1.928 

> <ROCS_ColorScore>
-4.694

> <ROCS_Overlap>
2391.108

> <ROCS_Rank>
426                 

$$$$
untitled-dbase-1575_7779
  -OEChem-11132311063D

 54 57  0     1  0  0  0  0  0999 V2000
    4.9227   11.0526   27.6680 C   0  0  0  0  0  0  0  0  0  0  0  0
    5.2780   12.2936   28.1928 C   0  0  0  0  0  0  0  0  0  0  0  0
    5.4106   10.6344   26.4246 C   0  0  0  0  0  0  0  0  0  0  0  0
    6.1297   13.1544   27.4946 C   0  0  0  0  0  0  0  0  0  0  0  0
    7.6512   12.5506   24.2640 C   0  0  0  0  0  0  0  0  0  0  0  0
    6.2706   11.4853   25.7023 C   0  0  0  0  0  0  0  0  0  0  0  0
    6.9352   11.3902   24.4476 C   0  0  0  0  0  0  0  0  0  0  0  0
    6.6097   12.7231   26.2528 C   0  0  0  0  0  0  0  0  0  0  0  0
    9.1981   10.7356   22.6688 C   0  0  0  0  0  0  0  0  0  0  0  0
   10.1318    9.9336   24.5830 C   0  0  0  0  0  0  0  0  0  0  0  0
   10.8741   13.1583   23.3749 C   0  0  0  0  0  0  0  0  0  0  0  0
   13.1530   16.1217   21.5735 C   0  0  0  0  0  0  0  0  0  0  0  0
   11.8011   15.3839   19.5700 C   0  0  0  0  0  0  0  0  0  0  0  0
   11.8849   16.1399   22.4277 C   0  0  0  0  0  0  0  0  0  0  0  0
   10.5318   15.3879   20.4232 C   0  0  0  0  0  0  0  0  0  0  0  0
    8.2450    9.6661   23.1833 C   0  0  2  0  0  0  0  0  0  0  0  0
   12.8429   16.3804   20.0938 C   0  0  0  0  0  0  0  0  0  0  0  0
   10.8146   15.1742   21.9130 C   0  0  0  0  0  0  0  0  0  0  0  0
   14.1190   16.3160   19.2567 C   0  0  0  0  0  0  0  0  0  0  0  0
    6.8724   10.2319   23.4831 C   0  0  0  0  0  0  0  0  0  0  0  0
   11.3786   11.7378   23.3737 C   0  0  0  0  0  0  0  0  0  0  0  0
    7.4488   13.3482   25.3582 N   0  0  0  0  0  0  0  0  0  0  0  0
    8.9351    9.2454   24.3762 N   0  0  0  0  0  0  0  0  0  0  0  0
   10.2480   10.8127   23.5392 N   0  0  0  0  0  0  0  0  0  0  0  0
   11.1810   13.8033   22.1866 N   0  0  0  0  0  0  0  0  0  0  0  0
    9.0107   11.3882   21.6503 O   0  0  0  0  0  0  0  0  0  0  0  0
   10.9010    9.7570   25.5189 O   0  0  0  0  0  0  0  0  0  0  0  0
   10.2681   13.6594   24.3183 O   0  0  0  0  0  0  0  0  0  0  0  0
    4.2594   10.4006   28.2299 H   0  0  0  0  0  0  0  0  0  0  0  0
    4.8874   12.5983   29.1604 H   0  0  0  0  0  0  0  0  0  0  0  0
    5.1249    9.6637   26.0295 H   0  0  0  0  0  0  0  0  0  0  0  0
    6.4049   14.1207   27.9034 H   0  0  0  0  0  0  0  0  0  0  0  0
    8.2877   12.8805   23.4544 H   0  0  0  0  0  0  0  0  0  0  0  0
   13.8467   16.8850   21.9465 H   0  0  0  0  0  0  0  0  0  0  0  0
   13.6585   15.1546   21.6883 H   0  0  0  0  0  0  0  0  0  0  0  0
   12.2256   14.3721   19.5546 H   0  0  0  0  0  0  0  0  0  0  0  0
   11.5381   15.6301   18.5341 H   0  0  0  0  0  0  0  0  0  0  0  0
   12.1364   15.9141   23.4710 H   0  0  0  0  0  0  0  0  0  0  0  0
   11.4722   17.1572   22.4245 H   0  0  0  0  0  0  0  0  0  0  0  0
   10.0287   16.3555   20.2979 H   0  0  0  0  0  0  0  0  0  0  0  0
    9.8320   14.6291   20.0521 H   0  0  0  0  0  0  0  0  0  0  0  0
    8.2085    8.8257   22.4845 H   0  0  0  0  0  0  0  0  0  0  0  0
   12.4290   17.3936   20.0000 H   0  0  0  0  0  0  0  0  0  0  0  0
    9.8836   15.3454   22.4787 H   0  0  0  0  0  0  0  0  0  0  0  0
   14.5568   15.3218   19.3274 H   0  0  0  0  0  0  0  0  0  0  0  0
   14.8367   17.0487   19.6215 H   0  0  0  0  0  0  0  0  0  0  0  0
   13.8877   16.5309   18.2147 H   0  0  0  0  0  0  0  0  0  0  0  0
    6.2237    9.4474   23.8970 H   0  0  0  0  0  0  0  0  0  0  0  0
    6.3879   10.5584   22.5522 H   0  0  0  0  0  0  0  0  0  0  0  0
   11.8813   11.5262   22.4253 H   0  0  0  0  0  0  0  0  0  0  0  0
   12.0839   11.5941   24.1974 H   0  0  0  0  0  0  0  0  0  0  0  0
    7.8560   14.2637   25.4907 H   0  0  0  0  0  0  0  0  0  0  0  0
    8.6071    8.5034   24.9866 H   0  0  0  0  0  0  0  0  0  0  0  0
   11.6876   13.2877   21.4743 H   0  0  0  0  0  0  0  0  0  0  0  0
  1  2  2  0  0  0  0
  1  3  1  0  0  0  0
  2  4  1  0  0  0  0
  3  6  2  0  0  0  0
  4  8  2  0  0  0  0
  5  7  2  0  0  0  0
  5 22  1  0  0  0  0
  6  7  1  0  0  0  0
  6  8  1  0  0  0  0
  7 20  1  0  0  0  0
  8 22  1  0  0  0  0
  9 16  1  0  0  0  0
  9 24  1  0  0  0  0
  9 26  2  0  0  0  0
 10 23  1  0  0  0  0
 10 24  1  0  0  0  0
 10 27  2  0  0  0  0
 11 21  1  0  0  0  0
 11 25  1  0  0  0  0
 11 28  2  0  0  0  0
 12 14  1  0  0  0  0
 12 17  1  0  0  0  0
 13 15  1  0  0  0  0
 13 17  1  0  0  0  0
 14 18  1  0  0  0  0
 15 18  1  0  0  0  0
 16 20  1  0  0  0  0
 16 23  1  0  0  0  0
 17 19  1  0  0  0  0
 18 25  1  0  0  0  0
 21 24  1  0  0  0  0
  1 29  1  0  0  0  0
  2 30  1  0  0  0  0
  3 31  1  0  0  0  0
  4 32  1  0  0  0  0
  5 33  1  0  0  0  0
 12 34  1  0  0  0  0
 12 35  1  0  0  0  0
 13 36  1  0  0  0  0
 13 37  1  0  0  0  0
 14 38  1  0  0  0  0
 14 39  1  0  0  0  0
 15 40  1  0  0  0  0
 15 41  1  0  0  0  0
 16 42  1  0  0  0  0
 17 43  1  0  0  0  0
 18 44  1  0  0  0  0
 19 45  1  0  0  0  0
 19 46  1  0  0  0  0
 19 47  1  0  0  0  0
 20 48  1  0  0  0  0
 20 49  1  0  0  0  0
 21 50  1  0  0  0  0
 21 51  1  0  0  0  0
 22 52  1  0  0  0  0
 23 53  1  0  0  0  0
 25 54  1  0  0  0  0
M  END
> <Catalog ID>
Z16202758

> <PlateID>
1041831-R-20

> <Well>
F06

> <MW (desalted)>
382.456

> <ClogP>
2.749

> <HBD>
3

> <TPSA>
94.300

> <RotBonds>
5

> <ROCS_ShapeQuery>
A71EV2A-x0451_0A_A71EV2A-x0310_0A_A71EV2A-x0416_0A_peptide

> <ROCS_TanimotoCombo>
0.516 

> <ROCS_ShapeTanimoto>
0.384 

> <ROCS_ColorTanimoto>
0.131 

> <ROCS_RefTversky>
0.340 

> <ROCS_RefColorTversky>
0.158 

> <ROCS_RefTverskyCombo>
0.499 

> <ROCS_FitTversky>
1.506 

> <ROCS_FitColorTversky>
0.436 

> <ROCS_FitTverskyCombo>
1.943 

> <ROCS_ColorScore>
-4.845

> <ROCS_Overlap>
2369.100

> <ROCS_Rank>
427                 

$$$$
untitled-dbase-3168_287
  -OEChem-11132311063D

 47 49  0     1  0  0  0  0  0999 V2000
    7.5318    7.9745   22.6247 C   0  0  0  0  0  0  0  0  0  0  0  0
    8.9383    7.5983   23.0964 C   0  0  0  0  0  0  0  0  0  0  0  0
    7.5582    9.4736   22.3345 C   0  0  0  0  0  0  0  0  0  0  0  0
    9.7622    8.8846   23.0673 C   0  0  0  0  0  0  0  0  0  0  0  0
    8.2718   12.6576   25.1813 C   0  0  0  0  0  0  0  0  0  0  0  0
    6.8600   12.1194   24.9722 C   0  0  0  0  0  0  0  0  0  0  0  0
    9.1930   11.6377   24.5243 C   0  0  2  0  0  0  0  0  0  0  0  0
    9.1371   11.4679   22.9825 C   0  0  2  0  0  0  0  0  0  0  0  0
    8.3684   10.3456   24.6786 C   0  0  2  0  0  0  0  0  0  0  0  0
    8.7068    9.9859   23.1984 C   0  0  0  0  0  0  0  0  0  0  0  0
    9.6764   17.0949   21.4169 C   0  0  0  0  0  0  0  0  0  0  0  0
   12.5993   12.7521   22.4297 C   0  0  0  0  0  0  0  0  0  0  0  0
    9.5634   16.7190   22.8774 C   0  0  0  0  0  0  0  0  0  0  0  0
   10.4904   14.1640   22.2937 C   0  0  0  0  0  0  0  0  0  0  0  0
   11.1228   12.8695   22.8044 C   0  0  1  0  0  0  0  0  0  0  0  0
   10.4148   11.7279   22.2405 N   0  0  0  0  0  0  0  0  0  0  0  0
   10.5446   15.1423   24.7170 O   0  0  0  0  0  0  0  0  0  0  0  0
   12.1020   16.1045   22.9791 O   0  0  0  0  0  0  0  0  0  0  0  0
    7.0015   10.6948   25.0107 O   0  0  0  0  0  0  0  0  0  0  0  0
   10.8129   15.5442   23.3468 S   0  0  0  0  0  0  0  0  0  0  0  0
    7.2186    7.3867   21.7434 H   0  0  0  0  0  0  0  0  0  0  0  0
    6.8007    7.7573   23.4266 H   0  0  0  0  0  0  0  0  0  0  0  0
    8.9265    7.1366   24.1042 H   0  0  0  0  0  0  0  0  0  0  0  0
    9.3770    6.8443   22.4098 H   0  0  0  0  0  0  0  0  0  0  0  0
    7.7663    9.6268   21.2725 H   0  0  0  0  0  0  0  0  0  0  0  0
    6.5967    9.9316   22.5658 H   0  0  0  0  0  0  0  0  0  0  0  0
   10.4244    8.8856   23.9422 H   0  0  0  0  0  0  0  0  0  0  0  0
   10.4025    8.9460   22.1851 H   0  0  0  0  0  0  0  0  0  0  0  0
    8.3943   13.6659   24.7758 H   0  0  0  0  0  0  0  0  0  0  0  0
    8.4882   12.6981   26.2557 H   0  0  0  0  0  0  0  0  0  0  0  0
    6.1706   12.4497   25.7529 H   0  0  0  0  0  0  0  0  0  0  0  0
    6.4593   12.3987   23.9933 H   0  0  0  0  0  0  0  0  0  0  0  0
   10.1942   11.5873   24.9755 H   0  0  0  0  0  0  0  0  0  0  0  0
    8.2830   12.1019   22.5158 H   0  0  0  0  0  0  0  0  0  0  0  0
    8.7606    9.6512   25.4272 H   0  0  0  0  0  0  0  0  0  0  0  0
   10.6489   17.5528   21.2138 H   0  0  0  0  0  0  0  0  0  0  0  0
    9.5711   16.2136   20.7757 H   0  0  0  0  0  0  0  0  0  0  0  0
    8.8952   17.8076   21.1334 H   0  0  0  0  0  0  0  0  0  0  0  0
   12.7448   12.7961   21.3445 H   0  0  0  0  0  0  0  0  0  0  0  0
   13.0194   11.8051   22.7877 H   0  0  0  0  0  0  0  0  0  0  0  0
   13.1880   13.5560   22.8822 H   0  0  0  0  0  0  0  0  0  0  0  0
    8.5937   16.2603   23.0896 H   0  0  0  0  0  0  0  0  0  0  0  0
    9.6885   17.5961   23.5181 H   0  0  0  0  0  0  0  0  0  0  0  0
    9.3988   14.0769   22.2534 H   0  0  0  0  0  0  0  0  0  0  0  0
   10.8497   14.4308   21.2943 H   0  0  0  0  0  0  0  0  0  0  0  0
   11.0354   12.8198   23.8958 H   0  0  0  0  0  0  0  0  0  0  0  0
   10.2026   11.9157   21.2608 H   0  0  0  0  0  0  0  0  0  0  0  0
  1  2  1  0  0  0  0
  1  3  1  0  0  0  0
  2  4  1  0  0  0  0
  3 10  1  0  0  0  0
  4 10  1  0  0  0  0
  5  6  1  0  0  0  0
  5  7  1  0  0  0  0
  6 19  1  0  0  0  0
  7  8  1  0  0  0  0
  7  9  1  0  0  0  0
  8 10  1  0  0  0  0
  8 16  1  0  0  0  0
  9 10  1  0  0  0  0
  9 19  1  0  0  0  0
 11 13  1  0  0  0  0
 12 15  1  0  0  0  0
 13 20  1  0  0  0  0
 14 15  1  0  0  0  0
 14 20  1  0  0  0  0
 15 16  1  0  0  0  0
 17 20  2  0  0  0  0
 18 20  2  0  0  0  0
  1 21  1  0  0  0  0
  1 22  1  0  0  0  0
  2 23  1  0  0  0  0
  2 24  1  0  0  0  0
  3 25  1  0  0  0  0
  3 26  1  0  0  0  0
  4 27  1  0  0  0  0
  4 28  1  0  0  0  0
  5 29  1  0  0  0  0
  5 30  1  0  0  0  0
  6 31  1  0  0  0  0
  6 32  1  0  0  0  0
  7 33  1  0  0  0  0
  8 34  1  0  0  0  0
  9 35  1  0  0  0  0
 11 36  1  0  0  0  0
 11 37  1  0  0  0  0
 11 38  1  0  0  0  0
 12 39  1  0  0  0  0
 12 40  1  0  0  0  0
 12 41  1  0  0  0  0
 13 42  1  0  0  0  0
 13 43  1  0  0  0  0
 14 44  1  0  0  0  0
 14 45  1  0  0  0  0
 15 46  1  0  0  0  0
 16 47  1  0  0  0  0
M  END
> <Catalog ID>
Z1597952193

> <PlateID>
1041831-R-40

> <Well>
E09

> <MW (desalted)>
301.445

> <ClogP>
1.490

> <HBD>
1

> <TPSA>
55.400

> <RotBonds>
5

> <ROCS_ShapeQuery>
A71EV2A-x0451_0A_A71EV2A-x0310_0A_A71EV2A-x0416_0A_peptide

> <ROCS_TanimotoCombo>
0.516 

> <ROCS_ShapeTanimoto>
0.307 

> <ROCS_ColorTanimoto>
0.209 

> <ROCS_RefTversky>
0.274 

> <ROCS_RefColorTversky>
0.243 

> <ROCS_RefTverskyCombo>
0.517 

> <ROCS_FitTversky>
1.638 

> <ROCS_FitColorTversky>
0.599 

> <ROCS_FitTverskyCombo>
2.237 

> <ROCS_ColorScore>
-7.458

> <ROCS_Overlap>
1901.338

> <ROCS_Rank>
428                 

$$$$
untitled-dbase-142_6437
  -OEChem-11132311063D

 55 59  0     0  0  0  0  0  0999 V2000
    6.7750    7.0002   22.4113 C   0  0  0  0  0  0  0  0  0  0  0  0
    9.1438    6.5810   22.1867 C   0  0  0  0  0  0  0  0  0  0  0  0
    7.0475    8.2786   22.8982 C   0  0  0  0  0  0  0  0  0  0  0  0
    9.4162    7.8594   22.6735 C   0  0  0  0  0  0  0  0  0  0  0  0
    8.5290   11.8858   24.5871 C   0  0  0  0  0  0  0  0  0  0  0  0
    7.8232    6.1514   22.0556 C   0  0  0  0  0  0  0  0  0  0  0  0
    8.3680    8.7083   23.0292 C   0  0  0  0  0  0  0  0  0  0  0  0
    9.6679   11.8283   23.7898 C   0  0  0  0  0  0  0  0  0  0  0  0
    7.9001   10.6955   24.3868 C   0  0  0  0  0  0  0  0  0  0  0  0
   10.5306   16.6844   22.3865 C   0  0  0  0  0  0  0  0  0  0  0  0
   11.8878   14.9915   22.3540 C   0  0  0  0  0  0  0  0  0  0  0  0
   10.6866   12.8235   23.6231 C   0  0  0  0  0  0  0  0  0  0  0  0
    7.7896   12.7389   25.5290 C   0  0  0  0  0  0  0  0  0  0  0  0
    6.6501   10.5054   25.1305 C   0  0  0  0  0  0  0  0  0  0  0  0
    6.7320   11.7291   26.1126 C   0  0  0  0  0  0  0  0  0  0  0  0
    8.9975   18.6585   23.1768 C   0  0  0  0  0  0  0  0  0  0  0  0
    8.1075   17.4664   23.0120 C   0  0  0  0  0  0  0  0  0  0  0  0
    9.3367   17.6093   22.1386 C   0  0  0  0  0  0  0  0  0  0  0  0
    7.5320    4.7845   21.5351 C   0  0  0  0  0  0  0  0  0  0  0  0
    9.7894   14.7332   20.9934 C   0  0  0  0  0  0  0  0  0  0  0  0
   12.2972   11.2290   22.5329 C   0  0  0  0  0  0  0  0  0  0  0  0
   12.4565   13.6410   22.0271 C   0  0  0  0  0  0  0  0  0  0  0  0
    9.7492   10.6613   23.1238 N   0  0  0  0  0  0  0  0  0  0  0  0
   11.5610   16.9900   23.1424 N   0  0  0  0  0  0  0  0  0  0  0  0
   12.4244   15.9129   23.1217 N   0  0  0  0  0  0  0  0  0  0  0  0
    8.6404    9.9829   23.5150 N   0  0  0  0  0  0  0  0  0  0  0  0
   10.6946   15.4350   21.8699 N   0  0  0  0  0  0  0  0  0  0  0  0
   11.7783   12.5711   22.7558 N   0  0  0  0  0  0  0  0  0  0  0  0
   10.5615   13.8951   24.2495 O   0  0  0  0  0  0  0  0  0  0  0  0
    5.7434    6.6732   22.3122 H   0  0  0  0  0  0  0  0  0  0  0  0
    9.9667    5.9264   21.9122 H   0  0  0  0  0  0  0  0  0  0  0  0
    6.2212    8.9301   23.1726 H   0  0  0  0  0  0  0  0  0  0  0  0
   10.4504    8.1809   22.7706 H   0  0  0  0  0  0  0  0  0  0  0  0
    8.4195   13.1494   26.3226 H   0  0  0  0  0  0  0  0  0  0  0  0
    7.2842   13.5552   25.0031 H   0  0  0  0  0  0  0  0  0  0  0  0
    5.7793   10.5986   24.4747 H   0  0  0  0  0  0  0  0  0  0  0  0
    6.6045    9.5616   25.6791 H   0  0  0  0  0  0  0  0  0  0  0  0
    7.0818   11.3763   27.0919 H   0  0  0  0  0  0  0  0  0  0  0  0
    5.7556   12.2001   26.2649 H   0  0  0  0  0  0  0  0  0  0  0  0
    8.6306   19.6156   22.8266 H   0  0  0  0  0  0  0  0  0  0  0  0
    9.6028   18.7144   24.0736 H   0  0  0  0  0  0  0  0  0  0  0  0
    8.1146   16.7194   23.7966 H   0  0  0  0  0  0  0  0  0  0  0  0
    7.1395   17.6181   22.5500 H   0  0  0  0  0  0  0  0  0  0  0  0
    9.1686   17.8790   21.0992 H   0  0  0  0  0  0  0  0  0  0  0  0
    7.4321    4.8049   20.4429 H   0  0  0  0  0  0  0  0  0  0  0  0
    8.3310    4.0792   21.7982 H   0  0  0  0  0  0  0  0  0  0  0  0
    6.6027    4.3851   21.9620 H   0  0  0  0  0  0  0  0  0  0  0  0
   10.0631   14.9741   19.9628 H   0  0  0  0  0  0  0  0  0  0  0  0
    9.8729   13.6572   21.1695 H   0  0  0  0  0  0  0  0  0  0  0  0
    8.7643   15.0518   21.2023 H   0  0  0  0  0  0  0  0  0  0  0  0
   11.7704   10.7679   21.6844 H   0  0  0  0  0  0  0  0  0  0  0  0
   13.3730   11.2842   22.3100 H   0  0  0  0  0  0  0  0  0  0  0  0
   12.1406   10.6208   23.4359 H   0  0  0  0  0  0  0  0  0  0  0  0
   12.3627   13.4315   20.9560 H   0  0  0  0  0  0  0  0  0  0  0  0
   13.5218   13.5925   22.2760 H   0  0  0  0  0  0  0  0  0  0  0  0
  1  3  1  0  0  0  0
  1  6  2  0  0  0  0
  2  4  2  0  0  0  0
  2  6  1  0  0  0  0
  3  7  2  0  0  0  0
  4  7  1  0  0  0  0
  5  8  1  0  0  0  0
  5  9  2  0  0  0  0
  5 13  1  0  0  0  0
  6 19  1  0  0  0  0
  7 26  1  0  0  0  0
  8 12  1  0  0  0  0
  8 23  2  0  0  0  0
  9 14  1  0  0  0  0
  9 26  1  0  0  0  0
 10 18  1  0  0  0  0
 10 24  2  0  0  0  0
 10 27  1  0  0  0  0
 11 22  1  0  0  0  0
 11 25  2  0  0  0  0
 11 27  1  0  0  0  0
 12 28  1  0  0  0  0
 12 29  2  0  0  0  0
 13 15  1  0  0  0  0
 14 15  1  0  0  0  0
 16 17  1  0  0  0  0
 16 18  1  0  0  0  0
 17 18  1  0  0  0  0
 20 27  1  0  0  0  0
 21 28  1  0  0  0  0
 22 28  1  0  0  0  0
 23 26  1  0  0  0  0
 24 25  1  0  0  0  0
  1 30  1  0  0  0  0
  2 31  1  0  0  0  0
  3 32  1  0  0  0  0
  4 33  1  0  0  0  0
 13 34  1  0  0  0  0
 13 35  1  0  0  0  0
 14 36  1  0  0  0  0
 14 37  1  0  0  0  0
 15 38  1  0  0  0  0
 15 39  1  0  0  0  0
 16 40  1  0  0  0  0
 16 41  1  0  0  0  0
 17 42  1  0  0  0  0
 17 43  1  0  0  0  0
 18 44  1  0  0  0  0
 19 45  1  0  0  0  0
 19 46  1  0  0  0  0
 19 47  1  0  0  0  0
 20 48  1  0  0  0  0
 20 49  1  0  0  0  0
 20 50  1  0  0  0  0
 21 51  1  0  0  0  0
 21 52  1  0  0  0  0
 21 53  1  0  0  0  0
 22 54  1  0  0  0  0
 22 55  1  0  0  0  0
M  END
> <Catalog ID>
Z1303330689

> <PlateID>
1041831-R-02

> <Well>
G03

> <MW (desalted)>
390.481

> <ClogP>
1.680

> <HBD>
0

> <TPSA>
68.840

> <RotBonds>
5

> <ROCS_ShapeQuery>
A71EV2A-x0451_0A_A71EV2A-x0310_0A_A71EV2A-x0416_0A_peptide

> <ROCS_TanimotoCombo>
0.516 

> <ROCS_ShapeTanimoto>
0.348 

> <ROCS_ColorTanimoto>
0.167 

> <ROCS_RefTversky>
0.319 

> <ROCS_RefColorTversky>
0.188 

> <ROCS_RefTverskyCombo>
0.507 

> <ROCS_FitTversky>
1.352 

> <ROCS_FitColorTversky>
0.604 

> <ROCS_FitTverskyCombo>
1.956 

> <ROCS_ColorScore>
-5.742

> <ROCS_Overlap>
2222.907

> <ROCS_Rank>
429                 

$$$$
untitled-dbase-1420_3127
  -OEChem-11132311063D

 40 42  0     0  0  0  0  0  0999 V2000
    4.6568   12.2277   27.7985 C   0  0  0  0  0  0  0  0  0  0  0  0
    5.0969   10.9106   27.6675 C   0  0  0  0  0  0  0  0  0  0  0  0
    5.2087   13.2300   27.0007 C   0  0  0  0  0  0  0  0  0  0  0  0
    6.0888   10.5958   26.7388 C   0  0  0  0  0  0  0  0  0  0  0  0
    6.2006   12.9152   26.0720 C   0  0  0  0  0  0  0  0  0  0  0  0
   13.1488   16.4449   20.4398 C   0  0  0  0  0  0  0  0  0  0  0  0
    6.6407   11.5981   25.9410 C   0  0  0  0  0  0  0  0  0  0  0  0
   12.6356   15.3675   19.7485 C   0  0  0  0  0  0  0  0  0  0  0  0
   13.9090   16.1974   18.1675 C   0  0  0  0  0  0  0  0  0  0  0  0
    9.6941   10.8318   23.1542 C   0  0  0  0  0  0  0  0  0  0  0  0
    8.8360    9.8523   23.4194 C   0  0  0  0  0  0  0  0  0  0  0  0
    9.4477   12.0768   23.8726 C   0  0  0  0  0  0  0  0  0  0  0  0
    7.7164   10.0379   24.3780 C   0  0  0  0  0  0  0  0  0  0  0  0
   10.3780   13.2008   23.5895 C   0  0  0  0  0  0  0  0  0  0  0  0
   14.5826   16.3747   16.8626 C   0  0  0  0  0  0  0  0  0  0  0  0
   11.6574   14.3558   20.2933 C   0  0  0  0  0  0  0  0  0  0  0  0
   11.7974   14.1429   21.7986 C   0  0  0  0  0  0  0  0  0  0  0  0
   13.0700   15.2242   18.4452 N   0  0  0  0  0  0  0  0  0  0  0  0
    8.5116   12.3015   24.7266 N   0  0  0  0  0  0  0  0  0  0  0  0
    7.6324   11.2831   25.0124 N   0  0  0  0  0  0  0  0  0  0  0  0
   10.8747   13.1535   22.3070 N   0  0  0  0  0  0  0  0  0  0  0  0
    6.9388    9.1032   24.5717 O   0  0  0  0  0  0  0  0  0  0  0  0
   10.6179   14.0298   24.4519 O   0  0  0  0  0  0  0  0  0  0  0  0
   14.2214   17.3200   19.4273 S   0  0  0  0  0  0  0  0  0  0  0  0
    3.8839   12.4730   28.5210 H   0  0  0  0  0  0  0  0  0  0  0  0
    4.6668   10.1298   28.2878 H   0  0  0  0  0  0  0  0  0  0  0  0
    4.8651   14.2554   27.1023 H   0  0  0  0  0  0  0  0  0  0  0  0
    6.4238    9.5657   26.6454 H   0  0  0  0  0  0  0  0  0  0  0  0
    6.6234   13.7047   25.4556 H   0  0  0  0  0  0  0  0  0  0  0  0
   12.9542   16.7523   21.4576 H   0  0  0  0  0  0  0  0  0  0  0  0
   10.5157   10.7268   22.4597 H   0  0  0  0  0  0  0  0  0  0  0  0
    8.9274    8.8856   22.9367 H   0  0  0  0  0  0  0  0  0  0  0  0
   13.9793   17.0041   16.1898 H   0  0  0  0  0  0  0  0  0  0  0  0
   15.5716   16.8489   16.9720 H   0  0  0  0  0  0  0  0  0  0  0  0
   14.7581   15.4111   16.3567 H   0  0  0  0  0  0  0  0  0  0  0  0
   11.8189   13.4018   19.7757 H   0  0  0  0  0  0  0  0  0  0  0  0
   10.6322   14.6620   20.0490 H   0  0  0  0  0  0  0  0  0  0  0  0
   12.8049   13.7845   22.0325 H   0  0  0  0  0  0  0  0  0  0  0  0
   11.6272   15.0703   22.3554 H   0  0  0  0  0  0  0  0  0  0  0  0
   10.5824   12.3963   21.6960 H   0  0  0  0  0  0  0  0  0  0  0  0
  1  2  2  0  0  0  0
  1  3  1  0  0  0  0
  2  4  1  0  0  0  0
  3  5  2  0  0  0  0
  4  7  2  0  0  0  0
  5  7  1  0  0  0  0
  6  8  2  0  0  0  0
  6 24  1  0  0  0  0
  7 20  1  0  0  0  0
  8 16  1  0  0  0  0
  8 18  1  0  0  0  0
  9 15  1  0  0  0  0
  9 18  2  0  0  0  0
  9 24  1  0  0  0  0
 10 11  2  0  0  0  0
 10 12  1  0  0  0  0
 11 13  1  0  0  0  0
 12 14  1  0  0  0  0
 12 19  2  0  0  0  0
 13 20  1  0  0  0  0
 13 22  2  0  0  0  0
 14 21  1  0  0  0  0
 14 23  2  0  0  0  0
 16 17  1  0  0  0  0
 17 21  1  0  0  0  0
 19 20  1  0  0  0  0
  1 25  1  0  0  0  0
  2 26  1  0  0  0  0
  3 27  1  0  0  0  0
  4 28  1  0  0  0  0
  5 29  1  0  0  0  0
  6 30  1  0  0  0  0
 10 31  1  0  0  0  0
 11 32  1  0  0  0  0
 15 33  1  0  0  0  0
 15 34  1  0  0  0  0
 15 35  1  0  0  0  0
 16 36  1  0  0  0  0
 16 37  1  0  0  0  0
 17 38  1  0  0  0  0
 17 39  1  0  0  0  0
 21 40  1  0  0  0  0
M  END
> <Catalog ID>
Z339933836

> <PlateID>
1041831-R-18

> <Well>
F11

> <MW (desalted)>
340.400

> <ClogP>
1.091

> <HBD>
1

> <TPSA>
74.660

> <RotBonds>
5

> <ROCS_ShapeQuery>
A71EV2A-x0451_0A_A71EV2A-x0310_0A_A71EV2A-x0416_0A_peptide

> <ROCS_TanimotoCombo>
0.515 

> <ROCS_ShapeTanimoto>
0.353 

> <ROCS_ColorTanimoto>
0.162 

> <ROCS_RefTversky>
0.313 

> <ROCS_RefColorTversky>
0.181 

> <ROCS_RefTverskyCombo>
0.495 

> <ROCS_FitTversky>
1.567 

> <ROCS_FitColorTversky>
0.603 

> <ROCS_FitTverskyCombo>
2.170 

> <ROCS_ColorScore>
-5.537

> <ROCS_Overlap>
2177.844

> <ROCS_Rank>
430                 

$$$$
untitled-dbase-1569_447
  -OEChem-11132311063D

 40 42  0     1  0  0  0  0  0999 V2000
    6.9417   12.7630   25.5501 C   0  0  0  0  0  0  0  0  0  0  0  0
    6.7311   11.5630   26.2265 C   0  0  0  0  0  0  0  0  0  0  0  0
    7.8030   12.8227   24.4485 C   0  0  0  0  0  0  0  0  0  0  0  0
    7.3721   10.3874   25.8253 C   0  0  0  0  0  0  0  0  0  0  0  0
   15.0040   13.6091   21.4316 C   0  0  0  0  0  0  0  0  0  0  0  0
   14.2219   13.8298   23.7069 C   0  0  0  0  0  0  0  0  0  0  0  0
   16.0296   12.7692   21.8656 C   0  0  0  0  0  0  0  0  0  0  0  0
   15.2474   12.9898   24.1409 C   0  0  0  0  0  0  0  0  0  0  0  0
    9.6793   10.0103   23.0593 C   0  0  0  0  0  0  0  0  0  0  0  0
    8.4604   11.6503   24.0257 C   0  0  0  0  0  0  0  0  0  0  0  0
    9.3765   11.3499   22.9790 C   0  0  0  0  0  0  0  0  0  0  0  0
    8.2303   10.4621   24.7225 C   0  0  0  0  0  0  0  0  0  0  0  0
   14.1001   14.1394   22.3523 C   0  0  0  0  0  0  0  0  0  0  0  0
   16.1513   12.4596   23.2202 C   0  0  0  0  0  0  0  0  0  0  0  0
   10.5420   14.0376   23.7073 C   0  0  0  0  0  0  0  0  0  0  0  0
    9.9138   12.2974   21.9813 C   0  0  0  0  0  0  0  0  0  0  0  0
   11.0334   13.2175   22.5235 C   0  0  1  0  0  0  0  0  0  0  0  0
    8.9830    9.4833   24.1138 N   0  0  0  0  0  0  0  0  0  0  0  0
   11.5481   14.0707   21.4818 N   0  0  0  0  0  0  0  0  0  0  0  0
   10.6421   13.6584   24.8696 O   0  0  0  0  0  0  0  0  0  0  0  0
   12.4000   16.0358   22.9209 O   0  0  0  0  0  0  0  0  0  0  0  0
   13.2475   15.8120   20.5638 O   0  0  0  0  0  0  0  0  0  0  0  0
    9.9876   15.2301   23.3824 O   0  0  0  0  0  0  0  0  0  0  0  0
   12.8004   15.2039   21.8023 S   0  0  0  0  0  0  0  0  0  0  0  0
   17.4166   11.4233   23.7556 Cl  0  0  0  0  0  0  0  0  0  0  0  0
    6.4315   13.6638   25.8805 H   0  0  0  0  0  0  0  0  0  0  0  0
    6.0580   11.5394   27.0796 H   0  0  0  0  0  0  0  0  0  0  0  0
    7.9559   13.7657   23.9313 H   0  0  0  0  0  0  0  0  0  0  0  0
    7.2084    9.4540   26.3531 H   0  0  0  0  0  0  0  0  0  0  0  0
   14.9182   13.8439   20.3741 H   0  0  0  0  0  0  0  0  0  0  0  0
   13.5232   14.2374   24.4325 H   0  0  0  0  0  0  0  0  0  0  0  0
   16.7266   12.3633   21.1370 H   0  0  0  0  0  0  0  0  0  0  0  0
   15.3302   12.7571   25.1994 H   0  0  0  0  0  0  0  0  0  0  0  0
   10.3261    9.3838   22.4606 H   0  0  0  0  0  0  0  0  0  0  0  0
    9.0919   12.9271   21.5845 H   0  0  0  0  0  0  0  0  0  0  0  0
   10.2958   11.7658   21.0849 H   0  0  0  0  0  0  0  0  0  0  0  0
   11.8844   12.6244   22.8778 H   0  0  0  0  0  0  0  0  0  0  0  0
    9.0163    8.5158   24.4041 H   0  0  0  0  0  0  0  0  0  0  0  0
   11.4603   13.7355   20.5011 H   0  0  0  0  0  0  0  0  0  0  0  0
    9.9625   15.4246   22.4218 H   0  0  0  0  0  0  0  0  0  0  0  0
  1  2  2  0  0  0  0
  1  3  1  0  0  0  0
  2  4  1  0  0  0  0
  3 10  2  0  0  0  0
  4 12  2  0  0  0  0
  5  7  1  0  0  0  0
  5 13  2  0  0  0  0
  6  8  2  0  0  0  0
  6 13  1  0  0  0  0
  7 14  2  0  0  0  0
  8 14  1  0  0  0  0
  9 11  2  0  0  0  0
  9 18  1  0  0  0  0
 10 11  1  0  0  0  0
 10 12  1  0  0  0  0
 11 16  1  0  0  0  0
 12 18  1  0  0  0  0
 13 24  1  0  0  0  0
 14 25  1  0  0  0  0
 15 17  1  0  0  0  0
 15 20  2  0  0  0  0
 15 23  1  0  0  0  0
 16 17  1  0  0  0  0
 17 19  1  0  0  0  0
 19 24  1  0  0  0  0
 21 24  2  0  0  0  0
 22 24  2  0  0  0  0
  1 26  1  0  0  0  0
  2 27  1  0  0  0  0
  3 28  1  0  0  0  0
  4 29  1  0  0  0  0
  5 30  1  0  0  0  0
  6 31  1  0  0  0  0
  7 32  1  0  0  0  0
  8 33  1  0  0  0  0
  9 34  1  0  0  0  0
 16 35  1  0  0  0  0
 16 36  1  0  0  0  0
 17 37  1  0  0  0  0
 18 38  1  0  0  0  0
 19 39  1  0  0  0  0
 23 40  1  0  0  0  0
M  END
> <Catalog ID>
Z45636969

> <PlateID>
1041831-R-20

> <Well>
E10

> <MW (desalted)>
378.830

> <ClogP>
3.421

> <HBD>
3

> <TPSA>
99.260

> <RotBonds>
5

> <ROCS_ShapeQuery>
A71EV2A-x0451_0A_A71EV2A-x0310_0A_A71EV2A-x0416_0A_peptide

> <ROCS_TanimotoCombo>
0.515 

> <ROCS_ShapeTanimoto>
0.327 

> <ROCS_ColorTanimoto>
0.188 

> <ROCS_RefTversky>
0.297 

> <ROCS_RefColorTversky>
0.216 

> <ROCS_RefTverskyCombo>
0.512 

> <ROCS_FitTversky>
1.459 

> <ROCS_FitColorTversky>
0.594 

> <ROCS_FitTverskyCombo>
2.054 

> <ROCS_ColorScore>
-6.607

> <ROCS_Overlap>
2062.150

> <ROCS_Rank>
431                 

$$$$
untitled-dbase-2711_857
  -OEChem-11132311063D

 44 47  0     1  0  0  0  0  0999 V2000
   13.6199   14.7448   19.7037 C   0  0  0  0  0  0  0  0  0  0  0  0
    6.1163   11.2513   25.6250 C   0  0  0  0  0  0  0  0  0  0  0  0
    6.6646   12.3868   25.0750 C   0  0  0  0  0  0  0  0  0  0  0  0
   14.0318   15.3888   18.5588 C   0  0  0  0  0  0  0  0  0  0  0  0
   12.7324   15.5418   20.4996 C   0  0  0  0  0  0  0  0  0  0  0  0
   12.5975   16.8116   19.9576 C   0  0  0  0  0  0  0  0  0  0  0  0
    7.8964   10.5954   24.6406 C   0  0  0  0  0  0  0  0  0  0  0  0
   10.9562   15.7001   22.2073 C   0  0  0  0  0  0  0  0  0  0  0  0
   11.7361   13.3129   23.2736 C   0  0  0  0  0  0  0  0  0  0  0  0
   11.9255   17.9948   20.5805 C   0  0  0  0  0  0  0  0  0  0  0  0
    9.0094    9.8021   24.0494 C   0  0  0  0  0  0  0  0  0  0  0  0
   10.0451   16.3576   21.1797 C   0  0  0  0  0  0  0  0  0  0  0  0
   10.4345   17.7762   20.7931 C   0  0  0  0  0  0  0  0  0  0  0  0
   10.1925   10.6870   23.6440 C   0  0  0  0  0  0  0  0  0  0  0  0
    8.7718   12.7671   23.7568 C   0  0  0  0  0  0  0  0  0  0  0  0
    9.7064   11.9264   22.8804 C   0  0  1  0  0  0  0  0  0  0  0  0
   12.7849   14.0785   22.5080 C   0  0  0  0  0  0  0  0  0  0  0  0
    6.8829   10.1443   25.3520 N   0  0  0  0  0  0  0  0  0  0  0  0
    7.7946   11.9509   24.4515 N   0  0  0  0  0  0  0  0  0  0  0  0
   12.1459   15.1315   21.7196 N   0  0  0  0  0  0  0  0  0  0  0  0
   10.8164   12.7218   22.4192 N   0  0  0  0  0  0  0  0  0  0  0  0
   10.5755   15.6105   23.3778 O   0  0  0  0  0  0  0  0  0  0  0  0
   11.7179   13.2329   24.4990 O   0  0  0  0  0  0  0  0  0  0  0  0
   13.4050   16.9719   18.4582 S   0  0  0  0  0  0  0  0  0  0  0  0
   13.9400   13.7426   19.9234 H   0  0  0  0  0  0  0  0  0  0  0  0
    5.2085   11.1742   26.2054 H   0  0  0  0  0  0  0  0  0  0  0  0
    6.3597   13.4238   25.0808 H   0  0  0  0  0  0  0  0  0  0  0  0
   14.6705   14.9981   17.7787 H   0  0  0  0  0  0  0  0  0  0  0  0
   12.3747   18.2150   21.5487 H   0  0  0  0  0  0  0  0  0  0  0  0
   12.0684   18.8663   19.9411 H   0  0  0  0  0  0  0  0  0  0  0  0
    9.3462    9.0412   24.7620 H   0  0  0  0  0  0  0  0  0  0  0  0
    8.6285    9.2743   23.1667 H   0  0  0  0  0  0  0  0  0  0  0  0
    9.9449   15.6821   20.3026 H   0  0  0  0  0  0  0  0  0  0  0  0
    9.0289   16.3847   21.6276 H   0  0  0  0  0  0  0  0  0  0  0  0
   10.0477   18.5093   21.5422 H   0  0  0  0  0  0  0  0  0  0  0  0
    9.9134   18.0494   19.8460 H   0  0  0  0  0  0  0  0  0  0  0  0
   10.7408   10.9983   24.5433 H   0  0  0  0  0  0  0  0  0  0  0  0
   10.8854   10.0996   23.0298 H   0  0  0  0  0  0  0  0  0  0  0  0
    9.3315   13.2980   24.5367 H   0  0  0  0  0  0  0  0  0  0  0  0
    8.2259   13.5002   23.1525 H   0  0  0  0  0  0  0  0  0  0  0  0
    9.1670   11.6016   21.9817 H   0  0  0  0  0  0  0  0  0  0  0  0
   13.4938   14.5320   23.2071 H   0  0  0  0  0  0  0  0  0  0  0  0
   13.3212   13.4021   21.8361 H   0  0  0  0  0  0  0  0  0  0  0  0
   10.9311   12.8564   21.4188 H   0  0  0  0  0  0  0  0  0  0  0  0
  1  4  2  0  0  0  0
  1  5  1  0  0  0  0
  2  3  2  0  0  0  0
  2 18  1  0  0  0  0
  3 19  1  0  0  0  0
  4 24  1  0  0  0  0
  5  6  2  0  0  0  0
  5 20  1  0  0  0  0
  6 10  1  0  0  0  0
  6 24  1  0  0  0  0
  7 11  1  0  0  0  0
  7 18  2  0  0  0  0
  7 19  1  0  0  0  0
  8 12  1  0  0  0  0
  8 20  1  0  0  0  0
  8 22  2  0  0  0  0
  9 17  1  0  0  0  0
  9 21  1  0  0  0  0
  9 23  2  0  0  0  0
 10 13  1  0  0  0  0
 11 14  1  0  0  0  0
 12 13  1  0  0  0  0
 14 16  1  0  0  0  0
 15 16  1  0  0  0  0
 15 19  1  0  0  0  0
 16 21  1  0  0  0  0
 17 20  1  0  0  0  0
  1 25  1  0  0  0  0
  2 26  1  0  0  0  0
  3 27  1  0  0  0  0
  4 28  1  0  0  0  0
 10 29  1  0  0  0  0
 10 30  1  0  0  0  0
 11 31  1  0  0  0  0
 11 32  1  0  0  0  0
 12 33  1  0  0  0  0
 12 34  1  0  0  0  0
 13 35  1  0  0  0  0
 13 36  1  0  0  0  0
 14 37  1  0  0  0  0
 14 38  1  0  0  0  0
 15 39  1  0  0  0  0
 15 40  1  0  0  0  0
 16 41  1  0  0  0  0
 17 42  1  0  0  0  0
 17 43  1  0  0  0  0
 21 44  1  0  0  0  0
M  END
> <Catalog ID>
Z1147862401

> <PlateID>
1041831-R-34

> <Well>
H02

> <MW (desalted)>
344.431

> <ClogP>
1.337

> <HBD>
1

> <TPSA>
67.230

> <RotBonds>
3

> <ROCS_ShapeQuery>
A71EV2A-x0451_0A_A71EV2A-x0310_0A_A71EV2A-x0416_0A_peptide

> <ROCS_TanimotoCombo>
0.515 

> <ROCS_ShapeTanimoto>
0.337 

> <ROCS_ColorTanimoto>
0.178 

> <ROCS_RefTversky>
0.303 

> <ROCS_RefColorTversky>
0.202 

> <ROCS_RefTverskyCombo>
0.504 

> <ROCS_FitTversky>
1.508 

> <ROCS_FitColorTversky>
0.607 

> <ROCS_FitTverskyCombo>
2.115 

> <ROCS_ColorScore>
-6.164

> <ROCS_Overlap>
2103.027

> <ROCS_Rank>
432                 

$$$$
untitled-dbase-696_2487
  -OEChem-11132311063D

 54 57  0     0  0  0  0  0  0999 V2000
   10.1401    6.0241   21.2149 C   0  0  0  0  0  0  0  0  0  0  0  0
   11.1542    6.9346   21.5116 C   0  0  0  0  0  0  0  0  0  0  0  0
    8.8215    6.3086   21.5699 C   0  0  0  0  0  0  0  0  0  0  0  0
   10.8498    8.1297   22.1633 C   0  0  0  0  0  0  0  0  0  0  0  0
    8.5170    7.5037   22.2216 C   0  0  0  0  0  0  0  0  0  0  0  0
    9.9867   10.7874   22.9604 C   0  0  0  0  0  0  0  0  0  0  0  0
    7.8831   12.8265   25.3490 C   0  0  0  0  0  0  0  0  0  0  0  0
    8.5677   11.9389   24.4952 C   0  0  0  0  0  0  0  0  0  0  0  0
    9.5312    8.4143   22.5183 C   0  0  0  0  0  0  0  0  0  0  0  0
    9.6638   11.9711   23.6241 C   0  0  0  0  0  0  0  0  0  0  0  0
    9.2159    9.6534   23.1938 C   0  0  0  0  0  0  0  0  0  0  0  0
    7.8850   10.7408   24.6360 C   0  0  0  0  0  0  0  0  0  0  0  0
   10.4454   13.1969   23.4135 C   0  0  0  0  0  0  0  0  0  0  0  0
   12.3234   14.9640   18.5290 C   0  0  0  0  0  0  0  0  0  0  0  0
   10.5649   12.8673   20.8867 C   0  0  0  0  0  0  0  0  0  0  0  0
   12.3336   14.0910   22.0890 C   0  0  0  0  0  0  0  0  0  0  0  0
   10.4764   13.9929   19.8612 C   0  0  0  0  0  0  0  0  0  0  0  0
   12.2603   15.2172   21.0602 C   0  0  0  0  0  0  0  0  0  0  0  0
   13.6303   15.7158   18.5257 C   0  0  0  0  0  0  0  0  0  0  0  0
    6.3321    9.3558   27.2957 C   0  0  0  0  0  0  0  0  0  0  0  0
    5.5208    9.0174   24.9222 C   0  0  0  0  0  0  0  0  0  0  0  0
    5.8957   10.0385   25.9979 C   0  0  0  0  0  0  0  0  0  0  0  0
    6.8550   12.2494   25.9797 N   0  0  0  0  0  0  0  0  0  0  0  0
    8.1489    9.5726   24.0251 N   0  0  0  0  0  0  0  0  0  0  0  0
    6.8811   10.9828   25.5266 N   0  0  0  0  0  0  0  0  0  0  0  0
   11.0539   13.3860   22.1715 N   0  0  0  0  0  0  0  0  0  0  0  0
   11.7467   14.7209   19.7749 N   0  0  0  0  0  0  0  0  0  0  0  0
   10.4950   13.9800   24.3609 O   0  0  0  0  0  0  0  0  0  0  0  0
   11.8326   14.6025   17.4565 O   0  0  0  0  0  0  0  0  0  0  0  0
   10.3771    5.0944   20.7060 H   0  0  0  0  0  0  0  0  0  0  0  0
   12.1807    6.7140   21.2338 H   0  0  0  0  0  0  0  0  0  0  0  0
    8.0311    5.6007   21.3379 H   0  0  0  0  0  0  0  0  0  0  0  0
   11.6515    8.8294   22.3874 H   0  0  0  0  0  0  0  0  0  0  0  0
    7.4845    7.7121   22.4916 H   0  0  0  0  0  0  0  0  0  0  0  0
   10.8287   10.7585   22.2733 H   0  0  0  0  0  0  0  0  0  0  0  0
    8.0879   13.8703   25.5403 H   0  0  0  0  0  0  0  0  0  0  0  0
    9.5753   12.4309   21.0650 H   0  0  0  0  0  0  0  0  0  0  0  0
   11.2091   12.0729   20.5033 H   0  0  0  0  0  0  0  0  0  0  0  0
   13.1390   13.3977   21.8249 H   0  0  0  0  0  0  0  0  0  0  0  0
   12.5563   14.4918   23.0852 H   0  0  0  0  0  0  0  0  0  0  0  0
   10.2668   13.5861   18.8635 H   0  0  0  0  0  0  0  0  0  0  0  0
    9.6449   14.6525   20.1208 H   0  0  0  0  0  0  0  0  0  0  0  0
   11.6315   16.0264   21.4414 H   0  0  0  0  0  0  0  0  0  0  0  0
   13.2565   15.6330   20.8731 H   0  0  0  0  0  0  0  0  0  0  0  0
   14.4485   15.0058   18.5882 H   0  0  0  0  0  0  0  0  0  0  0  0
   13.6563   16.3874   19.3779 H   0  0  0  0  0  0  0  0  0  0  0  0
   13.7072   16.2905   17.6083 H   0  0  0  0  0  0  0  0  0  0  0  0
    7.2357    8.7527   27.1563 H   0  0  0  0  0  0  0  0  0  0  0  0
    5.5429    8.6924   27.6654 H   0  0  0  0  0  0  0  0  0  0  0  0
    6.5424   10.0967   28.0750 H   0  0  0  0  0  0  0  0  0  0  0  0
    6.3857    8.4030   24.6488 H   0  0  0  0  0  0  0  0  0  0  0  0
    5.1678    9.5241   24.0176 H   0  0  0  0  0  0  0  0  0  0  0  0
    4.7257    8.3432   25.2579 H   0  0  0  0  0  0  0  0  0  0  0  0
    4.9910   10.6174   26.2247 H   0  0  0  0  0  0  0  0  0  0  0  0
  1  2  2  0  0  0  0
  1  3  1  0  0  0  0
  2  4  1  0  0  0  0
  3  5  2  0  0  0  0
  4  9  2  0  0  0  0
  5  9  1  0  0  0  0
  6 10  1  0  0  0  0
  6 11  2  0  0  0  0
  7  8  1  0  0  0  0
  7 23  2  0  0  0  0
  8 10  2  0  0  0  0
  8 12  1  0  0  0  0
  9 11  1  0  0  0  0
 10 13  1  0  0  0  0
 11 24  1  0  0  0  0
 12 24  2  0  0  0  0
 12 25  1  0  0  0  0
 13 26  1  0  0  0  0
 13 28  2  0  0  0  0
 14 19  1  0  0  0  0
 14 27  1  0  0  0  0
 14 29  2  0  0  0  0
 15 17  1  0  0  0  0
 15 26  1  0  0  0  0
 16 18  1  0  0  0  0
 16 26  1  0  0  0  0
 17 27  1  0  0  0  0
 18 27  1  0  0  0  0
 20 22  1  0  0  0  0
 21 22  1  0  0  0  0
 22 25  1  0  0  0  0
 23 25  1  0  0  0  0
  1 30  1  0  0  0  0
  2 31  1  0  0  0  0
  3 32  1  0  0  0  0
  4 33  1  0  0  0  0
  5 34  1  0  0  0  0
  6 35  1  0  0  0  0
  7 36  1  0  0  0  0
 15 37  1  0  0  0  0
 15 38  1  0  0  0  0
 16 39  1  0  0  0  0
 16 40  1  0  0  0  0
 17 41  1  0  0  0  0
 17 42  1  0  0  0  0
 18 43  1  0  0  0  0
 18 44  1  0  0  0  0
 19 45  1  0  0  0  0
 19 46  1  0  0  0  0
 19 47  1  0  0  0  0
 20 48  1  0  0  0  0
 20 49  1  0  0  0  0
 20 50  1  0  0  0  0
 21 51  1  0  0  0  0
 21 52  1  0  0  0  0
 21 53  1  0  0  0  0
 22 54  1  0  0  0  0
M  END
> <Catalog ID>
Z51852374

> <PlateID>
1041831-R-09

> <Well>
F07

> <MW (desalted)>
391.466

> <ClogP>
2.003

> <HBD>
0

> <TPSA>
71.330

> <RotBonds>
3

> <ROCS_ShapeQuery>
A71EV2A-x0451_0A_A71EV2A-x0310_0A_A71EV2A-x0416_0A_peptide

> <ROCS_TanimotoCombo>
0.515 

> <ROCS_ShapeTanimoto>
0.367 

> <ROCS_ColorTanimoto>
0.148 

> <ROCS_RefTversky>
0.332 

> <ROCS_RefColorTversky>
0.172 

> <ROCS_RefTverskyCombo>
0.503 

> <ROCS_FitTversky>
1.414 

> <ROCS_FitColorTversky>
0.516 

> <ROCS_FitTverskyCombo>
1.931 

> <ROCS_ColorScore>
-5.244

> <ROCS_Overlap>
2309.449

> <ROCS_Rank>
433                 

$$$$
untitled-dbase-411_708
  -OEChem-11132311063D

 46 49  0     1  0  0  0  0  0999 V2000
   10.5152   15.7829   20.1118 C   0  0  0  0  0  0  0  0  0  0  0  0
   10.1321   15.1031   21.2626 C   0  0  0  0  0  0  0  0  0  0  0  0
   15.1863   12.7209   22.8795 C   0  0  0  0  0  0  0  0  0  0  0  0
   11.8556   15.7616   19.7618 C   0  0  0  0  0  0  0  0  0  0  0  0
   14.3604   13.0007   23.9846 C   0  0  0  0  0  0  0  0  0  0  0  0
   14.5202   13.2623   21.8072 C   0  0  0  0  0  0  0  0  0  0  0  0
   11.0877   14.4321   22.0176 C   0  0  0  0  0  0  0  0  0  0  0  0
   12.4025   14.4711   21.5822 C   0  0  0  0  0  0  0  0  0  0  0  0
   10.6658   13.7113   23.2462 C   0  0  0  0  0  0  0  0  0  0  0  0
    7.1673   12.7292   25.2292 C   0  0  0  0  0  0  0  0  0  0  0  0
    7.7028   11.3239   25.6030 C   0  0  0  0  0  0  0  0  0  0  0  0
    7.3659   12.3475   23.7402 C   0  0  0  0  0  0  0  0  0  0  0  0
    9.9936   10.0379   23.8845 C   0  0  0  0  0  0  0  0  0  0  0  0
    9.8433   11.5595   24.1677 C   0  0  2  0  0  0  0  0  0  0  0  0
    8.4911    9.9961   23.4862 C   0  0  2  0  0  0  0  0  0  0  0  0
    8.3473   11.3061   24.2262 C   0  0  0  0  0  0  0  0  0  0  0  0
    8.8911    7.4368   22.4448 C   0  0  0  0  0  0  0  0  0  0  0  0
    8.5087    7.6810   23.8890 C   0  0  0  0  0  0  0  0  0  0  0  0
   12.8126   15.1209   20.4699 N   0  0  0  0  0  0  0  0  0  0  0  0
   13.2542   13.6681   23.6457 N   0  0  0  0  0  0  0  0  0  0  0  0
   13.3804   13.8123   22.3155 N   0  0  0  0  0  0  0  0  0  0  0  0
   10.3053   12.3951   23.0612 N   0  0  0  0  0  0  0  0  0  0  0  0
   10.6426   14.3129   24.3167 O   0  0  0  0  0  0  0  0  0  0  0  0
    7.7422    8.8681   23.9685 O   0  0  0  0  0  0  0  0  0  0  0  0
    9.7874   16.3131   19.5081 H   0  0  0  0  0  0  0  0  0  0  0  0
    9.0870   15.1040   21.5605 H   0  0  0  0  0  0  0  0  0  0  0  0
   16.1325   12.2004   22.8623 H   0  0  0  0  0  0  0  0  0  0  0  0
   12.2062   16.2764   18.8734 H   0  0  0  0  0  0  0  0  0  0  0  0
   14.5181   12.7464   25.0231 H   0  0  0  0  0  0  0  0  0  0  0  0
   14.7625   13.2992   20.7533 H   0  0  0  0  0  0  0  0  0  0  0  0
    6.1193   12.8890   25.5056 H   0  0  0  0  0  0  0  0  0  0  0  0
    7.7628   13.5736   25.5843 H   0  0  0  0  0  0  0  0  0  0  0  0
    8.4166   11.3445   26.4340 H   0  0  0  0  0  0  0  0  0  0  0  0
    6.9412   10.5712   25.8164 H   0  0  0  0  0  0  0  0  0  0  0  0
    6.4709   11.9847   23.2286 H   0  0  0  0  0  0  0  0  0  0  0  0
    7.8122   13.1539   23.1474 H   0  0  0  0  0  0  0  0  0  0  0  0
   10.6924    9.7621   23.0893 H   0  0  0  0  0  0  0  0  0  0  0  0
   10.2335    9.4481   24.7770 H   0  0  0  0  0  0  0  0  0  0  0  0
   10.3027   11.8766   25.1087 H   0  0  0  0  0  0  0  0  0  0  0  0
    8.3560   10.0946   22.4008 H   0  0  0  0  0  0  0  0  0  0  0  0
    8.0013    7.3201   21.8199 H   0  0  0  0  0  0  0  0  0  0  0  0
    9.4884    8.2688   22.0576 H   0  0  0  0  0  0  0  0  0  0  0  0
    9.5061    6.5350   22.3557 H   0  0  0  0  0  0  0  0  0  0  0  0
    9.4031    7.7968   24.5085 H   0  0  0  0  0  0  0  0  0  0  0  0
    7.9113    6.8492   24.2740 H   0  0  0  0  0  0  0  0  0  0  0  0
   10.2849   11.9737   22.1463 H   0  0  0  0  0  0  0  0  0  0  0  0
  1  2  1  0  0  0  0
  1  4  2  0  0  0  0
  2  7  2  0  0  0  0
  3  5  1  0  0  0  0
  3  6  2  0  0  0  0
  4 19  1  0  0  0  0
  5 20  2  0  0  0  0
  6 21  1  0  0  0  0
  7  8  1  0  0  0  0
  7  9  1  0  0  0  0
  8 19  2  0  0  0  0
  8 21  1  0  0  0  0
  9 22  1  0  0  0  0
  9 23  2  0  0  0  0
 10 11  1  0  0  0  0
 10 12  1  0  0  0  0
 11 16  1  0  0  0  0
 12 16  1  0  0  0  0
 13 14  1  0  0  0  0
 13 15  1  0  0  0  0
 14 16  1  0  0  0  0
 14 22  1  0  0  0  0
 15 16  1  0  0  0  0
 15 24  1  0  0  0  0
 17 18  1  0  0  0  0
 18 24  1  0  0  0  0
 20 21  1  0  0  0  0
  1 25  1  0  0  0  0
  2 26  1  0  0  0  0
  3 27  1  0  0  0  0
  4 28  1  0  0  0  0
  5 29  1  0  0  0  0
  6 30  1  0  0  0  0
 10 31  1  0  0  0  0
 10 32  1  0  0  0  0
 11 33  1  0  0  0  0
 11 34  1  0  0  0  0
 12 35  1  0  0  0  0
 12 36  1  0  0  0  0
 13 37  1  0  0  0  0
 13 38  1  0  0  0  0
 14 39  1  0  0  0  0
 15 40  1  0  0  0  0
 17 41  1  0  0  0  0
 17 42  1  0  0  0  0
 17 43  1  0  0  0  0
 18 44  1  0  0  0  0
 18 45  1  0  0  0  0
 22 46  1  0  0  0  0
M  END
> <Catalog ID>
Z1260370907

> <PlateID>
1041831-R-06

> <Well>
B02

> <MW (desalted)>
326.393

> <ClogP>
2.782

> <HBD>
1

> <TPSA>
69.040

> <RotBonds>
5

> <ROCS_ShapeQuery>
A71EV2A-x0451_0A_A71EV2A-x0310_0A_A71EV2A-x0416_0A_peptide

> <ROCS_TanimotoCombo>
0.515 

> <ROCS_ShapeTanimoto>
0.344 

> <ROCS_ColorTanimoto>
0.171 

> <ROCS_RefTversky>
0.308 

> <ROCS_RefColorTversky>
0.195 

> <ROCS_RefTverskyCombo>
0.503 

> <ROCS_FitTversky>
1.512 

> <ROCS_FitColorTversky>
0.586 

> <ROCS_FitTverskyCombo>
2.098 

> <ROCS_ColorScore>
-5.951

> <ROCS_Overlap>
2142.072

> <ROCS_Rank>
434                 

$$$$
untitled-dbase-1179_5139
  -OEChem-11132311063D

 49 52  0     1  0  0  0  0  0999 V2000
    5.3501   15.1020   26.4874 C   0  0  0  0  0  0  0  0  0  0  0  0
    6.4950   15.3228   25.7218 C   0  0  0  0  0  0  0  0  0  0  0  0
    4.9273   13.7989   26.7500 C   0  0  0  0  0  0  0  0  0  0  0  0
    7.2170   14.2405   25.2187 C   0  0  0  0  0  0  0  0  0  0  0  0
    5.6493   12.7167   26.2470 C   0  0  0  0  0  0  0  0  0  0  0  0
    6.7942   12.9374   25.4813 C   0  0  0  0  0  0  0  0  0  0  0  0
    7.5372   11.8247   24.9648 C   0  0  0  0  0  0  0  0  0  0  0  0
    9.2252   10.8565   24.1718 C   0  0  0  0  0  0  0  0  0  0  0  0
   10.8948   13.2501   23.4654 C   0  0  0  0  0  0  0  0  0  0  0  0
   12.3970   15.9034   19.3547 C   0  0  0  0  0  0  0  0  0  0  0  0
   11.4465   17.0417   19.0078 C   0  0  0  0  0  0  0  0  0  0  0  0
   12.4580   15.7122   20.8649 C   0  0  0  0  0  0  0  0  0  0  0  0
    8.8819   14.6411   21.6166 C   0  0  0  0  0  0  0  0  0  0  0  0
   10.0636   16.7973   19.6070 C   0  0  0  0  0  0  0  0  0  0  0  0
    8.8171   16.1692   21.5845 C   0  0  0  0  0  0  0  0  0  0  0  0
   11.0766   15.6111   21.5172 C   0  0  2  0  0  0  0  0  0  0  0  0
   10.3318   14.2955   21.2845 C   0  0  1  0  0  0  0  0  0  0  0  0
   10.6456   10.7406   23.6823 C   0  0  0  0  0  0  0  0  0  0  0  0
   11.4715   11.9723   24.0484 C   0  0  0  0  0  0  0  0  0  0  0  0
    7.1789   10.5766   24.7736 N   0  0  0  0  0  0  0  0  0  0  0  0
    8.2895    9.9396   24.2520 N   0  0  0  0  0  0  0  0  0  0  0  0
   10.1149   16.6409   21.0694 N   0  0  1  0  0  0  0  0  0  0  0  0
   10.8370   13.2077   22.0751 N   0  0  0  0  0  0  0  0  0  0  0  0
   10.5290   14.1997   24.1530 O   0  0  0  0  0  0  0  0  0  0  0  0
    8.8247   12.0826   24.6065 O   0  0  0  0  0  0  0  0  0  0  0  0
    4.7883   15.9447   26.8795 H   0  0  0  0  0  0  0  0  0  0  0  0
    6.8239   16.3375   25.5172 H   0  0  0  0  0  0  0  0  0  0  0  0
    4.0365   13.6270   27.3471 H   0  0  0  0  0  0  0  0  0  0  0  0
    8.1088   14.4291   24.6259 H   0  0  0  0  0  0  0  0  0  0  0  0
    5.3061   11.7070   26.4597 H   0  0  0  0  0  0  0  0  0  0  0  0
   12.0717   14.9797   18.8711 H   0  0  0  0  0  0  0  0  0  0  0  0
   13.3966   16.1379   18.9772 H   0  0  0  0  0  0  0  0  0  0  0  0
   11.8489   17.9868   19.3773 H   0  0  0  0  0  0  0  0  0  0  0  0
   11.3633   17.1232   17.9205 H   0  0  0  0  0  0  0  0  0  0  0  0
   13.0527   14.7992   21.0939 H   0  0  0  0  0  0  0  0  0  0  0  0
   13.0294   16.5470   21.3260 H   0  0  0  0  0  0  0  0  0  0  0  0
    8.5878   14.2778   22.6099 H   0  0  0  0  0  0  0  0  0  0  0  0
    8.2023   14.1934   20.8810 H   0  0  0  0  0  0  0  0  0  0  0  0
    9.3804   17.6248   19.3287 H   0  0  0  0  0  0  0  0  0  0  0  0
    9.6333   15.8825   19.1565 H   0  0  0  0  0  0  0  0  0  0  0  0
    7.9865   16.5270   20.9478 H   0  0  0  0  0  0  0  0  0  0  0  0
    8.6276   16.5541   22.6062 H   0  0  0  0  0  0  0  0  0  0  0  0
   11.2310   15.7245   22.6456 H   0  0  0  0  0  0  0  0  0  0  0  0
   10.4065   13.9847   20.2345 H   0  0  0  0  0  0  0  0  0  0  0  0
   11.1048    9.8364   24.1025 H   0  0  0  0  0  0  0  0  0  0  0  0
   10.6469   10.5916   22.5947 H   0  0  0  0  0  0  0  0  0  0  0  0
   12.4997   11.8629   23.6813 H   0  0  0  0  0  0  0  0  0  0  0  0
   11.5214   12.0857   25.1386 H   0  0  0  0  0  0  0  0  0  0  0  0
   11.2009   12.3849   21.5942 H   0  0  0  0  0  0  0  0  0  0  0  0
  1  2  2  0  0  0  0
  1  3  1  0  0  0  0
  2  4  1  0  0  0  0
  3  5  2  0  0  0  0
  4  6  2  0  0  0  0
  5  6  1  0  0  0  0
  6  7  1  0  0  0  0
  7 20  2  0  0  0  0
  7 25  1  0  0  0  0
  8 18  1  0  0  0  0
  8 21  2  0  0  0  0
  8 25  1  0  0  0  0
  9 19  1  0  0  0  0
  9 23  1  0  0  0  0
  9 24  2  0  0  0  0
 10 11  1  0  0  0  0
 10 12  1  0  0  0  0
 11 14  1  0  0  0  0
 12 16  1  0  0  0  0
 13 15  1  0  0  0  0
 13 17  1  0  0  0  0
 14 22  1  0  0  0  0
 15 22  1  0  0  0  0
 16 17  1  0  0  0  0
 16 22  1  0  0  0  0
 17 23  1  0  0  0  0
 18 19  1  0  0  0  0
 20 21  1  0  0  0  0
  1 26  1  0  0  0  0
  2 27  1  0  0  0  0
  3 28  1  0  0  0  0
  4 29  1  0  0  0  0
  5 30  1  0  0  0  0
 10 31  1  0  0  0  0
 10 32  1  0  0  0  0
 11 33  1  0  0  0  0
 11 34  1  0  0  0  0
 12 35  1  0  0  0  0
 12 36  1  0  0  0  0
 13 37  1  0  0  0  0
 13 38  1  0  0  0  0
 14 39  1  0  0  0  0
 14 40  1  0  0  0  0
 15 41  1  0  0  0  0
 15 42  1  0  0  0  0
 16 43  1  0  0  0  0
 17 44  1  0  0  0  0
 18 45  1  0  0  0  0
 18 46  1  0  0  0  0
 19 47  1  0  0  0  0
 19 48  1  0  0  0  0
 23 49  1  0  0  0  0
M  END
> <Catalog ID>
Z423021446

> <PlateID>
1041831-R-15

> <Well>
F10

> <MW (desalted)>
340.419

> <ClogP>
0.749

> <HBD>
1

> <TPSA>
71.260

> <RotBonds>
5

> <ROCS_ShapeQuery>
A71EV2A-x0451_0A_A71EV2A-x0310_0A_A71EV2A-x0416_0A_peptide

> <ROCS_TanimotoCombo>
0.515 

> <ROCS_ShapeTanimoto>
0.319 

> <ROCS_ColorTanimoto>
0.197 

> <ROCS_RefTversky>
0.292 

> <ROCS_RefColorTversky>
0.220 

> <ROCS_RefTverskyCombo>
0.512 

> <ROCS_FitTversky>
1.406 

> <ROCS_FitColorTversky>
0.646 

> <ROCS_FitTverskyCombo>
2.052 

> <ROCS_ColorScore>
-6.739

> <ROCS_Overlap>
2028.343

> <ROCS_Rank>
435                 

$$$$
untitled-dbase-1412_712
  -OEChem-11132311063D

 44 46  0     1  0  0  0  0  0999 V2000
    6.2323   12.3017   25.3040 C   0  0  0  0  0  0  0  0  0  0  0  0
    5.9319   10.9439   25.2148 C   0  0  0  0  0  0  0  0  0  0  0  0
    7.4883   12.7844   24.9186 C   0  0  0  0  0  0  0  0  0  0  0  0
    6.8737   10.0272   24.7389 C   0  0  0  0  0  0  0  0  0  0  0  0
   10.2411   10.7580   23.6239 C   0  0  0  0  0  0  0  0  0  0  0  0
    8.4540   11.8790   24.4359 C   0  0  0  0  0  0  0  0  0  0  0  0
    9.7919   12.0116   23.9697 C   0  0  0  0  0  0  0  0  0  0  0  0
    8.1251   10.5240   24.3573 C   0  0  0  0  0  0  0  0  0  0  0  0
   11.4314   15.0132   22.2869 C   0  0  0  0  0  0  0  0  0  0  0  0
   13.4445   12.9642   22.8838 C   0  0  0  0  0  0  0  0  0  0  0  0
   11.6213   14.7046   19.7904 C   0  0  0  0  0  0  0  0  0  0  0  0
   12.9396   16.4751   20.9825 C   0  0  0  0  0  0  0  0  0  0  0  0
   11.9500   15.5054   18.5382 C   0  0  0  0  0  0  0  0  0  0  0  0
   14.1504   16.1158   20.1338 C   0  0  0  0  0  0  0  0  0  0  0  0
   14.5901   12.1622   22.3617 C   0  0  0  0  0  0  0  0  0  0  0  0
   10.5861   13.2908   23.8696 C   0  0  0  0  0  0  0  0  0  0  0  0
   11.0689   13.5566   22.4500 C   0  0  2  0  0  0  0  0  0  0  0  0
    9.2286    9.8674   23.8610 N   0  0  0  0  0  0  0  0  0  0  0  0
   11.9629   15.3841   21.0474 N   0  0  0  0  0  0  0  0  0  0  0  0
   12.2856   12.8696   22.1260 N   0  0  0  0  0  0  0  0  0  0  0  0
   11.2439   15.7923   23.2244 O   0  0  0  0  0  0  0  0  0  0  0  0
   13.5867   13.6274   23.9044 O   0  0  0  0  0  0  0  0  0  0  0  0
   13.7306   15.8436   18.3829 S   0  0  0  0  0  0  0  0  0  0  0  0
    5.4833   12.9953   25.6767 H   0  0  0  0  0  0  0  0  0  0  0  0
    4.9502   10.5908   25.5196 H   0  0  0  0  0  0  0  0  0  0  0  0
    7.7067   13.8459   24.9934 H   0  0  0  0  0  0  0  0  0  0  0  0
    6.6394    8.9703   24.6708 H   0  0  0  0  0  0  0  0  0  0  0  0
   11.1890   10.4191   23.2291 H   0  0  0  0  0  0  0  0  0  0  0  0
   10.5426   14.4488   19.8303 H   0  0  0  0  0  0  0  0  0  0  0  0
   12.1472   13.7312   19.7394 H   0  0  0  0  0  0  0  0  0  0  0  0
   13.2804   16.7602   21.9861 H   0  0  0  0  0  0  0  0  0  0  0  0
   12.4240   17.3629   20.5805 H   0  0  0  0  0  0  0  0  0  0  0  0
   11.6049   14.9793   17.6361 H   0  0  0  0  0  0  0  0  0  0  0  0
   11.4222   16.4688   18.5658 H   0  0  0  0  0  0  0  0  0  0  0  0
   14.8907   16.9303   20.1812 H   0  0  0  0  0  0  0  0  0  0  0  0
   14.6511   15.2156   20.5275 H   0  0  0  0  0  0  0  0  0  0  0  0
   15.2142   12.7316   21.6543 H   0  0  0  0  0  0  0  0  0  0  0  0
   15.2764   11.8396   23.1610 H   0  0  0  0  0  0  0  0  0  0  0  0
   14.3143   11.2394   21.8268 H   0  0  0  0  0  0  0  0  0  0  0  0
    9.9563   14.1203   24.2187 H   0  0  0  0  0  0  0  0  0  0  0  0
   11.4318   13.2553   24.5700 H   0  0  0  0  0  0  0  0  0  0  0  0
   10.3224   13.3083   21.6951 H   0  0  0  0  0  0  0  0  0  0  0  0
    9.2827    8.8718   23.6959 H   0  0  0  0  0  0  0  0  0  0  0  0
   12.3000   12.2794   21.2934 H   0  0  0  0  0  0  0  0  0  0  0  0
  1  2  2  0  0  0  0
  1  3  1  0  0  0  0
  2  4  1  0  0  0  0
  3  6  2  0  0  0  0
  4  8  2  0  0  0  0
  5  7  2  0  0  0  0
  5 18  1  0  0  0  0
  6  7  1  0  0  0  0
  6  8  1  0  0  0  0
  7 16  1  0  0  0  0
  8 18  1  0  0  0  0
  9 17  1  0  0  0  0
  9 19  1  0  0  0  0
  9 21  2  0  0  0  0
 10 15  1  0  0  0  0
 10 20  1  0  0  0  0
 10 22  2  0  0  0  0
 11 13  1  0  0  0  0
 11 19  1  0  0  0  0
 12 14  1  0  0  0  0
 12 19  1  0  0  0  0
 13 23  1  0  0  0  0
 14 23  1  0  0  0  0
 16 17  1  0  0  0  0
 17 20  1  0  0  0  0
  1 24  1  0  0  0  0
  2 25  1  0  0  0  0
  3 26  1  0  0  0  0
  4 27  1  0  0  0  0
  5 28  1  0  0  0  0
 11 29  1  0  0  0  0
 11 30  1  0  0  0  0
 12 31  1  0  0  0  0
 12 32  1  0  0  0  0
 13 33  1  0  0  0  0
 13 34  1  0  0  0  0
 14 35  1  0  0  0  0
 14 36  1  0  0  0  0
 15 37  1  0  0  0  0
 15 38  1  0  0  0  0
 15 39  1  0  0  0  0
 16 40  1  0  0  0  0
 16 41  1  0  0  0  0
 17 42  1  0  0  0  0
 18 43  1  0  0  0  0
 20 44  1  0  0  0  0
M  END
> <Catalog ID>
Z437579208

> <PlateID>
1041831-R-18

> <Well>
F03

> <MW (desalted)>
331.433

> <ClogP>
1.357

> <HBD>
2

> <TPSA>
65.200

> <RotBonds>
4

> <ROCS_ShapeQuery>
A71EV2A-x0451_0A_A71EV2A-x0310_0A_A71EV2A-x0416_0A_peptide

> <ROCS_TanimotoCombo>
0.515 

> <ROCS_ShapeTanimoto>
0.351 

> <ROCS_ColorTanimoto>
0.165 

> <ROCS_RefTversky>
0.309 

> <ROCS_RefColorTversky>
0.180 

> <ROCS_RefTverskyCombo>
0.489 

> <ROCS_FitTversky>
1.617 

> <ROCS_FitColorTversky>
0.663 

> <ROCS_FitTverskyCombo>
2.281 

> <ROCS_ColorScore>
-5.473

> <ROCS_Overlap>
2147.723

> <ROCS_Rank>
436                 

$$$$
untitled-dbase-2942_4670
  -OEChem-11132311063D

 46 49  0     1  0  0  0  0  0999 V2000
    8.1702    7.7602   23.3246 C   0  0  0  0  0  0  0  0  0  0  0  0
    9.3991    8.0073   22.6973 C   0  0  0  0  0  0  0  0  0  0  0  0
    7.5066    8.7800   24.0059 C   0  0  0  0  0  0  0  0  0  0  0  0
    9.9813    9.2777   22.7435 C   0  0  0  0  0  0  0  0  0  0  0  0
    8.0889   10.0379   24.0349 C   0  0  0  0  0  0  0  0  0  0  0  0
    9.3198   10.2956   23.4148 C   0  0  0  0  0  0  0  0  0  0  0  0
   11.1154   15.5186   24.1930 C   0  0  0  0  0  0  0  0  0  0  0  0
   10.9934   13.6679   23.2767 C   0  0  0  0  0  0  0  0  0  0  0  0
    4.9640   12.3611   27.5368 C   0  0  0  0  0  0  0  0  0  0  0  0
    5.6375   12.3605   28.8891 C   0  0  0  0  0  0  0  0  0  0  0  0
    6.8227   13.2980   28.6924 C   0  0  0  0  0  0  0  0  0  0  0  0
    7.1704   13.1423   27.2255 C   0  0  0  0  0  0  0  0  0  0  0  0
    8.5589   12.3442   24.1053 C   0  0  0  0  0  0  0  0  0  0  0  0
    7.6088   11.2858   24.7208 C   0  0  1  0  0  0  0  0  0  0  0  0
   10.9333   16.5882   25.1805 C   0  0  0  0  0  0  0  0  0  0  0  0
   10.7571   12.2546   22.8285 C   0  0  0  0  0  0  0  0  0  0  0  0
    6.1431   11.6160   24.4848 C   0  0  0  0  0  0  0  0  0  0  0  0
    5.7066   12.8978   25.1851 C   0  0  0  0  0  0  0  0  0  0  0  0
   10.5951   14.2694   24.3690 N   0  0  0  0  0  0  0  0  0  0  0  0
   11.8021   15.7078   23.0623 N   0  0  0  0  0  0  0  0  0  0  0  0
    9.7153   11.6141   23.5908 N   0  0  2  0  0  0  0  0  0  0  0  0
    5.8974   12.8350   26.6179 N   0  0  0  0  0  0  0  0  0  0  0  0
    3.8271   11.9663   27.3257 O   0  0  0  0  0  0  0  0  0  0  0  0
   11.7202   14.4552   22.4411 O   0  0  0  0  0  0  0  0  0  0  0  0
    7.7359    6.7652   23.2840 H   0  0  0  0  0  0  0  0  0  0  0  0
    9.9063    7.2013   22.1738 H   0  0  0  0  0  0  0  0  0  0  0  0
    6.5623    8.5838   24.5019 H   0  0  0  0  0  0  0  0  0  0  0  0
   10.9362    9.4473   22.2565 H   0  0  0  0  0  0  0  0  0  0  0  0
    4.9588   12.7204   29.6660 H   0  0  0  0  0  0  0  0  0  0  0  0
    5.9659   11.3418   29.1180 H   0  0  0  0  0  0  0  0  0  0  0  0
    6.5172   14.3312   28.8983 H   0  0  0  0  0  0  0  0  0  0  0  0
    7.6595   13.0528   29.3526 H   0  0  0  0  0  0  0  0  0  0  0  0
    7.5897   14.0583   26.8016 H   0  0  0  0  0  0  0  0  0  0  0  0
    7.8493   12.3018   27.0532 H   0  0  0  0  0  0  0  0  0  0  0  0
    8.0710   12.8799   23.2801 H   0  0  0  0  0  0  0  0  0  0  0  0
    8.8583   13.0853   24.8547 H   0  0  0  0  0  0  0  0  0  0  0  0
    7.8083   11.1925   25.7956 H   0  0  0  0  0  0  0  0  0  0  0  0
   11.7461   16.5919   25.9299 H   0  0  0  0  0  0  0  0  0  0  0  0
   10.9111   17.5927   24.7164 H   0  0  0  0  0  0  0  0  0  0  0  0
    9.9787   16.4953   25.7330 H   0  0  0  0  0  0  0  0  0  0  0  0
   10.4673   12.2278   21.7724 H   0  0  0  0  0  0  0  0  0  0  0  0
   11.6659   11.6524   22.9317 H   0  0  0  0  0  0  0  0  0  0  0  0
    5.5313   10.7850   24.8560 H   0  0  0  0  0  0  0  0  0  0  0  0
    5.9596   11.6962   23.4063 H   0  0  0  0  0  0  0  0  0  0  0  0
    6.2969   13.7444   24.8206 H   0  0  0  0  0  0  0  0  0  0  0  0
    4.6500   13.1130   24.9967 H   0  0  0  0  0  0  0  0  0  0  0  0
  1  2  2  0  0  0  0
  1  3  1  0  0  0  0
  2  4  1  0  0  0  0
  3  5  2  0  0  0  0
  4  6  2  0  0  0  0
  5  6  1  0  0  0  0
  5 14  1  0  0  0  0
  6 21  1  0  0  0  0
  7 15  1  0  0  0  0
  7 19  1  0  0  0  0
  7 20  2  0  0  0  0
  8 16  1  0  0  0  0
  8 19  2  0  0  0  0
  8 24  1  0  0  0  0
  9 10  1  0  0  0  0
  9 22  1  0  0  0  0
  9 23  2  0  0  0  0
 10 11  1  0  0  0  0
 11 12  1  0  0  0  0
 12 22  1  0  0  0  0
 13 14  1  0  0  0  0
 13 21  1  0  0  0  0
 14 17  1  0  0  0  0
 16 21  1  0  0  0  0
 17 18  1  0  0  0  0
 18 22  1  0  0  0  0
 20 24  1  0  0  0  0
  1 25  1  0  0  0  0
  2 26  1  0  0  0  0
  3 27  1  0  0  0  0
  4 28  1  0  0  0  0
 10 29  1  0  0  0  0
 10 30  1  0  0  0  0
 11 31  1  0  0  0  0
 11 32  1  0  0  0  0
 12 33  1  0  0  0  0
 12 34  1  0  0  0  0
 13 35  1  0  0  0  0
 13 36  1  0  0  0  0
 14 37  1  0  0  0  0
 15 38  1  0  0  0  0
 15 39  1  0  0  0  0
 15 40  1  0  0  0  0
 16 41  1  0  0  0  0
 16 42  1  0  0  0  0
 17 43  1  0  0  0  0
 17 44  1  0  0  0  0
 18 45  1  0  0  0  0
 18 46  1  0  0  0  0
M  END
> <Catalog ID>
Z1362592542

> <PlateID>
1041831-R-37

> <Well>
G03

> <MW (desalted)>
326.393

> <ClogP>
1.379

> <HBD>
0

> <TPSA>
62.470

> <RotBonds>
5

> <ROCS_ShapeQuery>
A71EV2A-x0451_0A_A71EV2A-x0310_0A_A71EV2A-x0416_0A_peptide

> <ROCS_TanimotoCombo>
0.515 

> <ROCS_ShapeTanimoto>
0.356 

> <ROCS_ColorTanimoto>
0.159 

> <ROCS_RefTversky>
0.316 

> <ROCS_RefColorTversky>
0.174 

> <ROCS_RefTverskyCombo>
0.490 

> <ROCS_FitTversky>
1.559 

> <ROCS_FitColorTversky>
0.643 

> <ROCS_FitTverskyCombo>
2.202 

> <ROCS_ColorScore>
-5.309

> <ROCS_Overlap>
2195.856

> <ROCS_Rank>
437                 

$$$$
untitled-dbase-15_1351
  -OEChem-11132311063D

 52 54  0     1  0  0  0  0  0999 V2000
    6.9020   12.7051   25.4483 C   0  0  0  0  0  0  0  0  0  0  0  0
    6.5911   11.5631   26.1837 C   0  0  0  0  0  0  0  0  0  0  0  0
    7.8098   12.6472   24.3847 C   0  0  0  0  0  0  0  0  0  0  0  0
    7.1754   10.3298   25.8811 C   0  0  0  0  0  0  0  0  0  0  0  0
    9.5671    9.6505   23.2478 C   0  0  0  0  0  0  0  0  0  0  0  0
    8.4115   11.4148   24.0611 C   0  0  0  0  0  0  0  0  0  0  0  0
    9.3499   10.9981   23.0757 C   0  0  0  0  0  0  0  0  0  0  0  0
    8.0811   10.2868   24.8153 C   0  0  0  0  0  0  0  0  0  0  0  0
   12.1200   12.5702   23.1148 C   0  0  0  0  0  0  0  0  0  0  0  0
   11.3156   15.3865   22.0628 C   0  0  0  0  0  0  0  0  0  0  0  0
   13.1933   11.1572   24.8190 C   0  0  0  0  0  0  0  0  0  0  0  0
   11.4403   12.7571   25.5535 C   0  0  0  0  0  0  0  0  0  0  0  0
   14.6210   11.6708   24.8864 C   0  0  0  0  0  0  0  0  0  0  0  0
   13.5263   13.3627   26.9240 C   0  0  0  0  0  0  0  0  0  0  0  0
   12.1960   13.8445   26.3326 C   0  0  2  0  0  0  0  0  0  0  0  0
   11.6192   16.2956   20.9184 C   0  0  0  0  0  0  0  0  0  0  0  0
   11.2960   14.3582   27.4635 C   0  0  0  0  0  0  0  0  0  0  0  0
    9.9981   11.8683   22.0271 C   0  0  0  0  0  0  0  0  0  0  0  0
   10.7645   13.0319   22.6414 C   0  0  2  0  0  0  0  0  0  0  0  0
    8.7973    9.2304   24.2992 N   0  0  0  0  0  0  0  0  0  0  0  0
   12.2179   12.1796   24.4523 N   0  0  0  0  0  0  0  0  0  0  0  0
   11.0734   14.0689   21.6999 N   0  0  0  0  0  0  0  0  0  0  0  0
   13.0658   12.5538   22.3227 O   0  0  0  0  0  0  0  0  0  0  0  0
   11.3000   15.8350   23.2031 O   0  0  0  0  0  0  0  0  0  0  0  0
   16.0875   13.1034   26.4909 O   0  0  0  0  0  0  0  0  0  0  0  0
   14.7067   14.2870   24.7577 O   0  0  0  0  0  0  0  0  0  0  0  0
   14.8544   13.2228   25.7329 S   0  0  0  0  0  0  0  0  0  0  0  0
    6.4344   13.6526   25.7023 H   0  0  0  0  0  0  0  0  0  0  0  0
    5.8833   11.6309   27.0058 H   0  0  0  0  0  0  0  0  0  0  0  0
    8.0410   13.5462   23.8204 H   0  0  0  0  0  0  0  0  0  0  0  0
    6.9336    9.4415   26.4548 H   0  0  0  0  0  0  0  0  0  0  0  0
   10.1987    8.9519   22.7163 H   0  0  0  0  0  0  0  0  0  0  0  0
   13.1531   10.3312   24.0984 H   0  0  0  0  0  0  0  0  0  0  0  0
   12.8943   10.7217   25.7829 H   0  0  0  0  0  0  0  0  0  0  0  0
   11.1062   11.9499   26.2116 H   0  0  0  0  0  0  0  0  0  0  0  0
   10.5309   13.1989   25.1312 H   0  0  0  0  0  0  0  0  0  0  0  0
   15.2453   10.9374   25.4220 H   0  0  0  0  0  0  0  0  0  0  0  0
   15.0579   11.7780   23.8810 H   0  0  0  0  0  0  0  0  0  0  0  0
   13.8772   14.0468   27.6866 H   0  0  0  0  0  0  0  0  0  0  0  0
   13.4147   12.3844   27.3744 H   0  0  0  0  0  0  0  0  0  0  0  0
   12.4071   14.6585   25.6892 H   0  0  0  0  0  0  0  0  0  0  0  0
   10.7126   16.7608   20.4989 H   0  0  0  0  0  0  0  0  0  0  0  0
   12.2693   17.1360   21.2100 H   0  0  0  0  0  0  0  0  0  0  0  0
   12.1248   15.8221   20.0616 H   0  0  0  0  0  0  0  0  0  0  0  0
   11.0624   13.5414   28.1414 H   0  0  0  0  0  0  0  0  0  0  0  0
   10.3749   14.7536   27.0436 H   0  0  0  0  0  0  0  0  0  0  0  0
   11.8112   15.1444   28.0091 H   0  0  0  0  0  0  0  0  0  0  0  0
   10.6723   11.2445   21.4247 H   0  0  0  0  0  0  0  0  0  0  0  0
    9.2345   12.2302   21.3250 H   0  0  0  0  0  0  0  0  0  0  0  0
   10.2462   13.4804   23.4893 H   0  0  0  0  0  0  0  0  0  0  0  0
    8.7597    8.2822   24.6469 H   0  0  0  0  0  0  0  0  0  0  0  0
   11.1174   13.8248   20.7098 H   0  0  0  0  0  0  0  0  0  0  0  0
  1  2  2  0  0  0  0
  1  3  1  0  0  0  0
  2  4  1  0  0  0  0
  3  6  2  0  0  0  0
  4  8  2  0  0  0  0
  5  7  2  0  0  0  0
  5 20  1  0  0  0  0
  6  7  1  0  0  0  0
  6  8  1  0  0  0  0
  7 18  1  0  0  0  0
  8 20  1  0  0  0  0
  9 19  1  0  0  0  0
  9 21  1  0  0  0  0
  9 23  2  0  0  0  0
 10 16  1  0  0  0  0
 10 22  1  0  0  0  0
 10 24  2  0  0  0  0
 11 13  1  0  0  0  0
 11 21  1  0  0  0  0
 12 15  1  0  0  0  0
 12 21  1  0  0  0  0
 13 27  1  0  0  0  0
 14 15  1  0  0  0  0
 14 27  1  0  0  0  0
 15 17  1  0  0  0  0
 18 19  1  0  0  0  0
 19 22  1  0  0  0  0
 25 27  2  0  0  0  0
 26 27  2  0  0  0  0
  1 28  1  0  0  0  0
  2 29  1  0  0  0  0
  3 30  1  0  0  0  0
  4 31  1  0  0  0  0
  5 32  1  0  0  0  0
 11 33  1  0  0  0  0
 11 34  1  0  0  0  0
 12 35  1  0  0  0  0
 12 36  1  0  0  0  0
 13 37  1  0  0  0  0
 13 38  1  0  0  0  0
 14 39  1  0  0  0  0
 14 40  1  0  0  0  0
 15 41  1  0  0  0  0
 16 42  1  0  0  0  0
 16 43  1  0  0  0  0
 16 44  1  0  0  0  0
 17 45  1  0  0  0  0
 17 46  1  0  0  0  0
 17 47  1  0  0  0  0
 18 48  1  0  0  0  0
 18 49  1  0  0  0  0
 19 50  1  0  0  0  0
 20 51  1  0  0  0  0
 22 52  1  0  0  0  0
M  END
> <Catalog ID>
Z1870838767

> <PlateID>
1041831-R-01

> <Well>
B06

> <MW (desalted)>
391.485

> <ClogP>
-0.275

> <HBD>
2

> <TPSA>
99.340

> <RotBonds>
4

> <ROCS_ShapeQuery>
A71EV2A-x0451_0A_A71EV2A-x0310_0A_A71EV2A-x0416_0A_peptide

> <ROCS_TanimotoCombo>
0.515 

> <ROCS_ShapeTanimoto>
0.358 

> <ROCS_ColorTanimoto>
0.157 

> <ROCS_RefTversky>
0.320 

> <ROCS_RefColorTversky>
0.180 

> <ROCS_RefTverskyCombo>
0.501 

> <ROCS_FitTversky>
1.496 

> <ROCS_FitColorTversky>
0.543 

> <ROCS_FitTverskyCombo>
2.039 

> <ROCS_ColorScore>
-5.515

> <ROCS_Overlap>
2228.101

> <ROCS_Rank>
438                 

$$$$
untitled-dbase-281_239
  -OEChem-11132311063D

 41 43  0     1  0  0  0  0  0999 V2000
    6.1705   11.3883   25.6750 C   0  0  0  0  0  0  0  0  0  0  0  0
    6.6874   12.6722   25.5331 C   0  0  0  0  0  0  0  0  0  0  0  0
    6.9045   10.2923   25.2287 C   0  0  0  0  0  0  0  0  0  0  0  0
    7.9390   12.8645   24.9437 C   0  0  0  0  0  0  0  0  0  0  0  0
    8.1567   10.4774   24.6264 C   0  0  0  0  0  0  0  0  0  0  0  0
    8.6866   11.7752   24.4693 C   0  0  0  0  0  0  0  0  0  0  0  0
   10.4462   13.3348   23.5312 C   0  0  0  0  0  0  0  0  0  0  0  0
   12.3536   15.1737   22.3269 C   0  0  0  0  0  0  0  0  0  0  0  0
    8.9579    9.2930   24.1521 C   0  0  0  0  0  0  0  0  0  0  0  0
   10.2034   15.5574   19.4838 C   0  0  0  0  0  0  0  0  0  0  0  0
    9.9166   16.6227   20.5268 C   0  0  0  0  0  0  0  0  0  0  0  0
   11.3078   14.7166   20.1185 C   0  0  0  0  0  0  0  0  0  0  0  0
    9.9617   15.8450   21.8360 C   0  0  0  0  0  0  0  0  0  0  0  0
    9.3705    9.4614   22.6964 C   0  0  0  0  0  0  0  0  0  0  0  0
   10.0751   11.9289   23.8872 C   0  0  2  0  0  0  0  0  0  0  0  0
   11.0607   14.8049   21.6268 C   0  0  0  0  0  0  0  0  0  0  0  0
   13.3686   14.2674   22.1304 N   0  0  0  0  0  0  0  0  0  0  0  0
   10.6906   13.5284   22.1850 N   0  0  0  0  0  0  0  0  0  0  0  0
   10.5059   14.1852   24.4115 O   0  0  0  0  0  0  0  0  0  0  0  0
   12.4667   16.2018   22.9899 O   0  0  0  0  0  0  0  0  0  0  0  0
   10.3595   10.9568   22.3625 S   0  0  0  0  0  0  0  0  0  0  0  0
    5.1982   11.2417   26.1364 H   0  0  0  0  0  0  0  0  0  0  0  0
    6.1166   13.5293   25.8837 H   0  0  0  0  0  0  0  0  0  0  0  0
    6.4951    9.2976   25.3560 H   0  0  0  0  0  0  0  0  0  0  0  0
    8.3245   13.8756   24.8589 H   0  0  0  0  0  0  0  0  0  0  0  0
    9.8301    9.1905   24.7787 H   0  0  0  0  0  0  0  0  0  0  0  0
    8.3571    8.3993   24.2237 H   0  0  0  0  0  0  0  0  0  0  0  0
    9.3115   14.9416   19.3169 H   0  0  0  0  0  0  0  0  0  0  0  0
   10.5078   15.9836   18.5236 H   0  0  0  0  0  0  0  0  0  0  0  0
   10.6996   17.3901   20.5133 H   0  0  0  0  0  0  0  0  0  0  0  0
    8.9519   17.1129   20.3679 H   0  0  0  0  0  0  0  0  0  0  0  0
   11.2744   13.6907   19.7347 H   0  0  0  0  0  0  0  0  0  0  0  0
   12.2882   15.1272   19.8459 H   0  0  0  0  0  0  0  0  0  0  0  0
   10.1311   16.5087   22.6904 H   0  0  0  0  0  0  0  0  0  0  0  0
    8.9889   15.3582   21.9847 H   0  0  0  0  0  0  0  0  0  0  0  0
    9.9628    8.5744   22.3741 H   0  0  0  0  0  0  0  0  0  0  0  0
    8.4763    9.4601   22.0291 H   0  0  0  0  0  0  0  0  0  0  0  0
   10.8154   11.5552   24.5960 H   0  0  0  0  0  0  0  0  0  0  0  0
   14.2682   14.4417   22.5662 H   0  0  0  0  0  0  0  0  0  0  0  0
   13.2543   13.4311   21.5670 H   0  0  0  0  0  0  0  0  0  0  0  0
   10.6053   12.7334   21.5589 H   0  0  0  0  0  0  0  0  0  0  0  0
  1  2  2  0  0  0  0
  1  3  1  0  0  0  0
  2  4  1  0  0  0  0
  3  5  2  0  0  0  0
  4  6  2  0  0  0  0
  5  6  1  0  0  0  0
  5  9  1  0  0  0  0
  6 15  1  0  0  0  0
  7 15  1  0  0  0  0
  7 18  1  0  0  0  0
  7 19  2  0  0  0  0
  8 16  1  0  0  0  0
  8 17  1  0  0  0  0
  8 20  2  0  0  0  0
  9 14  1  0  0  0  0
 10 11  1  0  0  0  0
 10 12  1  0  0  0  0
 11 13  1  0  0  0  0
 12 16  1  0  0  0  0
 13 16  1  0  0  0  0
 14 21  1  0  0  0  0
 15 21  1  0  0  0  0
 16 18  1  0  0  0  0
  1 22  1  0  0  0  0
  2 23  1  0  0  0  0
  3 24  1  0  0  0  0
  4 25  1  0  0  0  0
  9 26  1  0  0  0  0
  9 27  1  0  0  0  0
 10 28  1  0  0  0  0
 10 29  1  0  0  0  0
 11 30  1  0  0  0  0
 11 31  1  0  0  0  0
 12 32  1  0  0  0  0
 12 33  1  0  0  0  0
 13 34  1  0  0  0  0
 13 35  1  0  0  0  0
 14 36  1  0  0  0  0
 14 37  1  0  0  0  0
 15 38  1  0  0  0  0
 17 39  1  0  0  0  0
 17 40  1  0  0  0  0
 18 41  1  0  0  0  0
M  END
> <Catalog ID>
Z1274320413

> <PlateID>
1041831-R-04

> <Well>
E02

> <MW (desalted)>
304.407

> <ClogP>
1.966

> <HBD>
2

> <TPSA>
72.190

> <RotBonds>
3

> <ROCS_ShapeQuery>
A71EV2A-x0451_0A_A71EV2A-x0310_0A_A71EV2A-x0416_0A_peptide

> <ROCS_TanimotoCombo>
0.515 

> <ROCS_ShapeTanimoto>
0.344 

> <ROCS_ColorTanimoto>
0.171 

> <ROCS_RefTversky>
0.302 

> <ROCS_RefColorTversky>
0.186 

> <ROCS_RefTverskyCombo>
0.487 

> <ROCS_FitTversky>
1.684 

> <ROCS_FitColorTversky>
0.687 

> <ROCS_FitTverskyCombo>
2.371 

> <ROCS_ColorScore>
-5.658

> <ROCS_Overlap>
2094.492

> <ROCS_Rank>
439                 

$$$$
untitled-dbase-2244_4354
  -OEChem-11132311063D

 48 50  0     1  0  0  0  0  0999 V2000
   12.2914   15.0323   18.7789 C   0  0  0  0  0  0  0  0  0  0  0  0
   13.0949   16.0321   18.2307 C   0  0  0  0  0  0  0  0  0  0  0  0
   12.2428   14.8566   20.1618 C   0  0  0  0  0  0  0  0  0  0  0  0
   13.8498   16.8560   19.0654 C   0  0  0  0  0  0  0  0  0  0  0  0
   12.9977   15.6806   20.9965 C   0  0  0  0  0  0  0  0  0  0  0  0
   13.8013   16.6803   20.4483 C   0  0  0  0  0  0  0  0  0  0  0  0
   12.9138   15.4556   22.4626 C   0  0  0  0  0  0  0  0  0  0  0  0
   10.9001   12.9937   24.0440 C   0  0  0  0  0  0  0  0  0  0  0  0
    6.4713   12.0467   26.0609 C   0  0  0  0  0  0  0  0  0  0  0  0
    7.0919   12.7924   24.8853 C   0  0  0  0  0  0  0  0  0  0  0  0
    9.5200    9.4785   23.3209 C   0  0  0  0  0  0  0  0  0  0  0  0
    7.0099   10.6252   25.9646 C   0  0  0  0  0  0  0  0  0  0  0  0
   10.6052   10.5477   23.4812 C   0  0  0  0  0  0  0  0  0  0  0  0
    8.5080    9.4202   24.4722 C   0  0  0  0  0  0  0  0  0  0  0  0
    8.7671   12.2219   23.0593 C   0  0  0  0  0  0  0  0  0  0  0  0
    7.6577   11.6950   23.9843 C   0  0  1  0  0  0  0  0  0  0  0  0
   12.2939   12.6388   24.5023 C   0  0  0  0  0  0  0  0  0  0  0  0
   13.2293   13.8135   24.2956 C   0  0  0  0  0  0  0  0  0  0  0  0
   10.1192   11.9383   23.5601 N   0  0  0  0  0  0  0  0  0  0  0  0
    8.0922   10.7197   24.9864 N   0  0  1  0  0  0  0  0  0  0  0  0
   13.2805   14.1935   22.9025 N   0  0  0  0  0  0  0  0  0  0  0  0
   12.5163   16.3642   23.1872 O   0  0  0  0  0  0  0  0  0  0  0  0
   10.5171   14.1636   24.1199 O   0  0  0  0  0  0  0  0  0  0  0  0
   14.7512   17.7217   21.4461 Cl  0  0  0  0  0  0  0  0  0  0  0  0
   11.7038   14.3907   18.1287 H   0  0  0  0  0  0  0  0  0  0  0  0
   13.1325   16.1688   17.1539 H   0  0  0  0  0  0  0  0  0  0  0  0
   11.6125   14.0737   20.5761 H   0  0  0  0  0  0  0  0  0  0  0  0
   14.4708   17.6304   18.6221 H   0  0  0  0  0  0  0  0  0  0  0  0
    6.7900   12.5114   27.0095 H   0  0  0  0  0  0  0  0  0  0  0  0
    5.3711   12.0779   26.0358 H   0  0  0  0  0  0  0  0  0  0  0  0
    6.3081   13.3433   24.3534 H   0  0  0  0  0  0  0  0  0  0  0  0
    7.8331   13.5174   25.2338 H   0  0  0  0  0  0  0  0  0  0  0  0
    8.9649    9.6907   22.3996 H   0  0  0  0  0  0  0  0  0  0  0  0
    9.9838    8.4954   23.1781 H   0  0  0  0  0  0  0  0  0  0  0  0
    7.3673   10.2686   26.9434 H   0  0  0  0  0  0  0  0  0  0  0  0
    6.2070    9.9458   25.6280 H   0  0  0  0  0  0  0  0  0  0  0  0
   11.1708   10.3218   24.4094 H   0  0  0  0  0  0  0  0  0  0  0  0
   11.3685   10.4848   22.6759 H   0  0  0  0  0  0  0  0  0  0  0  0
    7.6364    8.8208   24.1598 H   0  0  0  0  0  0  0  0  0  0  0  0
    8.9880    8.8492   25.2837 H   0  0  0  0  0  0  0  0  0  0  0  0
    8.6833   11.7481   22.0898 H   0  0  0  0  0  0  0  0  0  0  0  0
    8.6591   13.2904   22.9397 H   0  0  0  0  0  0  0  0  0  0  0  0
    6.8095   11.3101   23.3941 H   0  0  0  0  0  0  0  0  0  0  0  0
   12.6128   11.7890   23.8988 H   0  0  0  0  0  0  0  0  0  0  0  0
   12.2341   12.3403   25.5487 H   0  0  0  0  0  0  0  0  0  0  0  0
   12.8612   14.6653   24.8768 H   0  0  0  0  0  0  0  0  0  0  0  0
   14.2426   13.5845   24.6420 H   0  0  0  0  0  0  0  0  0  0  0  0
   13.5393   13.4728   22.2363 H   0  0  0  0  0  0  0  0  0  0  0  0
  1  2  2  0  0  0  0
  1  3  1  0  0  0  0
  2  4  1  0  0  0  0
  3  5  2  0  0  0  0
  4  6  2  0  0  0  0
  5  6  1  0  0  0  0
  5  7  1  0  0  0  0
  6 24  1  0  0  0  0
  7 21  1  0  0  0  0
  7 22  2  0  0  0  0
  8 17  1  0  0  0  0
  8 19  1  0  0  0  0
  8 23  2  0  0  0  0
  9 10  1  0  0  0  0
  9 12  1  0  0  0  0
 10 16  1  0  0  0  0
 11 13  1  0  0  0  0
 11 14  1  0  0  0  0
 12 20  1  0  0  0  0
 13 19  1  0  0  0  0
 14 20  1  0  0  0  0
 15 16  1  0  0  0  0
 15 19  1  0  0  0  0
 16 20  1  0  0  0  0
 17 18  1  0  0  0  0
 18 21  1  0  0  0  0
  1 25  1  0  0  0  0
  2 26  1  0  0  0  0
  3 27  1  0  0  0  0
  4 28  1  0  0  0  0
  9 29  1  0  0  0  0
  9 30  1  0  0  0  0
 10 31  1  0  0  0  0
 10 32  1  0  0  0  0
 11 33  1  0  0  0  0
 11 34  1  0  0  0  0
 12 35  1  0  0  0  0
 12 36  1  0  0  0  0
 13 37  1  0  0  0  0
 13 38  1  0  0  0  0
 14 39  1  0  0  0  0
 14 40  1  0  0  0  0
 15 41  1  0  0  0  0
 15 42  1  0  0  0  0
 16 43  1  0  0  0  0
 17 44  1  0  0  0  0
 17 45  1  0  0  0  0
 18 46  1  0  0  0  0
 18 47  1  0  0  0  0
 21 48  1  0  0  0  0
M  END
> <Catalog ID>
Z955888380

> <PlateID>
1041831-R-29

> <Well>
A05

> <MW (desalted)>
349.855

> <ClogP>
1.305

> <HBD>
1

> <TPSA>
52.650

> <RotBonds>
4

> <ROCS_ShapeQuery>
A71EV2A-x0451_0A_A71EV2A-x0310_0A_A71EV2A-x0416_0A_peptide

> <ROCS_TanimotoCombo>
0.515 

> <ROCS_ShapeTanimoto>
0.333 

> <ROCS_ColorTanimoto>
0.182 

> <ROCS_RefTversky>
0.299 

> <ROCS_RefColorTversky>
0.196 

> <ROCS_RefTverskyCombo>
0.494 

> <ROCS_FitTversky>
1.525 

> <ROCS_FitColorTversky>
0.723 

> <ROCS_FitTverskyCombo>
2.248 

> <ROCS_ColorScore>
-5.958

> <ROCS_Overlap>
2076.695

> <ROCS_Rank>
440                 

$$$$
untitled-dbase-3015_7517
  -OEChem-11132311063D

 54 57  0     1  0  0  0  0  0999 V2000
   14.0000   15.6912   24.9513 C   0  0  0  0  0  0  0  0  0  0  0  0
   13.3099   16.7761   24.4107 C   0  0  0  0  0  0  0  0  0  0  0  0
   14.1224   14.5087   24.2214 C   0  0  0  0  0  0  0  0  0  0  0  0
   12.7421   16.6787   23.1404 C   0  0  0  0  0  0  0  0  0  0  0  0
   13.5546   14.4113   22.9511 C   0  0  0  0  0  0  0  0  0  0  0  0
   12.8644   15.4962   22.4105 C   0  0  0  0  0  0  0  0  0  0  0  0
   10.7663   13.4023   23.1865 C   0  0  0  0  0  0  0  0  0  0  0  0
   14.3043   16.2476   18.9688 C   0  0  0  0  0  0  0  0  0  0  0  0
   13.5311   17.2718   19.7909 C   0  0  0  0  0  0  0  0  0  0  0  0
   14.3899   14.9014   19.6780 C   0  0  0  0  0  0  0  0  0  0  0  0
   12.1614   16.7382   20.2218 C   0  0  0  0  0  0  0  0  0  0  0  0
   13.0028   14.3930   20.0746 C   0  0  0  0  0  0  0  0  0  0  0  0
    7.9219   12.3289   24.4613 C   0  0  0  0  0  0  0  0  0  0  0  0
    8.4216   12.0570   23.0380 C   0  0  0  0  0  0  0  0  0  0  0  0
    9.4471    9.9228   23.5485 C   0  0  0  0  0  0  0  0  0  0  0  0
    8.0007   11.1327   25.3575 C   0  0  2  0  0  0  0  0  0  0  0  0
    8.8146    9.9346   24.9078 C   0  0  1  0  0  0  0  0  0  0  0  0
   12.2305   15.3866   20.9923 C   0  0  0  0  0  0  0  0  0  0  0  0
    7.3278    9.8502   25.0262 C   0  0  0  0  0  0  0  0  0  0  0  0
   10.8018   11.9424   23.5602 C   0  0  0  0  0  0  0  0  0  0  0  0
   10.7831   14.8699   21.1717 C   0  0  0  0  0  0  0  0  0  0  0  0
    9.6524   11.2582   22.9733 N   0  0  2  0  0  0  0  0  0  0  0  0
   10.8068   13.5942   21.8001 N   0  0  0  0  0  0  0  0  0  0  0  0
   10.7060   14.3098   24.0119 O   0  0  0  0  0  0  0  0  0  0  0  0
    6.5245    9.7350   23.9144 F   0  0  0  0  0  0  0  0  0  0  0  0
    6.7562    9.0890   26.0213 F   0  0  0  0  0  0  0  0  0  0  0  0
   14.4432   15.7677   25.9398 H   0  0  0  0  0  0  0  0  0  0  0  0
   13.2155   17.6973   24.9783 H   0  0  0  0  0  0  0  0  0  0  0  0
   14.6605   13.6642   24.6415 H   0  0  0  0  0  0  0  0  0  0  0  0
   12.2060   17.5291   22.7272 H   0  0  0  0  0  0  0  0  0  0  0  0
   13.6548   13.4860   22.3899 H   0  0  0  0  0  0  0  0  0  0  0  0
   13.8105   16.1152   17.9982 H   0  0  0  0  0  0  0  0  0  0  0  0
   15.3130   16.6232   18.7632 H   0  0  0  0  0  0  0  0  0  0  0  0
   14.1172   17.5508   20.6747 H   0  0  0  0  0  0  0  0  0  0  0  0
   13.3971   18.1867   19.2022 H   0  0  0  0  0  0  0  0  0  0  0  0
   14.8692   14.1716   19.0154 H   0  0  0  0  0  0  0  0  0  0  0  0
   15.0304   14.9884   20.5634 H   0  0  0  0  0  0  0  0  0  0  0  0
   11.6692   17.4978   20.8431 H   0  0  0  0  0  0  0  0  0  0  0  0
   11.5367   16.6169   19.3266 H   0  0  0  0  0  0  0  0  0  0  0  0
   12.4197   14.2003   19.1642 H   0  0  0  0  0  0  0  0  0  0  0  0
   13.1159   13.4270   20.5838 H   0  0  0  0  0  0  0  0  0  0  0  0
    8.5339   13.1244   24.9027 H   0  0  0  0  0  0  0  0  0  0  0  0
    6.8923   12.6996   24.4284 H   0  0  0  0  0  0  0  0  0  0  0  0
    7.6149   11.5748   22.4367 H   0  0  0  0  0  0  0  0  0  0  0  0
    8.5803   13.0451   22.5488 H   0  0  0  0  0  0  0  0  0  0  0  0
   10.4282    9.4179   23.6363 H   0  0  0  0  0  0  0  0  0  0  0  0
    8.8481    9.2838   22.8685 H   0  0  0  0  0  0  0  0  0  0  0  0
    8.0347   11.4105   26.4046 H   0  0  0  0  0  0  0  0  0  0  0  0
    9.4071    9.4182   25.6533 H   0  0  0  0  0  0  0  0  0  0  0  0
   11.7227   11.4878   23.1830 H   0  0  0  0  0  0  0  0  0  0  0  0
   10.7653   11.8370   24.6484 H   0  0  0  0  0  0  0  0  0  0  0  0
   10.2612   15.5963   21.7896 H   0  0  0  0  0  0  0  0  0  0  0  0
   10.3442   14.8046   20.1793 H   0  0  0  0  0  0  0  0  0  0  0  0
   10.8568   12.7626   21.2001 H   0  0  0  0  0  0  0  0  0  0  0  0
  1  2  2  0  0  0  0
  1  3  1  0  0  0  0
  2  4  1  0  0  0  0
  3  5  2  0  0  0  0
  4  6  2  0  0  0  0
  5  6  1  0  0  0  0
  6 18  1  0  0  0  0
  7 20  1  0  0  0  0
  7 23  1  0  0  0  0
  7 24  2  0  0  0  0
  8  9  1  0  0  0  0
  8 10  1  0  0  0  0
  9 11  1  0  0  0  0
 10 12  1  0  0  0  0
 11 18  1  0  0  0  0
 12 18  1  0  0  0  0
 13 14  1  0  0  0  0
 13 16  1  0  0  0  0
 14 22  1  0  0  0  0
 15 17  1  0  0  0  0
 15 22  1  0  0  0  0
 16 17  1  0  0  0  0
 16 19  1  0  0  0  0
 17 19  1  0  0  0  0
 18 21  1  0  0  0  0
 19 25  1  0  0  0  0
 19 26  1  0  0  0  0
 20 22  1  0  0  0  0
 21 23  1  0  0  0  0
  1 27  1  0  0  0  0
  2 28  1  0  0  0  0
  3 29  1  0  0  0  0
  4 30  1  0  0  0  0
  5 31  1  0  0  0  0
  8 32  1  0  0  0  0
  8 33  1  0  0  0  0
  9 34  1  0  0  0  0
  9 35  1  0  0  0  0
 10 36  1  0  0  0  0
 10 37  1  0  0  0  0
 11 38  1  0  0  0  0
 11 39  1  0  0  0  0
 12 40  1  0  0  0  0
 12 41  1  0  0  0  0
 13 42  1  0  0  0  0
 13 43  1  0  0  0  0
 14 44  1  0  0  0  0
 14 45  1  0  0  0  0
 15 46  1  0  0  0  0
 15 47  1  0  0  0  0
 16 48  1  0  0  0  0
 17 49  1  0  0  0  0
 20 50  1  0  0  0  0
 20 51  1  0  0  0  0
 21 52  1  0  0  0  0
 21 53  1  0  0  0  0
 23 54  1  0  0  0  0
M  END
> <Catalog ID>
Z2234734267

> <PlateID>
1041831-R-38

> <Well>
F06

> <MW (desalted)>
362.457

> <ClogP>
3.885

> <HBD>
1

> <TPSA>
32.340

> <RotBonds>
5

> <ROCS_ShapeQuery>
A71EV2A-x0451_0A_A71EV2A-x0310_0A_A71EV2A-x0416_0A_peptide

> <ROCS_TanimotoCombo>
0.515 

> <ROCS_ShapeTanimoto>
0.323 

> <ROCS_ColorTanimoto>
0.192 

> <ROCS_RefTversky>
0.295 

> <ROCS_RefColorTversky>
0.213 

> <ROCS_RefTverskyCombo>
0.509 

> <ROCS_FitTversky>
1.409 

> <ROCS_FitColorTversky>
0.654 

> <ROCS_FitTverskyCombo>
2.064 

> <ROCS_ColorScore>
-6.524

> <ROCS_Overlap>
2054.290

> <ROCS_Rank>
441                 

$$$$
untitled-dbase-1738_13111
  -OEChem-11132311063D

 42 44  0     0  0  0  0  0  0999 V2000
    5.1759   12.5978   28.5178 C   0  0  0  0  0  0  0  0  0  0  0  0
    6.4349   12.0443   28.2853 C   0  0  0  0  0  0  0  0  0  0  0  0
    4.2157   12.5963   27.5059 C   0  0  0  0  0  0  0  0  0  0  0  0
    6.7339   11.4896   27.0409 C   0  0  0  0  0  0  0  0  0  0  0  0
    4.5147   12.0416   26.2615 C   0  0  0  0  0  0  0  0  0  0  0  0
    9.4563   10.4320   23.8383 C   0  0  0  0  0  0  0  0  0  0  0  0
    8.2252   12.1929   24.3058 C   0  0  0  0  0  0  0  0  0  0  0  0
   13.4464   15.0752   18.7602 C   0  0  0  0  0  0  0  0  0  0  0  0
    5.7738   11.4881   26.0290 C   0  0  0  0  0  0  0  0  0  0  0  0
    9.5053   11.8336   23.9612 C   0  0  0  0  0  0  0  0  0  0  0  0
   14.0037   15.8970   19.7174 C   0  0  0  0  0  0  0  0  0  0  0  0
   12.0334   15.6093   20.6366 C   0  0  0  0  0  0  0  0  0  0  0  0
   15.3675   16.4612   19.6812 C   0  0  0  0  0  0  0  0  0  0  0  0
    6.0929   10.8953   24.6981 C   0  0  0  0  0  0  0  0  0  0  0  0
   10.8846   15.7080   21.6101 C   0  0  0  0  0  0  0  0  0  0  0  0
   10.0239   14.4474   21.6453 C   0  0  0  0  0  0  0  0  0  0  0  0
    8.2414    9.9349   24.0849 N   0  0  0  0  0  0  0  0  0  0  0  0
   13.1948   16.2046   20.7939 N   0  0  0  0  0  0  0  0  0  0  0  0
    7.5151   11.0301   24.3663 N   0  0  0  0  0  0  0  0  0  0  0  0
   10.7807   13.2592   22.0647 N   0  0  0  0  0  0  0  0  0  0  0  0
   10.6751   14.1042   24.4961 O   0  0  0  0  0  0  0  0  0  0  0  0
   12.0852   12.0935   23.9548 O   0  0  0  0  0  0  0  0  0  0  0  0
   11.8455   14.6633   19.2171 S   0  0  0  0  0  0  0  0  0  0  0  0
   10.8436   12.8536   23.7352 S   0  0  0  0  0  0  0  0  0  0  0  0
    4.9428   13.0285   29.4872 H   0  0  0  0  0  0  0  0  0  0  0  0
    7.1823   12.0444   29.0733 H   0  0  0  0  0  0  0  0  0  0  0  0
    3.2350   13.0261   27.6869 H   0  0  0  0  0  0  0  0  0  0  0  0
    7.7176   11.0607   26.8687 H   0  0  0  0  0  0  0  0  0  0  0  0
    3.7604   12.0450   25.4791 H   0  0  0  0  0  0  0  0  0  0  0  0
   10.2537    9.7496   23.5799 H   0  0  0  0  0  0  0  0  0  0  0  0
    7.7702   13.1530   24.5082 H   0  0  0  0  0  0  0  0  0  0  0  0
   13.8857   14.7068   17.8440 H   0  0  0  0  0  0  0  0  0  0  0  0
   15.3798   17.4376   19.1700 H   0  0  0  0  0  0  0  0  0  0  0  0
   15.7816   16.6074   20.6934 H   0  0  0  0  0  0  0  0  0  0  0  0
   16.0754   15.7981   19.1551 H   0  0  0  0  0  0  0  0  0  0  0  0
    5.8409    9.8237   24.6563 H   0  0  0  0  0  0  0  0  0  0  0  0
    5.5158   11.3708   23.8891 H   0  0  0  0  0  0  0  0  0  0  0  0
   10.2608   16.5651   21.3265 H   0  0  0  0  0  0  0  0  0  0  0  0
   11.2672   15.9322   22.6140 H   0  0  0  0  0  0  0  0  0  0  0  0
    9.2086   14.5726   22.3648 H   0  0  0  0  0  0  0  0  0  0  0  0
    9.5847   14.2306   20.6660 H   0  0  0  0  0  0  0  0  0  0  0  0
   10.8605   12.5072   21.3694 H   0  0  0  0  0  0  0  0  0  0  0  0
  1  2  2  0  0  0  0
  1  3  1  0  0  0  0
  2  4  1  0  0  0  0
  3  5  2  0  0  0  0
  4  9  2  0  0  0  0
  5  9  1  0  0  0  0
  6 10  1  0  0  0  0
  6 17  2  0  0  0  0
  7 10  2  0  0  0  0
  7 19  1  0  0  0  0
  8 11  2  0  0  0  0
  8 23  1  0  0  0  0
  9 14  1  0  0  0  0
 10 24  1  0  0  0  0
 11 13  1  0  0  0  0
 11 18  1  0  0  0  0
 12 15  1  0  0  0  0
 12 18  2  0  0  0  0
 12 23  1  0  0  0  0
 14 19  1  0  0  0  0
 15 16  1  0  0  0  0
 16 20  1  0  0  0  0
 17 19  1  0  0  0  0
 20 24  1  0  0  0  0
 21 24  2  0  0  0  0
 22 24  2  0  0  0  0
  1 25  1  0  0  0  0
  2 26  1  0  0  0  0
  3 27  1  0  0  0  0
  4 28  1  0  0  0  0
  5 29  1  0  0  0  0
  6 30  1  0  0  0  0
  7 31  1  0  0  0  0
  8 32  1  0  0  0  0
 13 33  1  0  0  0  0
 13 34  1  0  0  0  0
 13 35  1  0  0  0  0
 14 36  1  0  0  0  0
 14 37  1  0  0  0  0
 15 38  1  0  0  0  0
 15 39  1  0  0  0  0
 16 40  1  0  0  0  0
 16 41  1  0  0  0  0
 20 42  1  0  0  0  0
M  END
> <Catalog ID>
Z940610430

> <PlateID>
1041831-R-22

> <Well>
F09

> <MW (desalted)>
362.470

> <ClogP>
2.527

> <HBD>
1

> <TPSA>
76.880

> <RotBonds>
6

> <ROCS_ShapeQuery>
A71EV2A-x0451_0A_A71EV2A-x0310_0A_A71EV2A-x0416_0A_peptide

> <ROCS_TanimotoCombo>
0.515 

> <ROCS_ShapeTanimoto>
0.327 

> <ROCS_ColorTanimoto>
0.188 

> <ROCS_RefTversky>
0.295 

> <ROCS_RefColorTversky>
0.205 

> <ROCS_RefTverskyCombo>
0.500 

> <ROCS_FitTversky>
1.515 

> <ROCS_FitColorTversky>
0.682 

> <ROCS_FitTverskyCombo>
2.198 

> <ROCS_ColorScore>
-6.271

> <ROCS_Overlap>
2046.658

> <ROCS_Rank>
442                 

$$$$
untitled-dbase-2618_4134
  -OEChem-11132311063D

 49 52  0     1  0  0  0  0  0999 V2000
   14.3204   16.4666   18.9731 C   0  0  0  0  0  0  0  0  0  0  0  0
   13.3636   15.9124   18.1228 C   0  0  0  0  0  0  0  0  0  0  0  0
   14.1408   16.4112   20.3553 C   0  0  0  0  0  0  0  0  0  0  0  0
   12.2273   15.3029   18.6546 C   0  0  0  0  0  0  0  0  0  0  0  0
   13.0045   15.8017   20.8871 C   0  0  0  0  0  0  0  0  0  0  0  0
   10.1897   15.9506   23.8616 C   0  0  0  0  0  0  0  0  0  0  0  0
   10.1670   16.0983   22.4948 C   0  0  0  0  0  0  0  0  0  0  0  0
   12.0477   15.2475   20.0368 C   0  0  0  0  0  0  0  0  0  0  0  0
   10.9439   14.1205   23.0792 C   0  0  0  0  0  0  0  0  0  0  0  0
    8.9625   10.0523   23.2909 C   0  0  0  0  0  0  0  0  0  0  0  0
    8.3806   11.9036   26.4900 C   0  0  0  0  0  0  0  0  0  0  0  0
    8.6590   12.4349   23.9864 C   0  0  0  0  0  0  0  0  0  0  0  0
    8.0434    9.6573   24.4384 C   0  0  0  0  0  0  0  0  0  0  0  0
    7.1738   11.9530   27.4064 C   0  0  0  0  0  0  0  0  0  0  0  0
    6.6011   12.9409   25.3739 C   0  0  0  0  0  0  0  0  0  0  0  0
    9.6802   11.3617   23.6079 C   0  0  2  0  0  0  0  0  0  0  0  0
    7.7375   11.9549   25.1116 C   0  0  2  0  0  0  0  0  0  0  0  0
   10.8219   14.5903   20.6112 C   0  0  0  0  0  0  0  0  0  0  0  0
   11.5026   12.7363   22.9181 C   0  0  0  0  0  0  0  0  0  0  0  0
   10.6746   14.7174   24.2189 N   0  0  0  0  0  0  0  0  0  0  0  0
   10.6534   14.9180   22.0073 N   0  0  0  0  0  0  0  0  0  0  0  0
   10.4873   11.7856   22.4906 N   0  0  0  0  0  0  0  0  0  0  0  0
    6.1736   12.7261   26.7305 O   0  0  0  0  0  0  0  0  0  0  0  0
    7.1287   10.7021   24.7638 O   0  0  0  0  0  0  0  0  0  0  0  0
   15.2058   16.9400   18.5589 H   0  0  0  0  0  0  0  0  0  0  0  0
   13.5038   15.9545   17.0466 H   0  0  0  0  0  0  0  0  0  0  0  0
   14.8861   16.8416   21.0177 H   0  0  0  0  0  0  0  0  0  0  0  0
   11.4870   14.8739   17.9844 H   0  0  0  0  0  0  0  0  0  0  0  0
   12.8729   15.7633   21.9652 H   0  0  0  0  0  0  0  0  0  0  0  0
    9.8816   16.6697   24.6066 H   0  0  0  0  0  0  0  0  0  0  0  0
    9.8585   16.9110   21.8521 H   0  0  0  0  0  0  0  0  0  0  0  0
    9.6812    9.2482   23.0947 H   0  0  0  0  0  0  0  0  0  0  0  0
    8.3566   10.1782   22.3835 H   0  0  0  0  0  0  0  0  0  0  0  0
    8.9972   12.7957   26.6559 H   0  0  0  0  0  0  0  0  0  0  0  0
    8.9959   11.0243   26.6933 H   0  0  0  0  0  0  0  0  0  0  0  0
    9.1677   13.3643   24.2721 H   0  0  0  0  0  0  0  0  0  0  0  0
    8.0458   12.6666   23.1040 H   0  0  0  0  0  0  0  0  0  0  0  0
    7.4511    8.7832   24.1483 H   0  0  0  0  0  0  0  0  0  0  0  0
    8.6167    9.3696   25.3255 H   0  0  0  0  0  0  0  0  0  0  0  0
    6.7637   10.9528   27.5820 H   0  0  0  0  0  0  0  0  0  0  0  0
    7.4015   12.4106   28.3733 H   0  0  0  0  0  0  0  0  0  0  0  0
    6.9327   13.9827   25.3019 H   0  0  0  0  0  0  0  0  0  0  0  0
    5.7413   12.7927   24.7134 H   0  0  0  0  0  0  0  0  0  0  0  0
   10.3496   11.1915   24.4731 H   0  0  0  0  0  0  0  0  0  0  0  0
    9.9174   14.9012   20.0742 H   0  0  0  0  0  0  0  0  0  0  0  0
   10.8780   13.4987   20.5198 H   0  0  0  0  0  0  0  0  0  0  0  0
   12.3065   12.7286   22.1740 H   0  0  0  0  0  0  0  0  0  0  0  0
   11.9272   12.3719   23.8594 H   0  0  0  0  0  0  0  0  0  0  0  0
   10.9386   10.9705   22.0798 H   0  0  0  0  0  0  0  0  0  0  0  0
  1  2  2  0  0  0  0
  1  3  1  0  0  0  0
  2  4  1  0  0  0  0
  3  5  2  0  0  0  0
  4  8  2  0  0  0  0
  5  8  1  0  0  0  0
  6  7  2  0  0  0  0
  6 20  1  0  0  0  0
  7 21  1  0  0  0  0
  8 18  1  0  0  0  0
  9 19  1  0  0  0  0
  9 20  2  0  0  0  0
  9 21  1  0  0  0  0
 10 13  1  0  0  0  0
 10 16  1  0  0  0  0
 11 14  1  0  0  0  0
 11 17  1  0  0  0  0
 12 16  1  0  0  0  0
 12 17  1  0  0  0  0
 13 24  1  0  0  0  0
 14 23  1  0  0  0  0
 15 17  1  0  0  0  0
 15 23  1  0  0  0  0
 16 22  1  0  0  0  0
 17 24  1  0  0  0  0
 18 21  1  0  0  0  0
 19 22  1  0  0  0  0
  1 25  1  0  0  0  0
  2 26  1  0  0  0  0
  3 27  1  0  0  0  0
  4 28  1  0  0  0  0
  5 29  1  0  0  0  0
  6 30  1  0  0  0  0
  7 31  1  0  0  0  0
 10 32  1  0  0  0  0
 10 33  1  0  0  0  0
 11 34  1  0  0  0  0
 11 35  1  0  0  0  0
 12 36  1  0  0  0  0
 12 37  1  0  0  0  0
 13 38  1  0  0  0  0
 13 39  1  0  0  0  0
 14 40  1  0  0  0  0
 14 41  1  0  0  0  0
 15 42  1  0  0  0  0
 15 43  1  0  0  0  0
 16 44  1  0  0  0  0
 18 45  1  0  0  0  0
 18 46  1  0  0  0  0
 19 47  1  0  0  0  0
 19 48  1  0  0  0  0
 22 49  1  0  0  0  0
M  END
> <Catalog ID>
Z1575870568

> <PlateID>
1041831-R-33

> <Well>
F09

> <MW (desalted)>
327.421

> <ClogP>
0.193

> <HBD>
1

> <TPSA>
48.310

> <RotBonds>
5

> <ROCS_ShapeQuery>
A71EV2A-x0451_0A_A71EV2A-x0310_0A_A71EV2A-x0416_0A_peptide

> <ROCS_TanimotoCombo>
0.515 

> <ROCS_ShapeTanimoto>
0.352 

> <ROCS_ColorTanimoto>
0.163 

> <ROCS_RefTversky>
0.312 

> <ROCS_RefColorTversky>
0.191 

> <ROCS_RefTverskyCombo>
0.504 

> <ROCS_FitTversky>
1.551 

> <ROCS_FitColorTversky>
0.528 

> <ROCS_FitTverskyCombo>
2.079 

> <ROCS_ColorScore>
-5.853

> <ROCS_Overlap>
2171.937

> <ROCS_Rank>
443                 

$$$$
untitled-dbase-2634_11186
  -OEChem-11132311063D

 48 51  0     1  0  0  0  0  0999 V2000
   13.8919   15.3185   18.7625 C   0  0  0  0  0  0  0  0  0  0  0  0
   14.0830   16.6241   19.2146 C   0  0  0  0  0  0  0  0  0  0  0  0
   12.8702   14.5363   19.3010 C   0  0  0  0  0  0  0  0  0  0  0  0
   13.2523   17.1475   20.2054 C   0  0  0  0  0  0  0  0  0  0  0  0
   12.0396   15.0598   20.2918 C   0  0  0  0  0  0  0  0  0  0  0  0
   12.5612   12.7772   24.0099 C   0  0  0  0  0  0  0  0  0  0  0  0
   13.3852   14.8842   23.6765 C   0  0  0  0  0  0  0  0  0  0  0  0
   12.2306   16.3654   20.7440 C   0  0  0  0  0  0  0  0  0  0  0  0
   11.2904   13.2301   23.7318 C   0  0  0  0  0  0  0  0  0  0  0  0
   12.1145   15.3371   23.3976 C   0  0  0  0  0  0  0  0  0  0  0  0
    6.3381   11.2741   26.2274 C   0  0  0  0  0  0  0  0  0  0  0  0
    6.7355   12.4883   25.4061 C   0  0  0  0  0  0  0  0  0  0  0  0
    9.3728   10.2844   22.6550 C   0  0  0  0  0  0  0  0  0  0  0  0
    6.6240   10.1237   25.2874 C   0  0  0  0  0  0  0  0  0  0  0  0
   10.5209   10.9079   23.4483 C   0  0  0  0  0  0  0  0  0  0  0  0
    8.2275    9.7345   23.5088 C   0  0  0  0  0  0  0  0  0  0  0  0
    9.1769   12.6310   24.7559 C   0  0  0  0  0  0  0  0  0  0  0  0
    7.8212   11.9846   24.4370 C   0  0  1  0  0  0  0  0  0  0  0  0
   11.3368   16.9278   21.8100 C   0  0  0  0  0  0  0  0  0  0  0  0
   13.6314   13.5961   23.9873 N   0  0  0  0  0  0  0  0  0  0  0  0
   11.0442   14.5182   23.4206 N   0  0  0  0  0  0  0  0  0  0  0  0
   10.2287   12.3089   23.7773 N   0  0  1  0  0  0  0  0  0  0  0  0
    7.8830   10.5399   24.6728 N   0  0  1  0  0  0  0  0  0  0  0  0
   11.9046   16.6507   23.0867 O   0  0  0  0  0  0  0  0  0  0  0  0
   14.5380   14.9115   17.9900 H   0  0  0  0  0  0  0  0  0  0  0  0
   14.8778   17.2336   18.7946 H   0  0  0  0  0  0  0  0  0  0  0  0
   12.7205   13.5201   18.9484 H   0  0  0  0  0  0  0  0  0  0  0  0
   13.4087   18.1658   20.5517 H   0  0  0  0  0  0  0  0  0  0  0  0
   11.2462   14.4430   20.7056 H   0  0  0  0  0  0  0  0  0  0  0  0
   12.7705   11.7436   24.2612 H   0  0  0  0  0  0  0  0  0  0  0  0
   14.2485   15.5386   23.6599 H   0  0  0  0  0  0  0  0  0  0  0  0
    6.9664   11.2047   27.1228 H   0  0  0  0  0  0  0  0  0  0  0  0
    5.2924   11.3107   26.5428 H   0  0  0  0  0  0  0  0  0  0  0  0
    5.8683   12.8402   24.8329 H   0  0  0  0  0  0  0  0  0  0  0  0
    7.0617   13.3107   26.0520 H   0  0  0  0  0  0  0  0  0  0  0  0
    8.9560   11.0532   21.9894 H   0  0  0  0  0  0  0  0  0  0  0  0
    9.7611    9.4954   21.9951 H   0  0  0  0  0  0  0  0  0  0  0  0
    6.7231    9.1780   25.8282 H   0  0  0  0  0  0  0  0  0  0  0  0
    5.8169   10.0303   24.5500 H   0  0  0  0  0  0  0  0  0  0  0  0
   10.6297   10.3278   24.3756 H   0  0  0  0  0  0  0  0  0  0  0  0
   11.4798   10.8144   22.9238 H   0  0  0  0  0  0  0  0  0  0  0  0
    7.3428    9.5696   22.8678 H   0  0  0  0  0  0  0  0  0  0  0  0
    8.5386    8.7303   23.8453 H   0  0  0  0  0  0  0  0  0  0  0  0
    9.0410   13.7160   24.7966 H   0  0  0  0  0  0  0  0  0  0  0  0
    9.5187   12.3050   25.7431 H   0  0  0  0  0  0  0  0  0  0  0  0
    7.5096   12.2284   23.4278 H   0  0  0  0  0  0  0  0  0  0  0  0
   11.2254   18.0115   21.6963 H   0  0  0  0  0  0  0  0  0  0  0  0
   10.3390   16.4795   21.7556 H   0  0  0  0  0  0  0  0  0  0  0  0
  1  2  2  0  0  0  0
  1  3  1  0  0  0  0
  2  4  1  0  0  0  0
  3  5  2  0  0  0  0
  4  8  2  0  0  0  0
  5  8  1  0  0  0  0
  6  9  1  0  0  0  0
  6 20  2  0  0  0  0
  7 10  2  0  0  0  0
  7 20  1  0  0  0  0
  8 19  1  0  0  0  0
  9 21  2  0  0  0  0
  9 22  1  0  0  0  0
 10 21  1  0  0  0  0
 10 24  1  0  0  0  0
 11 12  1  0  0  0  0
 11 14  1  0  0  0  0
 12 18  1  0  0  0  0
 13 15  1  0  0  0  0
 13 16  1  0  0  0  0
 14 23  1  0  0  0  0
 15 22  1  0  0  0  0
 16 23  1  0  0  0  0
 17 18  1  0  0  0  0
 17 22  1  0  0  0  0
 18 23  1  0  0  0  0
 19 24  1  0  0  0  0
  1 25  1  0  0  0  0
  2 26  1  0  0  0  0
  3 27  1  0  0  0  0
  4 28  1  0  0  0  0
  5 29  1  0  0  0  0
  6 30  1  0  0  0  0
  7 31  1  0  0  0  0
 11 32  1  0  0  0  0
 11 33  1  0  0  0  0
 12 34  1  0  0  0  0
 12 35  1  0  0  0  0
 13 36  1  0  0  0  0
 13 37  1  0  0  0  0
 14 38  1  0  0  0  0
 14 39  1  0  0  0  0
 15 40  1  0  0  0  0
 15 41  1  0  0  0  0
 16 42  1  0  0  0  0
 16 43  1  0  0  0  0
 17 44  1  0  0  0  0
 17 45  1  0  0  0  0
 18 46  1  0  0  0  0
 19 47  1  0  0  0  0
 19 48  1  0  0  0  0
M  END
> <Catalog ID>
Z1385397364

> <PlateID>
1041831-R-33

> <Well>
H05

> <MW (desalted)>
324.420

> <ClogP>
2.953

> <HBD>
0

> <TPSA>
41.490

> <RotBonds>
4

> <ROCS_ShapeQuery>
A71EV2A-x0451_0A_A71EV2A-x0310_0A_A71EV2A-x0416_0A_peptide

> <ROCS_TanimotoCombo>
0.515 

> <ROCS_ShapeTanimoto>
0.336 

> <ROCS_ColorTanimoto>
0.179 

> <ROCS_RefTversky>
0.302 

> <ROCS_RefColorTversky>
0.197 

> <ROCS_RefTverskyCombo>
0.499 

> <ROCS_FitTversky>
1.500 

> <ROCS_FitColorTversky>
0.655 

> <ROCS_FitTverskyCombo>
2.154 

> <ROCS_ColorScore>
-6.023

> <ROCS_Overlap>
2100.218

> <ROCS_Rank>
444                 

$$$$
untitled-dbase-769_11096
  -OEChem-11132311063D

 50 52  0     1  0  0  0  0  0999 V2000
    6.2755   12.1608   28.8469 C   0  0  0  0  0  0  0  0  0  0  0  0
   10.0748   10.0247   22.9756 C   0  0  0  0  0  0  0  0  0  0  0  0
    5.0538   12.0297   29.4977 C   0  0  0  0  0  0  0  0  0  0  0  0
    8.8123   10.0780   23.5660 C   0  0  0  0  0  0  0  0  0  0  0  0
   10.8751   11.1665   22.9362 C   0  0  0  0  0  0  0  0  0  0  0  0
    6.3051   12.4110   27.4794 C   0  0  0  0  0  0  0  0  0  0  0  0
    9.1501   12.4149   24.0775 C   0  0  0  0  0  0  0  0  0  0  0  0
    3.8994   12.1564   28.7419 C   0  0  0  0  0  0  0  0  0  0  0  0
    8.3499   11.2731   24.1169 C   0  0  0  0  0  0  0  0  0  0  0  0
   10.4128   12.3616   23.4871 C   0  0  0  0  0  0  0  0  0  0  0  0
    5.0947   12.5204   26.8139 C   0  0  0  0  0  0  0  0  0  0  0  0
    7.0343   11.3282   24.7343 C   0  0  0  0  0  0  0  0  0  0  0  0
   10.0147   14.4105   21.1996 C   0  0  0  0  0  0  0  0  0  0  0  0
   12.3528   15.1701   21.2819 C   0  0  0  0  0  0  0  0  0  0  0  0
   10.1107   14.4275   19.6740 C   0  0  1  0  0  0  0  0  0  0  0  0
   12.3621   15.1594   19.7532 C   0  0  2  0  0  0  0  0  0  0  0  0
    8.7647   14.7577   19.0449 C   0  0  0  0  0  0  0  0  0  0  0  0
   13.2941   16.2302   19.2044 C   0  0  0  0  0  0  0  0  0  0  0  0
    5.0889   12.7900   25.3370 C   0  0  0  0  0  0  0  0  0  0  0  0
    3.8884   12.3992   27.4120 N   0  0  0  0  0  0  0  0  0  0  0  0
   11.3734   14.1502   21.7600 N   0  0  0  0  0  0  0  0  0  0  0  0
    6.3873   12.5694   24.7418 N   0  0  0  0  0  0  0  0  0  0  0  0
    6.5337   10.3107   25.2455 O   0  0  0  0  0  0  0  0  0  0  0  0
   10.7366   14.8557   24.1563 O   0  0  0  0  0  0  0  0  0  0  0  0
   12.7737   13.4180   23.7947 O   0  0  0  0  0  0  0  0  0  0  0  0
   11.0452   15.4311   19.2578 O   0  0  0  0  0  0  0  0  0  0  0  0
   11.4261   13.8063   23.4366 S   0  0  0  0  0  0  0  0  0  0  0  0
    7.2027   12.0682   29.4044 H   0  0  0  0  0  0  0  0  0  0  0  0
   10.4348    9.0941   22.5460 H   0  0  0  0  0  0  0  0  0  0  0  0
    5.0067   11.8346   30.5629 H   0  0  0  0  0  0  0  0  0  0  0  0
    8.1977    9.1820   23.5909 H   0  0  0  0  0  0  0  0  0  0  0  0
   11.8570   11.1144   22.4733 H   0  0  0  0  0  0  0  0  0  0  0  0
    7.2515   12.5153   26.9599 H   0  0  0  0  0  0  0  0  0  0  0  0
    8.7899   13.3472   24.5069 H   0  0  0  0  0  0  0  0  0  0  0  0
    2.9213   12.0626   29.2021 H   0  0  0  0  0  0  0  0  0  0  0  0
    9.6557   15.3745   21.5800 H   0  0  0  0  0  0  0  0  0  0  0  0
    9.3274   13.6210   21.5220 H   0  0  0  0  0  0  0  0  0  0  0  0
   13.3506   14.9279   21.6631 H   0  0  0  0  0  0  0  0  0  0  0  0
   12.0525   16.1531   21.6646 H   0  0  0  0  0  0  0  0  0  0  0  0
   10.4492   13.4536   19.2977 H   0  0  0  0  0  0  0  0  0  0  0  0
   12.6849   14.1804   19.3761 H   0  0  0  0  0  0  0  0  0  0  0  0
    8.4094   15.7235   19.4061 H   0  0  0  0  0  0  0  0  0  0  0  0
    8.0321   13.9929   19.3052 H   0  0  0  0  0  0  0  0  0  0  0  0
    8.8593   14.8004   17.9593 H   0  0  0  0  0  0  0  0  0  0  0  0
   12.9906   17.2127   19.5676 H   0  0  0  0  0  0  0  0  0  0  0  0
   13.2614   16.2320   18.1143 H   0  0  0  0  0  0  0  0  0  0  0  0
   14.3179   16.0362   19.5261 H   0  0  0  0  0  0  0  0  0  0  0  0
    4.3697   12.1388   24.8284 H   0  0  0  0  0  0  0  0  0  0  0  0
    4.7959   13.8242   25.1275 H   0  0  0  0  0  0  0  0  0  0  0  0
    6.8672   13.3812   24.3672 H   0  0  0  0  0  0  0  0  0  0  0  0
  1  3  2  0  0  0  0
  1  6  1  0  0  0  0
  2  4  2  0  0  0  0
  2  5  1  0  0  0  0
  3  8  1  0  0  0  0
  4  9  1  0  0  0  0
  5 10  2  0  0  0  0
  6 11  2  0  0  0  0
  7  9  2  0  0  0  0
  7 10  1  0  0  0  0
  8 20  2  0  0  0  0
  9 12  1  0  0  0  0
 10 27  1  0  0  0  0
 11 19  1  0  0  0  0
 11 20  1  0  0  0  0
 12 22  1  0  0  0  0
 12 23  2  0  0  0  0
 13 15  1  0  0  0  0
 13 21  1  0  0  0  0
 14 16  1  0  0  0  0
 14 21  1  0  0  0  0
 15 17  1  0  0  0  0
 15 26  1  0  0  0  0
 16 18  1  0  0  0  0
 16 26  1  0  0  0  0
 19 22  1  0  0  0  0
 21 27  1  0  0  0  0
 24 27  2  0  0  0  0
 25 27  2  0  0  0  0
  1 28  1  0  0  0  0
  2 29  1  0  0  0  0
  3 30  1  0  0  0  0
  4 31  1  0  0  0  0
  5 32  1  0  0  0  0
  6 33  1  0  0  0  0
  7 34  1  0  0  0  0
  8 35  1  0  0  0  0
 13 36  1  0  0  0  0
 13 37  1  0  0  0  0
 14 38  1  0  0  0  0
 14 39  1  0  0  0  0
 15 40  1  0  0  0  0
 16 41  1  0  0  0  0
 17 42  1  0  0  0  0
 17 43  1  0  0  0  0
 17 44  1  0  0  0  0
 18 45  1  0  0  0  0
 18 46  1  0  0  0  0
 18 47  1  0  0  0  0
 19 48  1  0  0  0  0
 19 49  1  0  0  0  0
 22 50  1  0  0  0  0
M  END
> <Catalog ID>
Z30166561

> <PlateID>
1041831-R-10

> <Well>
E10

> <MW (desalted)>
389.469

> <ClogP>
1.871

> <HBD>
1

> <TPSA>
88.600

> <RotBonds>
4

> <ROCS_ShapeQuery>
A71EV2A-x0451_0A_A71EV2A-x0310_0A_A71EV2A-x0416_0A_peptide

> <ROCS_TanimotoCombo>
0.515 

> <ROCS_ShapeTanimoto>
0.363 

> <ROCS_ColorTanimoto>
0.152 

> <ROCS_RefTversky>
0.323 

> <ROCS_RefColorTversky>
0.175 

> <ROCS_RefTverskyCombo>
0.499 

> <ROCS_FitTversky>
1.509 

> <ROCS_FitColorTversky>
0.529 

> <ROCS_FitTverskyCombo>
2.038 

> <ROCS_ColorScore>
-5.365

> <ROCS_Overlap>
2248.567

> <ROCS_Rank>
445                 

$$$$
untitled-dbase-1092_2766
  -OEChem-11132311063D

 43 46  0     0  0  0  0  0  0999 V2000
    9.0939    9.3584   23.1035 C   0  0  0  0  0  0  0  0  0  0  0  0
   13.9361   15.5451   17.4351 C   0  0  0  0  0  0  0  0  0  0  0  0
    4.4650   11.6034   29.1640 C   0  0  0  0  0  0  0  0  0  0  0  0
    9.8364   10.4379   22.6251 C   0  0  0  0  0  0  0  0  0  0  0  0
    8.1751    9.5466   24.1360 C   0  0  0  0  0  0  0  0  0  0  0  0
   14.0172   15.2639   18.8198 C   0  0  0  0  0  0  0  0  0  0  0  0
    5.6031   11.3068   28.3766 C   0  0  0  0  0  0  0  0  0  0  0  0
    8.7415   11.8941   24.2119 C   0  0  0  0  0  0  0  0  0  0  0  0
   12.7254   16.1689   17.2423 C   0  0  0  0  0  0  0  0  0  0  0  0
    3.7192   12.5001   28.4349 C   0  0  0  0  0  0  0  0  0  0  0  0
    9.6602   11.7058   23.1793 C   0  0  0  0  0  0  0  0  0  0  0  0
    7.9989   10.8145   24.6902 C   0  0  0  0  0  0  0  0  0  0  0  0
   12.8504   15.7361   19.3746 C   0  0  0  0  0  0  0  0  0  0  0  0
   11.5699   14.9169   22.5866 C   0  0  0  0  0  0  0  0  0  0  0  0
    5.4714   12.0432   27.2223 C   0  0  0  0  0  0  0  0  0  0  0  0
   12.0734   16.1033   23.0776 C   0  0  0  0  0  0  0  0  0  0  0  0
   12.4655   15.6852   20.7379 C   0  0  0  0  0  0  0  0  0  0  0  0
   10.8317   13.9331   23.3970 C   0  0  0  0  0  0  0  0  0  0  0  0
    6.3313   12.1560   26.0317 C   0  0  0  0  0  0  0  0  0  0  0  0
   12.0190   16.6733   24.4393 C   0  0  0  0  0  0  0  0  0  0  0  0
   11.7933   14.6757   21.2451 N   0  0  0  0  0  0  0  0  0  0  0  0
   10.4029   12.7853   22.7000 N   0  0  0  0  0  0  0  0  0  0  0  0
    7.0797   11.0022   25.7229 N   0  0  0  0  0  0  0  0  0  0  0  0
   10.5930   14.1430   24.5843 O   0  0  0  0  0  0  0  0  0  0  0  0
    6.3955   13.2054   25.3949 O   0  0  0  0  0  0  0  0  0  0  0  0
   12.0576   16.2893   18.4196 O   0  0  0  0  0  0  0  0  0  0  0  0
    4.3256   12.7733   27.2500 O   0  0  0  0  0  0  0  0  0  0  0  0
   12.8624   16.9586   21.8177 S   0  0  0  0  0  0  0  0  0  0  0  0
    9.2303    8.3714   22.6713 H   0  0  0  0  0  0  0  0  0  0  0  0
   14.6685   15.3210   16.6733 H   0  0  0  0  0  0  0  0  0  0  0  0
    4.2195   11.2131   30.1411 H   0  0  0  0  0  0  0  0  0  0  0  0
   10.5501   10.2788   21.8206 H   0  0  0  0  0  0  0  0  0  0  0  0
    7.6029    8.6974   24.5010 H   0  0  0  0  0  0  0  0  0  0  0  0
   14.8299   14.7762   19.3406 H   0  0  0  0  0  0  0  0  0  0  0  0
    6.4160   10.6389   28.6236 H   0  0  0  0  0  0  0  0  0  0  0  0
    8.6043   12.8831   24.6444 H   0  0  0  0  0  0  0  0  0  0  0  0
   12.2187   16.5673   16.3755 H   0  0  0  0  0  0  0  0  0  0  0  0
    2.7839   13.0114   28.6101 H   0  0  0  0  0  0  0  0  0  0  0  0
   12.8881   16.3547   25.0371 H   0  0  0  0  0  0  0  0  0  0  0  0
   12.0069   17.7761   24.4249 H   0  0  0  0  0  0  0  0  0  0  0  0
   11.1081   16.3648   24.9796 H   0  0  0  0  0  0  0  0  0  0  0  0
   10.6722   12.7374   21.7107 H   0  0  0  0  0  0  0  0  0  0  0  0
    6.9287   10.1945   26.3382 H   0  0  0  0  0  0  0  0  0  0  0  0
  1  4  1  0  0  0  0
  1  5  2  0  0  0  0
  2  6  1  0  0  0  0
  2  9  2  0  0  0  0
  3  7  1  0  0  0  0
  3 10  2  0  0  0  0
  4 11  2  0  0  0  0
  5 12  1  0  0  0  0
  6 13  2  0  0  0  0
  7 15  2  0  0  0  0
  8 11  1  0  0  0  0
  8 12  2  0  0  0  0
  9 26  1  0  0  0  0
 10 27  1  0  0  0  0
 11 22  1  0  0  0  0
 12 23  1  0  0  0  0
 13 17  1  0  0  0  0
 13 26  1  0  0  0  0
 14 16  2  0  0  0  0
 14 18  1  0  0  0  0
 14 21  1  0  0  0  0
 15 19  1  0  0  0  0
 15 27  1  0  0  0  0
 16 20  1  0  0  0  0
 16 28  1  0  0  0  0
 17 21  2  0  0  0  0
 17 28  1  0  0  0  0
 18 22  1  0  0  0  0
 18 24  2  0  0  0  0
 19 23  1  0  0  0  0
 19 25  2  0  0  0  0
  1 29  1  0  0  0  0
  2 30  1  0  0  0  0
  3 31  1  0  0  0  0
  4 32  1  0  0  0  0
  5 33  1  0  0  0  0
  6 34  1  0  0  0  0
  7 35  1  0  0  0  0
  8 36  1  0  0  0  0
  9 37  1  0  0  0  0
 10 38  1  0  0  0  0
 20 39  1  0  0  0  0
 20 40  1  0  0  0  0
 20 41  1  0  0  0  0
 22 42  1  0  0  0  0
 23 43  1  0  0  0  0
M  END
> <Catalog ID>
Z295735104

> <PlateID>
1041831-R-14

> <Well>
F03

> <MW (desalted)>
393.416

> <ClogP>
3.431

> <HBD>
2

> <TPSA>
97.370

> <RotBonds>
5

> <ROCS_ShapeQuery>
A71EV2A-x0451_0A_A71EV2A-x0310_0A_A71EV2A-x0416_0A_peptide

> <ROCS_TanimotoCombo>
0.515 

> <ROCS_ShapeTanimoto>
0.372 

> <ROCS_ColorTanimoto>
0.143 

> <ROCS_RefTversky>
0.333 

> <ROCS_RefColorTversky>
0.174 

> <ROCS_RefTverskyCombo>
0.507 

> <ROCS_FitTversky>
1.456 

> <ROCS_FitColorTversky>
0.444 

> <ROCS_FitTverskyCombo>
1.900 

> <ROCS_ColorScore>
-5.339

> <ROCS_Overlap>
2317.509

> <ROCS_Rank>
446                 

$$$$
untitled-dbase-1759_262
  -OEChem-11132311063D

 52 55  0     1  0  0  0  0  0999 V2000
   13.6828   17.3669   18.0498 C   0  0  0  0  0  0  0  0  0  0  0  0
   14.8339   16.8435   18.6343 C   0  0  0  0  0  0  0  0  0  0  0  0
   12.4286   16.8881   18.4275 C   0  0  0  0  0  0  0  0  0  0  0  0
   14.7333   15.8430   19.6008 C   0  0  0  0  0  0  0  0  0  0  0  0
    9.7924    7.0142   23.1200 C   0  0  0  0  0  0  0  0  0  0  0  0
    7.8794   12.7224   24.6378 C   0  0  0  0  0  0  0  0  0  0  0  0
   12.3178   15.8768   19.3905 C   0  0  0  0  0  0  0  0  0  0  0  0
   13.4774   15.3626   19.9958 C   0  0  0  0  0  0  0  0  0  0  0  0
   10.3951    8.2174   22.8147 C   0  0  0  0  0  0  0  0  0  0  0  0
    8.6233    7.0999   23.8482 C   0  0  0  0  0  0  0  0  0  0  0  0
    6.8757   11.9186   25.2109 C   0  0  0  0  0  0  0  0  0  0  0  0
    8.7413   11.8288   24.0505 C   0  0  0  0  0  0  0  0  0  0  0  0
    8.7577    9.3686   23.8922 C   0  0  0  0  0  0  0  0  0  0  0  0
   10.8395   13.0989   23.4771 C   0  0  0  0  0  0  0  0  0  0  0  0
   10.9583   15.3903   19.8207 C   0  0  0  0  0  0  0  0  0  0  0  0
   13.3825   14.2506   21.0153 C   0  0  0  0  0  0  0  0  0  0  0  0
   11.0158   14.0634   20.5845 C   0  0  0  0  0  0  0  0  0  0  0  0
   11.6647    8.2269   22.0312 C   0  0  0  0  0  0  0  0  0  0  0  0
    7.8999    5.8514   24.2275 C   0  0  0  0  0  0  0  0  0  0  0  0
    5.6943   12.3635   25.9691 C   0  0  0  0  0  0  0  0  0  0  0  0
   11.9867   12.9574   22.4955 C   0  0  0  0  0  0  0  0  0  0  0  0
    9.9034    9.4177   23.1862 N   0  0  0  0  0  0  0  0  0  0  0  0
    8.0757    8.2647   24.2525 N   0  0  0  0  0  0  0  0  0  0  0  0
    7.0799   10.6146   25.0060 N   0  0  0  0  0  0  0  0  0  0  0  0
    8.2217   10.5922   24.2976 N   0  0  0  0  0  0  0  0  0  0  0  0
   12.0470   14.1326   21.6271 N   0  0  1  0  0  0  0  0  0  0  0  0
    9.9354   12.0511   23.3242 N   0  0  0  0  0  0  0  0  0  0  0  0
   10.7761   14.0248   24.2797 O   0  0  0  0  0  0  0  0  0  0  0  0
   13.7621   18.1483   17.2996 H   0  0  0  0  0  0  0  0  0  0  0  0
   15.8105   17.2140   18.3365 H   0  0  0  0  0  0  0  0  0  0  0  0
   11.5377   17.3087   17.9681 H   0  0  0  0  0  0  0  0  0  0  0  0
   15.6397   15.4389   20.0444 H   0  0  0  0  0  0  0  0  0  0  0  0
   10.2098    6.0642   22.8086 H   0  0  0  0  0  0  0  0  0  0  0  0
    7.9650   13.7997   24.6493 H   0  0  0  0  0  0  0  0  0  0  0  0
   10.5076   16.1606   20.4591 H   0  0  0  0  0  0  0  0  0  0  0  0
   10.3138   15.2643   18.9427 H   0  0  0  0  0  0  0  0  0  0  0  0
   13.6666   13.3138   20.5172 H   0  0  0  0  0  0  0  0  0  0  0  0
   14.1119   14.4462   21.8113 H   0  0  0  0  0  0  0  0  0  0  0  0
   10.0291   13.8833   21.0290 H   0  0  0  0  0  0  0  0  0  0  0  0
   11.2159   13.2345   19.8918 H   0  0  0  0  0  0  0  0  0  0  0  0
   11.4497    8.2779   20.9570 H   0  0  0  0  0  0  0  0  0  0  0  0
   12.2930    9.0852   22.3018 H   0  0  0  0  0  0  0  0  0  0  0  0
   12.2587    7.3244   22.2252 H   0  0  0  0  0  0  0  0  0  0  0  0
    8.2555    5.4844   25.1978 H   0  0  0  0  0  0  0  0  0  0  0  0
    6.8181    6.0233   24.2952 H   0  0  0  0  0  0  0  0  0  0  0  0
    8.0502    5.0618   23.4800 H   0  0  0  0  0  0  0  0  0  0  0  0
    4.8323   12.5370   25.3024 H   0  0  0  0  0  0  0  0  0  0  0  0
    5.3833   11.6241   26.7287 H   0  0  0  0  0  0  0  0  0  0  0  0
    5.8819   13.3021   26.5209 H   0  0  0  0  0  0  0  0  0  0  0  0
   11.8435   12.0594   21.8863 H   0  0  0  0  0  0  0  0  0  0  0  0
   12.9230   12.8597   23.0540 H   0  0  0  0  0  0  0  0  0  0  0  0
   10.1455   11.3564   22.6105 H   0  0  0  0  0  0  0  0  0  0  0  0
  1  2  2  0  0  0  0
  1  3  1  0  0  0  0
  2  4  1  0  0  0  0
  3  7  2  0  0  0  0
  4  8  2  0  0  0  0
  5  9  2  0  0  0  0
  5 10  1  0  0  0  0
  6 11  1  0  0  0  0
  6 12  2  0  0  0  0
  7  8  1  0  0  0  0
  7 15  1  0  0  0  0
  8 16  1  0  0  0  0
  9 18  1  0  0  0  0
  9 22  1  0  0  0  0
 10 19  1  0  0  0  0
 10 23  2  0  0  0  0
 11 20  1  0  0  0  0
 11 24  2  0  0  0  0
 12 25  1  0  0  0  0
 12 27  1  0  0  0  0
 13 22  2  0  0  0  0
 13 23  1  0  0  0  0
 13 25  1  0  0  0  0
 14 21  1  0  0  0  0
 14 27  1  0  0  0  0
 14 28  2  0  0  0  0
 15 17  1  0  0  0  0
 16 26  1  0  0  0  0
 17 26  1  0  0  0  0
 21 26  1  0  0  0  0
 24 25  1  0  0  0  0
  1 29  1  0  0  0  0
  2 30  1  0  0  0  0
  3 31  1  0  0  0  0
  4 32  1  0  0  0  0
  5 33  1  0  0  0  0
  6 34  1  0  0  0  0
 15 35  1  0  0  0  0
 15 36  1  0  0  0  0
 16 37  1  0  0  0  0
 16 38  1  0  0  0  0
 17 39  1  0  0  0  0
 17 40  1  0  0  0  0
 18 41  1  0  0  0  0
 18 42  1  0  0  0  0
 18 43  1  0  0  0  0
 19 44  1  0  0  0  0
 19 45  1  0  0  0  0
 19 46  1  0  0  0  0
 20 47  1  0  0  0  0
 20 48  1  0  0  0  0
 20 49  1  0  0  0  0
 21 50  1  0  0  0  0
 21 51  1  0  0  0  0
 27 52  1  0  0  0  0
M  END
> <Catalog ID>
Z56806053

> <PlateID>
1041831-R-22

> <Well>
H10

> <MW (desalted)>
376.455

> <ClogP>
2.847

> <HBD>
1

> <TPSA>
75.940

> <RotBonds>
4

> <ROCS_ShapeQuery>
A71EV2A-x0451_0A_A71EV2A-x0310_0A_A71EV2A-x0416_0A_peptide

> <ROCS_TanimotoCombo>
0.514 

> <ROCS_ShapeTanimoto>
0.370 

> <ROCS_ColorTanimoto>
0.144 

> <ROCS_RefTversky>
0.332 

> <ROCS_RefColorTversky>
0.172 

> <ROCS_RefTverskyCombo>
0.504 

> <ROCS_FitTversky>
1.450 

> <ROCS_FitColorTversky>
0.473 

> <ROCS_FitTverskyCombo>
1.924 

> <ROCS_ColorScore>
-5.254

> <ROCS_Overlap>
2311.780

> <ROCS_Rank>
447                 

$$$$
untitled-dbase-1757_226
  -OEChem-11132311063D

 46 49  0     0  0  0  0  0  0999 V2000
   16.5782   13.0222   27.7589 C   0  0  0  0  0  0  0  0  0  0  0  0
   16.9224   14.1413   27.0040 C   0  0  0  0  0  0  0  0  0  0  0  0
   15.6566   12.1007   27.2617 C   0  0  0  0  0  0  0  0  0  0  0  0
   16.3465   14.3423   25.7492 C   0  0  0  0  0  0  0  0  0  0  0  0
    8.4495   12.4335   24.1715 C   0  0  0  0  0  0  0  0  0  0  0  0
    9.3178   10.2943   23.5178 C   0  0  0  0  0  0  0  0  0  0  0  0
    7.4241   11.7310   24.8168 C   0  0  0  0  0  0  0  0  0  0  0  0
   15.0772   12.3003   26.0026 C   0  0  0  0  0  0  0  0  0  0  0  0
   15.4209   13.4192   25.2458 C   0  0  0  0  0  0  0  0  0  0  0  0
    9.4180   11.6815   23.5064 C   0  0  0  0  0  0  0  0  0  0  0  0
    6.2767   12.0217   25.5813 C   0  0  0  0  0  0  0  0  0  0  0  0
    7.4435   10.3466   24.7500 C   0  0  0  0  0  0  0  0  0  0  0  0
   14.1044   11.3233   25.4830 C   0  0  0  0  0  0  0  0  0  0  0  0
   14.8165   13.6378   23.9157 C   0  0  0  0  0  0  0  0  0  0  0  0
   11.0447   13.5336   23.1850 C   0  0  0  0  0  0  0  0  0  0  0  0
    5.7650   13.3479   25.9692 C   0  0  0  0  0  0  0  0  0  0  0  0
    5.9419    8.5541   25.6648 C   0  0  0  0  0  0  0  0  0  0  0  0
   12.1672   13.8819   22.2126 C   0  0  0  0  0  0  0  0  0  0  0  0
   13.2918   12.8554   22.1851 C   0  0  0  0  0  0  0  0  0  0  0  0
    8.3472    9.5706   24.1266 N   0  0  0  0  0  0  0  0  0  0  0  0
    5.6204   10.9232   25.9691 N   0  0  0  0  0  0  0  0  0  0  0  0
    6.3527    9.9214   25.4492 N   0  0  0  0  0  0  0  0  0  0  0  0
   13.5745   11.5804   24.2404 N   0  0  0  0  0  0  0  0  0  0  0  0
   13.9124   12.6861   23.4852 N   0  0  0  0  0  0  0  0  0  0  0  0
   10.4713   12.3131   22.8401 N   0  0  0  0  0  0  0  0  0  0  0  0
   13.7988   10.3369   26.1475 O   0  0  0  0  0  0  0  0  0  0  0  0
   15.1373   14.6309   23.2667 O   0  0  0  0  0  0  0  0  0  0  0  0
   10.7368   14.2749   24.1121 O   0  0  0  0  0  0  0  0  0  0  0  0
   17.0275   12.8671   28.7355 H   0  0  0  0  0  0  0  0  0  0  0  0
   17.6400   14.8581   27.3925 H   0  0  0  0  0  0  0  0  0  0  0  0
   15.4041   11.2359   27.8693 H   0  0  0  0  0  0  0  0  0  0  0  0
   16.6327   15.2233   25.1808 H   0  0  0  0  0  0  0  0  0  0  0  0
    8.4871   13.5182   24.1893 H   0  0  0  0  0  0  0  0  0  0  0  0
   10.0610    9.6863   23.0065 H   0  0  0  0  0  0  0  0  0  0  0  0
    5.0622   13.7415   25.2153 H   0  0  0  0  0  0  0  0  0  0  0  0
    5.2347   13.3226   26.9376 H   0  0  0  0  0  0  0  0  0  0  0  0
    6.5757   14.0886   26.0877 H   0  0  0  0  0  0  0  0  0  0  0  0
    6.4163    8.2002   26.5839 H   0  0  0  0  0  0  0  0  0  0  0  0
    4.8529    8.5110   25.7556 H   0  0  0  0  0  0  0  0  0  0  0  0
    6.2545    7.9441   24.8126 H   0  0  0  0  0  0  0  0  0  0  0  0
   12.5780   14.8510   22.5210 H   0  0  0  0  0  0  0  0  0  0  0  0
   11.7380   14.0007   21.2102 H   0  0  0  0  0  0  0  0  0  0  0  0
   14.0771   13.1391   21.4773 H   0  0  0  0  0  0  0  0  0  0  0  0
   12.9006   11.8766   21.8907 H   0  0  0  0  0  0  0  0  0  0  0  0
   12.8987   10.9426   23.8312 H   0  0  0  0  0  0  0  0  0  0  0  0
   10.8548   11.8364   22.0270 H   0  0  0  0  0  0  0  0  0  0  0  0
  1  2  2  0  0  0  0
  1  3  1  0  0  0  0
  2  4  1  0  0  0  0
  3  8  2  0  0  0  0
  4  9  2  0  0  0  0
  5  7  2  0  0  0  0
  5 10  1  0  0  0  0
  6 10  2  0  0  0  0
  6 20  1  0  0  0  0
  7 11  1  0  0  0  0
  7 12  1  0  0  0  0
  8  9  1  0  0  0  0
  8 13  1  0  0  0  0
  9 14  1  0  0  0  0
 10 25  1  0  0  0  0
 11 16  1  0  0  0  0
 11 21  2  0  0  0  0
 12 20  2  0  0  0  0
 12 22  1  0  0  0  0
 13 23  1  0  0  0  0
 13 26  2  0  0  0  0
 14 24  1  0  0  0  0
 14 27  2  0  0  0  0
 15 18  1  0  0  0  0
 15 25  1  0  0  0  0
 15 28  2  0  0  0  0
 17 22  1  0  0  0  0
 18 19  1  0  0  0  0
 19 24  1  0  0  0  0
 21 22  1  0  0  0  0
 23 24  1  0  0  0  0
  1 29  1  0  0  0  0
  2 30  1  0  0  0  0
  3 31  1  0  0  0  0
  4 32  1  0  0  0  0
  5 33  1  0  0  0  0
  6 34  1  0  0  0  0
 16 35  1  0  0  0  0
 16 36  1  0  0  0  0
 16 37  1  0  0  0  0
 17 38  1  0  0  0  0
 17 39  1  0  0  0  0
 17 40  1  0  0  0  0
 18 41  1  0  0  0  0
 18 42  1  0  0  0  0
 19 43  1  0  0  0  0
 19 44  1  0  0  0  0
 23 45  1  0  0  0  0
 25 46  1  0  0  0  0
M  END
> <Catalog ID>
Z239538006

> <PlateID>
1041831-R-22

> <Well>
H08

> <MW (desalted)>
378.385

> <ClogP>
2.418

> <HBD>
2

> <TPSA>
109.220

> <RotBonds>
4

> <ROCS_ShapeQuery>
A71EV2A-x0451_0A_A71EV2A-x0310_0A_A71EV2A-x0416_0A_peptide

> <ROCS_TanimotoCombo>
0.514 

> <ROCS_ShapeTanimoto>
0.333 

> <ROCS_ColorTanimoto>
0.182 

> <ROCS_RefTversky>
0.307 

> <ROCS_RefColorTversky>
0.214 

> <ROCS_RefTverskyCombo>
0.522 

> <ROCS_FitTversky>
1.328 

> <ROCS_FitColorTversky>
0.545 

> <ROCS_FitTverskyCombo>
1.873 

> <ROCS_ColorScore>
-6.573

> <ROCS_Overlap>
2139.217

> <ROCS_Rank>
448                 

$$$$
untitled-dbase-300_456
  -OEChem-11132311063D

 39 42  0     0  0  0  0  0  0999 V2000
    6.3298   11.0350   25.9318 C   0  0  0  0  0  0  0  0  0  0  0  0
    6.8231   12.3365   26.0849 C   0  0  0  0  0  0  0  0  0  0  0  0
    6.9410   10.1481   25.0457 C   0  0  0  0  0  0  0  0  0  0  0  0
    7.9300   12.7712   25.3507 C   0  0  0  0  0  0  0  0  0  0  0  0
   12.8597   15.0982   21.3092 C   0  0  0  0  0  0  0  0  0  0  0  0
   13.2663   16.3385   21.7245 C   0  0  0  0  0  0  0  0  0  0  0  0
    8.0419   10.5819   24.3161 C   0  0  0  0  0  0  0  0  0  0  0  0
    8.5278   11.8854   24.4648 C   0  0  0  0  0  0  0  0  0  0  0  0
   11.7670   14.8077   22.1442 C   0  0  0  0  0  0  0  0  0  0  0  0
   10.3865   13.2543   23.5253 C   0  0  0  0  0  0  0  0  0  0  0  0
    9.5580    7.4364   23.2796 C   0  0  0  0  0  0  0  0  0  0  0  0
    8.1624    7.5589   22.6952 C   0  0  0  0  0  0  0  0  0  0  0  0
    9.7193    8.7122   24.0988 C   0  0  0  0  0  0  0  0  0  0  0  0
    8.0929    9.0225   22.2777 C   0  0  0  0  0  0  0  0  0  0  0  0
    9.7700   10.9020   22.7468 C   0  0  0  0  0  0  0  0  0  0  0  0
    8.8896    9.7844   23.3536 C   0  0  0  0  0  0  0  0  0  0  0  0
   10.9166   13.5735   22.1476 C   0  0  0  0  0  0  0  0  0  0  0  0
   11.5152   15.7925   23.0111 N   0  0  0  0  0  0  0  0  0  0  0  0
    9.6250   12.0965   23.6050 N   0  0  0  0  0  0  0  0  0  0  0  0
   10.6608   14.0033   24.4633 O   0  0  0  0  0  0  0  0  0  0  0  0
   12.4716   16.7635   22.7398 O   0  0  0  0  0  0  0  0  0  0  0  0
    5.4673   10.7152   26.5092 H   0  0  0  0  0  0  0  0  0  0  0  0
    6.3350   13.0175   26.7775 H   0  0  0  0  0  0  0  0  0  0  0  0
    6.5530    9.1429   24.9466 H   0  0  0  0  0  0  0  0  0  0  0  0
    8.2748   13.7884   25.4864 H   0  0  0  0  0  0  0  0  0  0  0  0
   13.2911   14.4986   20.5215 H   0  0  0  0  0  0  0  0  0  0  0  0
   14.0519   17.0157   21.4246 H   0  0  0  0  0  0  0  0  0  0  0  0
    9.6282    6.5600   23.9197 H   0  0  0  0  0  0  0  0  0  0  0  0
   10.3204    7.3567   22.5104 H   0  0  0  0  0  0  0  0  0  0  0  0
    8.0295    6.9089   21.8410 H   0  0  0  0  0  0  0  0  0  0  0  0
    7.4113    7.3230   23.4366 H   0  0  0  0  0  0  0  0  0  0  0  0
    9.4095    8.5692   25.1394 H   0  0  0  0  0  0  0  0  0  0  0  0
   10.7805    8.9919   24.1032 H   0  0  0  0  0  0  0  0  0  0  0  0
    8.5803    9.1312   21.3051 H   0  0  0  0  0  0  0  0  0  0  0  0
    7.0643    9.3704   22.1786 H   0  0  0  0  0  0  0  0  0  0  0  0
   10.8254   10.6233   22.6742 H   0  0  0  0  0  0  0  0  0  0  0  0
    9.4267   11.1900   21.7459 H   0  0  0  0  0  0  0  0  0  0  0  0
   10.0695   13.6958   21.4717 H   0  0  0  0  0  0  0  0  0  0  0  0
   11.4805   12.7116   21.7902 H   0  0  0  0  0  0  0  0  0  0  0  0
  1  2  2  0  0  0  0
  1  3  1  0  0  0  0
  2  4  1  0  0  0  0
  3  7  2  0  0  0  0
  4  8  2  0  0  0  0
  5  6  2  0  0  0  0
  5  9  1  0  0  0  0
  6 21  1  0  0  0  0
  7  8  1  0  0  0  0
  7 16  1  0  0  0  0
  8 19  1  0  0  0  0
  9 17  1  0  0  0  0
  9 18  2  0  0  0  0
 10 17  1  0  0  0  0
 10 19  1  0  0  0  0
 10 20  2  0  0  0  0
 11 12  1  0  0  0  0
 11 13  1  0  0  0  0
 12 14  1  0  0  0  0
 13 16  1  0  0  0  0
 14 16  1  0  0  0  0
 15 16  1  0  0  0  0
 15 19  1  0  0  0  0
 18 21  1  0  0  0  0
  1 22  1  0  0  0  0
  2 23  1  0  0  0  0
  3 24  1  0  0  0  0
  4 25  1  0  0  0  0
  5 26  1  0  0  0  0
  6 27  1  0  0  0  0
 11 28  1  0  0  0  0
 11 29  1  0  0  0  0
 12 30  1  0  0  0  0
 12 31  1  0  0  0  0
 13 32  1  0  0  0  0
 13 33  1  0  0  0  0
 14 34  1  0  0  0  0
 14 35  1  0  0  0  0
 15 36  1  0  0  0  0
 15 37  1  0  0  0  0
 17 38  1  0  0  0  0
 17 39  1  0  0  0  0
M  END
> <Catalog ID>
Z1360026754

> <PlateID>
1041831-R-04

> <Well>
F11

> <MW (desalted)>
282.337

> <ClogP>
2.541

> <HBD>
0

> <TPSA>
46.340

> <RotBonds>
2

> <ROCS_ShapeQuery>
A71EV2A-x0451_0A_A71EV2A-x0310_0A_A71EV2A-x0416_0A_peptide

> <ROCS_TanimotoCombo>
0.514 

> <ROCS_ShapeTanimoto>
0.357 

> <ROCS_ColorTanimoto>
0.157 

> <ROCS_RefTversky>
0.312 

> <ROCS_RefColorTversky>
0.169 

> <ROCS_RefTverskyCombo>
0.480 

> <ROCS_FitTversky>
1.684 

> <ROCS_FitColorTversky>
0.702 

> <ROCS_FitTverskyCombo>
2.386 

> <ROCS_ColorScore>
-5.129

> <ROCS_Overlap>
2164.827

> <ROCS_Rank>
449                 

$$$$
untitled-dbase-1598_1243
  -OEChem-11132311063D

 39 41  0     1  0  0  0  0  0999 V2000
    6.9921   12.8975   25.3529 C   0  0  0  0  0  0  0  0  0  0  0  0
    6.6637   11.7318   26.0421 C   0  0  0  0  0  0  0  0  0  0  0  0
    7.9236   12.8739   24.3085 C   0  0  0  0  0  0  0  0  0  0  0  0
   15.3733   12.0225   25.1728 C   0  0  0  0  0  0  0  0  0  0  0  0
   14.5982   10.4750   23.4870 C   0  0  0  0  0  0  0  0  0  0  0  0
    7.2533   10.5085   25.7112 C   0  0  0  0  0  0  0  0  0  0  0  0
   16.3260   11.0924   25.5886 C   0  0  0  0  0  0  0  0  0  0  0  0
   15.5510    9.5449   23.9028 C   0  0  0  0  0  0  0  0  0  0  0  0
    9.7030    9.9142   23.1107 C   0  0  0  0  0  0  0  0  0  0  0  0
    8.5312   11.6521   23.9570 C   0  0  0  0  0  0  0  0  0  0  0  0
   14.5094   11.7138   24.1220 C   0  0  0  0  0  0  0  0  0  0  0  0
    9.4910   11.2673   22.9795 C   0  0  0  0  0  0  0  0  0  0  0  0
    8.1828   10.4999   24.6650 C   0  0  0  0  0  0  0  0  0  0  0  0
   16.4148    9.8536   24.9536 C   0  0  0  0  0  0  0  0  0  0  0  0
   13.4949   12.7047   23.6793 C   0  0  0  0  0  0  0  0  0  0  0  0
   10.7621   13.9468   23.6719 C   0  0  0  0  0  0  0  0  0  0  0  0
   10.1493   12.1521   21.9969 C   0  0  0  0  0  0  0  0  0  0  0  0
   11.2881   13.0162   22.5890 C   0  0  2  0  0  0  0  0  0  0  0  0
    8.9093    9.4603   24.1297 N   0  0  0  0  0  0  0  0  0  0  0  0
   12.3514   12.1826   23.0913 N   0  0  0  0  0  0  0  0  0  0  0  0
   13.7197   13.9025   23.8318 O   0  0  0  0  0  0  0  0  0  0  0  0
   10.6975   13.6261   24.8540 O   0  0  0  0  0  0  0  0  0  0  0  0
   10.3736   15.1681   23.2330 O   0  0  0  0  0  0  0  0  0  0  0  0
   17.3297    8.9604   25.3527 F   0  0  0  0  0  0  0  0  0  0  0  0
    6.5199   13.8367   25.6281 H   0  0  0  0  0  0  0  0  0  0  0  0
    5.9376   11.7731   26.8500 H   0  0  0  0  0  0  0  0  0  0  0  0
    8.1682   13.7911   23.7803 H   0  0  0  0  0  0  0  0  0  0  0  0
   15.3129   12.9847   25.6746 H   0  0  0  0  0  0  0  0  0  0  0  0
   13.9304   10.2242   22.6666 H   0  0  0  0  0  0  0  0  0  0  0  0
    6.9978    9.6018   26.2489 H   0  0  0  0  0  0  0  0  0  0  0  0
   16.9988   11.3325   26.4065 H   0  0  0  0  0  0  0  0  0  0  0  0
   15.6200    8.5801   23.4087 H   0  0  0  0  0  0  0  0  0  0  0  0
   10.3456    9.2329   22.5702 H   0  0  0  0  0  0  0  0  0  0  0  0
    9.3957   12.8200   21.5327 H   0  0  0  0  0  0  0  0  0  0  0  0
   10.5531   11.5736   21.1399 H   0  0  0  0  0  0  0  0  0  0  0  0
   11.7363   13.6494   21.8146 H   0  0  0  0  0  0  0  0  0  0  0  0
    8.8629    8.5009   24.4443 H   0  0  0  0  0  0  0  0  0  0  0  0
   12.2663   11.1805   22.9435 H   0  0  0  0  0  0  0  0  0  0  0  0
   10.4714   15.3093   22.2678 H   0  0  0  0  0  0  0  0  0  0  0  0
  1  2  2  0  0  0  0
  1  3  1  0  0  0  0
  2  6  1  0  0  0  0
  3 10  2  0  0  0  0
  4  7  1  0  0  0  0
  4 11  2  0  0  0  0
  5  8  2  0  0  0  0
  5 11  1  0  0  0  0
  6 13  2  0  0  0  0
  7 14  2  0  0  0  0
  8 14  1  0  0  0  0
  9 12  2  0  0  0  0
  9 19  1  0  0  0  0
 10 12  1  0  0  0  0
 10 13  1  0  0  0  0
 11 15  1  0  0  0  0
 12 17  1  0  0  0  0
 13 19  1  0  0  0  0
 14 24  1  0  0  0  0
 15 20  1  0  0  0  0
 15 21  2  0  0  0  0
 16 18  1  0  0  0  0
 16 22  2  0  0  0  0
 16 23  1  0  0  0  0
 17 18  1  0  0  0  0
 18 20  1  1  0  0  0
  1 25  1  0  0  0  0
  2 26  1  0  0  0  0
  3 27  1  0  0  0  0
  4 28  1  0  0  0  0
  5 29  1  0  0  0  0
  6 30  1  0  0  0  0
  7 31  1  0  0  0  0
  8 32  1  0  0  0  0
  9 33  1  0  0  0  0
 17 34  1  0  0  0  0
 17 35  1  0  0  0  0
 18 36  1  0  0  0  0
 19 37  1  0  0  0  0
 20 38  1  0  0  0  0
 23 39  1  0  0  0  0
M  END
> <Catalog ID>
Z56812807

> <PlateID>
1041831-R-20

> <Well>
H09

> <MW (desalted)>
326.322

> <ClogP>
2.715

> <HBD>
3

> <TPSA>
82.190

> <RotBonds>
5

> <ROCS_ShapeQuery>
A71EV2A-x0451_0A_A71EV2A-x0310_0A_A71EV2A-x0416_0A_peptide

> <ROCS_TanimotoCombo>
0.514 

> <ROCS_ShapeTanimoto>
0.323 

> <ROCS_ColorTanimoto>
0.191 

> <ROCS_RefTversky>
0.294 

> <ROCS_RefColorTversky>
0.214 

> <ROCS_RefTverskyCombo>
0.507 

> <ROCS_FitTversky>
1.451 

> <ROCS_FitColorTversky>
0.643 

> <ROCS_FitTverskyCombo>
2.094 

> <ROCS_ColorScore>
-6.539

> <ROCS_Overlap>
2040.408

> <ROCS_Rank>
450                 

$$$$
untitled-dbase-1701_261
  -OEChem-11132311063D

 44 46  0     1  0  0  0  0  0999 V2000
    6.6679   12.8689   25.6603 C   0  0  0  0  0  0  0  0  0  0  0  0
    6.0538   11.6274   25.8007 C   0  0  0  0  0  0  0  0  0  0  0  0
    7.8654   12.9807   24.9517 C   0  0  0  0  0  0  0  0  0  0  0  0
    6.6436   10.4938   25.2454 C   0  0  0  0  0  0  0  0  0  0  0  0
    8.4605   11.8522   24.3653 C   0  0  0  0  0  0  0  0  0  0  0  0
    7.8507   10.6011   24.5481 C   0  0  0  0  0  0  0  0  0  0  0  0
   13.6048   15.3380   19.6096 C   0  0  0  0  0  0  0  0  0  0  0  0
   12.3539   14.9500   19.0190 C   0  0  0  0  0  0  0  0  0  0  0  0
   13.6740   15.7072   20.8935 C   0  0  0  0  0  0  0  0  0  0  0  0
   11.2201   14.9474   19.7395 C   0  0  0  0  0  0  0  0  0  0  0  0
   12.4346   15.7178   21.7311 C   0  0  0  0  0  0  0  0  0  0  0  0
   14.9908   16.0879   21.4131 C   0  0  0  0  0  0  0  0  0  0  0  0
   10.1276   14.3684   23.0166 C   0  0  0  0  0  0  0  0  0  0  0  0
   10.0356   10.6911   22.8115 C   0  0  0  0  0  0  0  0  0  0  0  0
    9.7427    9.4877   23.6901 C   0  0  0  0  0  0  0  0  0  0  0  0
    9.7564   11.9711   23.5984 C   0  0  1  0  0  0  0  0  0  0  0  0
    9.9981   15.3142   21.8500 C   0  0  0  0  0  0  0  0  0  0  0  0
    9.9192   14.5391   19.1059 C   0  0  0  0  0  0  0  0  0  0  0  0
   11.2524   15.3261   21.0831 N   0  0  0  0  0  0  0  0  0  0  0  0
   14.9707   16.4526   22.7385 N   0  0  0  0  0  0  0  0  0  0  0  0
    9.7329   13.0838   22.6723 N   0  0  0  0  0  0  0  0  0  0  0  0
   12.5146   16.0598   22.9112 O   0  0  0  0  0  0  0  0  0  0  0  0
   15.9942   16.0706   20.7042 O   0  0  0  0  0  0  0  0  0  0  0  0
   10.5356   14.7118   24.1229 O   0  0  0  0  0  0  0  0  0  0  0  0
    8.3602    9.4276   24.0515 O   0  0  0  0  0  0  0  0  0  0  0  0
   10.1009   14.2125   17.8123 F   0  0  0  0  0  0  0  0  0  0  0  0
    9.3940   13.4718   19.7370 F   0  0  0  0  0  0  0  0  0  0  0  0
    9.0215   15.5413   19.1622 F   0  0  0  0  0  0  0  0  0  0  0  0
    6.2179   13.7515   26.1061 H   0  0  0  0  0  0  0  0  0  0  0  0
    5.1171   11.5423   26.3433 H   0  0  0  0  0  0  0  0  0  0  0  0
    8.3377   13.9569   24.8633 H   0  0  0  0  0  0  0  0  0  0  0  0
    6.1559    9.5288   25.3554 H   0  0  0  0  0  0  0  0  0  0  0  0
   14.4789   15.3163   18.9661 H   0  0  0  0  0  0  0  0  0  0  0  0
   12.3664   14.6621   17.9730 H   0  0  0  0  0  0  0  0  0  0  0  0
   11.0953   10.6757   22.5361 H   0  0  0  0  0  0  0  0  0  0  0  0
    9.4543   10.6588   21.8874 H   0  0  0  0  0  0  0  0  0  0  0  0
   10.0274    8.5471   23.2090 H   0  0  0  0  0  0  0  0  0  0  0  0
   10.3142    9.5655   24.6187 H   0  0  0  0  0  0  0  0  0  0  0  0
   10.5894   12.1470   24.2776 H   0  0  0  0  0  0  0  0  0  0  0  0
    9.1814   14.9873   21.1995 H   0  0  0  0  0  0  0  0  0  0  0  0
    9.7895   16.3248   22.2132 H   0  0  0  0  0  0  0  0  0  0  0  0
   15.8407   16.7315   23.1800 H   0  0  0  0  0  0  0  0  0  0  0  0
   14.1203   16.4542   23.2933 H   0  0  0  0  0  0  0  0  0  0  0  0
    9.4117   12.9154   21.7236 H   0  0  0  0  0  0  0  0  0  0  0  0
  1  2  2  0  0  0  0
  1  3  1  0  0  0  0
  2  4  1  0  0  0  0
  3  5  2  0  0  0  0
  4  6  2  0  0  0  0
  5  6  1  0  0  0  0
  5 16  1  0  0  0  0
  6 25  1  0  0  0  0
  7  8  1  0  0  0  0
  7  9  2  0  0  0  0
  8 10  2  0  0  0  0
  9 11  1  0  0  0  0
  9 12  1  0  0  0  0
 10 18  1  0  0  0  0
 10 19  1  0  0  0  0
 11 19  1  0  0  0  0
 11 22  2  0  0  0  0
 12 20  1  0  0  0  0
 12 23  2  0  0  0  0
 13 17  1  0  0  0  0
 13 21  1  0  0  0  0
 13 24  2  0  0  0  0
 14 15  1  0  0  0  0
 14 16  1  0  0  0  0
 15 25  1  0  0  0  0
 16 21  1  0  0  0  0
 17 19  1  0  0  0  0
 18 26  1  0  0  0  0
 18 27  1  0  0  0  0
 18 28  1  0  0  0  0
  1 29  1  0  0  0  0
  2 30  1  0  0  0  0
  3 31  1  0  0  0  0
  4 32  1  0  0  0  0
  7 33  1  0  0  0  0
  8 34  1  0  0  0  0
 14 35  1  0  0  0  0
 14 36  1  0  0  0  0
 15 37  1  0  0  0  0
 15 38  1  0  0  0  0
 16 39  1  0  0  0  0
 17 40  1  0  0  0  0
 17 41  1  0  0  0  0
 20 42  1  0  0  0  0
 20 43  1  0  0  0  0
 21 44  1  0  0  0  0
M  END
> <Catalog ID>
Z239738594

> <PlateID>
1041831-R-22

> <Well>
C02

> <MW (desalted)>
395.333

> <ClogP>
0.871

> <HBD>
2

> <TPSA>
101.730

> <RotBonds>
5

> <ROCS_ShapeQuery>
A71EV2A-x0451_0A_A71EV2A-x0310_0A_A71EV2A-x0416_0A_peptide

> <ROCS_TanimotoCombo>
0.514 

> <ROCS_ShapeTanimoto>
0.341 

> <ROCS_ColorTanimoto>
0.173 

> <ROCS_RefTversky>
0.313 

> <ROCS_RefColorTversky>
0.197 

> <ROCS_RefTverskyCombo>
0.509 

> <ROCS_FitTversky>
1.364 

> <ROCS_FitColorTversky>
0.593 

> <ROCS_FitTverskyCombo>
1.957 

> <ROCS_ColorScore>
-6.010

> <ROCS_Overlap>
2175.786

> <ROCS_Rank>
451                 

$$$$
untitled-dbase-3169_91
  -OEChem-11132311063D

 45 49  0     1  0  0  0  0  0999 V2000
   12.9493   15.2754   20.5897 C   0  0  0  0  0  0  0  0  0  0  0  0
   12.1450   15.5785   19.5282 C   0  0  0  0  0  0  0  0  0  0  0  0
   11.0854   14.5001   21.3464 C   0  0  0  0  0  0  0  0  0  0  0  0
   14.3464   15.6949   20.3675 C   0  0  0  0  0  0  0  0  0  0  0  0
   12.8442   16.2481   18.4150 C   0  0  0  0  0  0  0  0  0  0  0  0
   14.2039   16.6110   19.1040 C   0  0  0  0  0  0  0  0  0  0  0  0
   10.2871    9.0185   21.7809 C   0  0  0  0  0  0  0  0  0  0  0  0
   10.8029    9.6194   23.1127 C   0  0  0  0  0  0  0  0  0  0  0  0
    8.8457    9.2431   22.3033 C   0  0  0  0  0  0  0  0  0  0  0  0
    7.5754   12.4097   24.8898 C   0  0  0  0  0  0  0  0  0  0  0  0
    6.6569   11.2270   24.6013 C   0  0  0  0  0  0  0  0  0  0  0  0
    8.9630   11.9613   24.4445 C   0  0  2  0  0  0  0  0  0  0  0  0
    9.2229   11.7367   22.9237 C   0  0  2  0  0  0  0  0  0  0  0  0
    8.8591   10.4240   24.6318 C   0  0  2  0  0  0  0  0  0  0  0  0
    9.4392   10.2722   23.2441 C   0  0  0  0  0  0  0  0  0  0  0  0
    9.9058   14.5836   23.5810 C   0  0  0  0  0  0  0  0  0  0  0  0
   10.0612   13.8492   22.2509 C   0  0  2  0  0  0  0  0  0  0  0  0
   12.3645   14.6535   21.6509 N   0  0  0  0  0  0  0  0  0  0  0  0
   10.3707   12.4439   22.4745 N   0  0  0  0  0  0  0  0  0  0  0  0
    7.4691   10.0712   24.8370 O   0  0  0  0  0  0  0  0  0  0  0  0
   10.5679   15.0934   19.7938 S   0  0  0  0  0  0  0  0  0  0  0  0
   14.7653   16.2473   21.2126 H   0  0  0  0  0  0  0  0  0  0  0  0
   14.9785   14.8297   20.1448 H   0  0  0  0  0  0  0  0  0  0  0  0
   13.0095   15.5571   17.5823 H   0  0  0  0  0  0  0  0  0  0  0  0
   12.3325   17.1447   18.0554 H   0  0  0  0  0  0  0  0  0  0  0  0
   14.1672   17.6592   19.4297 H   0  0  0  0  0  0  0  0  0  0  0  0
   15.0537   16.5095   18.4215 H   0  0  0  0  0  0  0  0  0  0  0  0
   10.5544    9.5697   20.8753 H   0  0  0  0  0  0  0  0  0  0  0  0
   10.5462    7.9616   21.6452 H   0  0  0  0  0  0  0  0  0  0  0  0
   11.0845    8.8891   23.8774 H   0  0  0  0  0  0  0  0  0  0  0  0
   11.6473   10.3010   22.9546 H   0  0  0  0  0  0  0  0  0  0  0  0
    8.1726    9.6643   21.5471 H   0  0  0  0  0  0  0  0  0  0  0  0
    8.3660    8.3662   22.7451 H   0  0  0  0  0  0  0  0  0  0  0  0
    7.2428   13.3244   24.3912 H   0  0  0  0  0  0  0  0  0  0  0  0
    7.5900   12.5996   25.9698 H   0  0  0  0  0  0  0  0  0  0  0  0
    5.7819   11.2110   25.2565 H   0  0  0  0  0  0  0  0  0  0  0  0
    6.3283   11.2121   23.5571 H   0  0  0  0  0  0  0  0  0  0  0  0
    9.7770   12.4288   25.0102 H   0  0  0  0  0  0  0  0  0  0  0  0
    8.2985   11.9154   22.2900 H   0  0  0  0  0  0  0  0  0  0  0  0
    9.4719   10.0266   25.4491 H   0  0  0  0  0  0  0  0  0  0  0  0
   10.8535   14.6110   24.1298 H   0  0  0  0  0  0  0  0  0  0  0  0
    9.5807   15.6166   23.4136 H   0  0  0  0  0  0  0  0  0  0  0  0
    9.1559   14.1108   24.2252 H   0  0  0  0  0  0  0  0  0  0  0  0
    9.0848   13.8551   21.7511 H   0  0  0  0  0  0  0  0  0  0  0  0
   10.6996   12.0293   21.6033 H   0  0  0  0  0  0  0  0  0  0  0  0
  1  2  2  0  0  0  0
  1  4  1  0  0  0  0
  1 18  1  0  0  0  0
  2  5  1  0  0  0  0
  2 21  1  0  0  0  0
  3 17  1  0  0  0  0
  3 18  2  0  0  0  0
  3 21  1  0  0  0  0
  4  6  1  0  0  0  0
  5  6  1  0  0  0  0
  7  8  1  0  0  0  0
  7  9  1  0  0  0  0
  8 15  1  0  0  0  0
  9 15  1  0  0  0  0
 10 11  1  0  0  0  0
 10 12  1  0  0  0  0
 11 20  1  0  0  0  0
 12 13  1  0  0  0  0
 12 14  1  0  0  0  0
 13 15  1  0  0  0  0
 13 19  1  0  0  0  0
 14 15  1  0  0  0  0
 14 20  1  0  0  0  0
 16 17  1  0  0  0  0
 17 19  1  0  0  0  0
  4 22  1  0  0  0  0
  4 23  1  0  0  0  0
  5 24  1  0  0  0  0
  5 25  1  0  0  0  0
  6 26  1  0  0  0  0
  6 27  1  0  0  0  0
  7 28  1  0  0  0  0
  7 29  1  0  0  0  0
  8 30  1  0  0  0  0
  8 31  1  0  0  0  0
  9 32  1  0  0  0  0
  9 33  1  0  0  0  0
 10 34  1  0  0  0  0
 10 35  1  0  0  0  0
 11 36  1  0  0  0  0
 11 37  1  0  0  0  0
 12 38  1  0  0  0  0
 13 39  1  0  0  0  0
 14 40  1  0  0  0  0
 16 41  1  0  0  0  0
 16 42  1  0  0  0  0
 16 43  1  0  0  0  0
 17 44  1  0  0  0  0
 19 45  1  0  0  0  0
M  END
> <Catalog ID>
Z1701584372

> <PlateID>
1041831-R-40

> <Well>
E10

> <MW (desalted)>
304.450

> <ClogP>
2.468

> <HBD>
1

> <TPSA>
34.150

> <RotBonds>
3

> <ROCS_ShapeQuery>
A71EV2A-x0451_0A_A71EV2A-x0310_0A_A71EV2A-x0416_0A_peptide

> <ROCS_TanimotoCombo>
0.514 

> <ROCS_ShapeTanimoto>
0.325 

> <ROCS_ColorTanimoto>
0.190 

> <ROCS_RefTversky>
0.290 

> <ROCS_RefColorTversky>
0.229 

> <ROCS_RefTverskyCombo>
0.519 

> <ROCS_FitTversky>
1.594 

> <ROCS_FitColorTversky>
0.523 

> <ROCS_FitTverskyCombo>
2.117 

> <ROCS_ColorScore>
-7.048

> <ROCS_Overlap>
2010.544

> <ROCS_Rank>
452                 

$$$$
untitled-dbase-1579_441
  -OEChem-11132311063D

 40 42  0     1  0  0  0  0  0999 V2000
    6.9527   12.7633   25.5753 C   0  0  0  0  0  0  0  0  0  0  0  0
    6.7482   11.5635   26.2539 C   0  0  0  0  0  0  0  0  0  0  0  0
    7.8045   12.8229   24.4663 C   0  0  0  0  0  0  0  0  0  0  0  0
    7.3860   10.3879   25.8477 C   0  0  0  0  0  0  0  0  0  0  0  0
   16.0097   12.7718   21.8141 C   0  0  0  0  0  0  0  0  0  0  0  0
   15.2477   12.9948   24.0959 C   0  0  0  0  0  0  0  0  0  0  0  0
   14.9793   13.6098   21.3880 C   0  0  0  0  0  0  0  0  0  0  0  0
   14.2173   13.8329   23.6698 C   0  0  0  0  0  0  0  0  0  0  0  0
    9.6696   10.0103   23.0622 C   0  0  0  0  0  0  0  0  0  0  0  0
    8.4586   11.6505   24.0384 C   0  0  0  0  0  0  0  0  0  0  0  0
    9.3657   11.3499   22.9840 C   0  0  0  0  0  0  0  0  0  0  0  0
    8.2347   10.4625   24.7376 C   0  0  0  0  0  0  0  0  0  0  0  0
   16.1439   12.4642   23.1680 C   0  0  0  0  0  0  0  0  0  0  0  0
   14.0831   14.1404   22.3158 C   0  0  0  0  0  0  0  0  0  0  0  0
   10.5367   14.0382   23.7013 C   0  0  0  0  0  0  0  0  0  0  0  0
    9.8942   12.2971   21.9814 C   0  0  0  0  0  0  0  0  0  0  0  0
   11.0182   13.2178   22.5136 C   0  0  1  0  0  0  0  0  0  0  0  0
    8.9825    9.4836   24.1228 N   0  0  0  0  0  0  0  0  0  0  0  0
   11.5238   14.0706   21.4672 N   0  0  0  0  0  0  0  0  0  0  0  0
   10.6469   13.6594   24.8628 O   0  0  0  0  0  0  0  0  0  0  0  0
   12.3874   16.0365   22.8983 O   0  0  0  0  0  0  0  0  0  0  0  0
   13.2148   15.8121   20.5341 O   0  0  0  0  0  0  0  0  0  0  0  0
    9.9793   15.2304   23.3806 O   0  0  0  0  0  0  0  0  0  0  0  0
   17.1329   11.6587   23.5771 F   0  0  0  0  0  0  0  0  0  0  0  0
   12.7785   15.2042   21.7766 S   0  0  0  0  0  0  0  0  0  0  0  0
    6.4451   13.6641   25.9097 H   0  0  0  0  0  0  0  0  0  0  0  0
    6.0824   11.5401   27.1128 H   0  0  0  0  0  0  0  0  0  0  0  0
    7.9527   13.7656   23.9475 H   0  0  0  0  0  0  0  0  0  0  0  0
    7.2271    9.4547   26.3772 H   0  0  0  0  0  0  0  0  0  0  0  0
   16.7076   12.3582   21.0920 H   0  0  0  0  0  0  0  0  0  0  0  0
   15.3527   12.7550   25.1499 H   0  0  0  0  0  0  0  0  0  0  0  0
   14.8839   13.8427   20.3308 H   0  0  0  0  0  0  0  0  0  0  0  0
   13.5246   14.2402   24.4014 H   0  0  0  0  0  0  0  0  0  0  0  0
   10.3114    9.3838   22.4583 H   0  0  0  0  0  0  0  0  0  0  0  0
    9.0688   12.9264   21.5913 H   0  0  0  0  0  0  0  0  0  0  0  0
   10.2687   11.7653   21.0819 H   0  0  0  0  0  0  0  0  0  0  0  0
   11.8723   12.6250   22.8608 H   0  0  0  0  0  0  0  0  0  0  0  0
    9.0185    8.5162   24.4132 H   0  0  0  0  0  0  0  0  0  0  0  0
   11.4277   13.7350   20.4875 H   0  0  0  0  0  0  0  0  0  0  0  0
    9.9459   15.4245   22.4203 H   0  0  0  0  0  0  0  0  0  0  0  0
  1  2  2  0  0  0  0
  1  3  1  0  0  0  0
  2  4  1  0  0  0  0
  3 10  2  0  0  0  0
  4 12  2  0  0  0  0
  5  7  1  0  0  0  0
  5 13  2  0  0  0  0
  6  8  2  0  0  0  0
  6 13  1  0  0  0  0
  7 14  2  0  0  0  0
  8 14  1  0  0  0  0
  9 11  2  0  0  0  0
  9 18  1  0  0  0  0
 10 11  1  0  0  0  0
 10 12  1  0  0  0  0
 11 16  1  0  0  0  0
 12 18  1  0  0  0  0
 13 24  1  0  0  0  0
 14 25  1  0  0  0  0
 15 17  1  0  0  0  0
 15 20  2  0  0  0  0
 15 23  1  0  0  0  0
 16 17  1  0  0  0  0
 17 19  1  0  0  0  0
 19 25  1  0  0  0  0
 21 25  2  0  0  0  0
 22 25  2  0  0  0  0
  1 26  1  0  0  0  0
  2 27  1  0  0  0  0
  3 28  1  0  0  0  0
  4 29  1  0  0  0  0
  5 30  1  0  0  0  0
  6 31  1  0  0  0  0
  7 32  1  0  0  0  0
  8 33  1  0  0  0  0
  9 34  1  0  0  0  0
 16 35  1  0  0  0  0
 16 36  1  0  0  0  0
 17 37  1  0  0  0  0
 18 38  1  0  0  0  0
 19 39  1  0  0  0  0
 23 40  1  0  0  0  0
M  END
> <Catalog ID>
Z45636989

> <PlateID>
1041831-R-20

> <Well>
F10

> <MW (desalted)>
362.375

> <ClogP>
2.851

> <HBD>
3

> <TPSA>
99.260

> <RotBonds>
5

> <ROCS_ShapeQuery>
A71EV2A-x0451_0A_A71EV2A-x0310_0A_A71EV2A-x0416_0A_peptide

> <ROCS_TanimotoCombo>
0.514 

> <ROCS_ShapeTanimoto>
0.326 

> <ROCS_ColorTanimoto>
0.188 

> <ROCS_RefTversky>
0.296 

> <ROCS_RefColorTversky>
0.216 

> <ROCS_RefTverskyCombo>
0.512 

> <ROCS_FitTversky>
1.446 

> <ROCS_FitColorTversky>
0.594 

> <ROCS_FitTverskyCombo>
2.041 

> <ROCS_ColorScore>
-6.606

> <ROCS_Overlap>
2059.627

> <ROCS_Rank>
453                 

$$$$
untitled-dbase-1774_41
  -OEChem-11132311063D

 37 39  0     1  0  0  0  0  0999 V2000
    6.5336   11.8130   26.4409 C   0  0  0  0  0  0  0  0  0  0  0  0
    7.0903   13.0366   26.1081 C   0  0  0  0  0  0  0  0  0  0  0  0
    6.9618   10.6594   25.7868 C   0  0  0  0  0  0  0  0  0  0  0  0
    8.0822   13.1037   25.1299 C   0  0  0  0  0  0  0  0  0  0  0  0
    7.9590   10.7072   24.7911 C   0  0  0  0  0  0  0  0  0  0  0  0
    8.5424   11.9479   24.4690 C   0  0  0  0  0  0  0  0  0  0  0  0
    9.2855    9.5454   23.0764 C   0  0  0  0  0  0  0  0  0  0  0  0
   10.4441   13.1137   23.3678 C   0  0  0  0  0  0  0  0  0  0  0  0
    9.6281   10.9080   22.5290 C   0  0  0  0  0  0  0  0  0  0  0  0
   10.9137   13.7155   20.9946 C   0  0  0  0  0  0  0  0  0  0  0  0
   11.0168   15.2236   21.1976 C   0  0  0  0  0  0  0  0  0  0  0  0
   12.7432   13.7780   22.6368 C   0  0  0  0  0  0  0  0  0  0  0  0
   11.4551   13.0487   22.2612 C   0  0  1  0  0  0  0  0  0  0  0  0
    7.9123    8.2177   24.6176 C   0  0  0  0  0  0  0  0  0  0  0  0
    8.4010    9.5118   24.1458 N   0  0  0  0  0  0  0  0  0  0  0  0
    9.5666   12.0181   23.4703 N   0  0  0  0  0  0  0  0  0  0  0  0
    9.6861    8.5442   22.4754 O   0  0  0  0  0  0  0  0  0  0  0  0
   10.4621   14.0924   24.1181 O   0  0  0  0  0  0  0  0  0  0  0  0
   12.2307   16.2897   23.2756 O   0  0  0  0  0  0  0  0  0  0  0  0
   13.5831   15.8116   21.1840 O   0  0  0  0  0  0  0  0  0  0  0  0
   12.5255   15.4756   22.1148 S   0  0  0  0  0  0  0  0  0  0  0  0
    5.7731   11.7505   27.2134 H   0  0  0  0  0  0  0  0  0  0  0  0
    6.7631   13.9406   26.6132 H   0  0  0  0  0  0  0  0  0  0  0  0
    6.4959    9.7241   26.0849 H   0  0  0  0  0  0  0  0  0  0  0  0
    8.5076   14.0837   24.9373 H   0  0  0  0  0  0  0  0  0  0  0  0
   10.6488   10.8707   22.1294 H   0  0  0  0  0  0  0  0  0  0  0  0
    8.9413   11.0880   21.6961 H   0  0  0  0  0  0  0  0  0  0  0  0
    9.8845   13.4224   20.7672 H   0  0  0  0  0  0  0  0  0  0  0  0
   11.5428   13.4187   20.1473 H   0  0  0  0  0  0  0  0  0  0  0  0
   11.0629   15.7697   20.2531 H   0  0  0  0  0  0  0  0  0  0  0  0
   10.1871   15.5996   21.8032 H   0  0  0  0  0  0  0  0  0  0  0  0
   12.9670   13.7577   23.7056 H   0  0  0  0  0  0  0  0  0  0  0  0
   13.5855   13.3702   22.0707 H   0  0  0  0  0  0  0  0  0  0  0  0
   11.6495   11.9855   22.0876 H   0  0  0  0  0  0  0  0  0  0  0  0
    6.9916    7.9536   24.0766 H   0  0  0  0  0  0  0  0  0  0  0  0
    8.6775    7.4486   24.4362 H   0  0  0  0  0  0  0  0  0  0  0  0
    7.7000    8.2768   25.6953 H   0  0  0  0  0  0  0  0  0  0  0  0
  1  2  2  0  0  0  0
  1  3  1  0  0  0  0
  2  4  1  0  0  0  0
  3  5  2  0  0  0  0
  4  6  2  0  0  0  0
  5  6  1  0  0  0  0
  5 15  1  0  0  0  0
  6 16  1  0  0  0  0
  7  9  1  0  0  0  0
  7 15  1  0  0  0  0
  7 17  2  0  0  0  0
  8 13  1  0  0  0  0
  8 16  1  0  0  0  0
  8 18  2  0  0  0  0
  9 16  1  0  0  0  0
 10 11  1  0  0  0  0
 10 13  1  0  0  0  0
 11 21  1  0  0  0  0
 12 13  1  0  0  0  0
 12 21  1  0  0  0  0
 14 15  1  0  0  0  0
 19 21  2  0  0  0  0
 20 21  2  0  0  0  0
  1 22  1  0  0  0  0
  2 23  1  0  0  0  0
  3 24  1  0  0  0  0
  4 25  1  0  0  0  0
  9 26  1  0  0  0  0
  9 27  1  0  0  0  0
 10 28  1  0  0  0  0
 10 29  1  0  0  0  0
 11 30  1  0  0  0  0
 11 31  1  0  0  0  0
 12 32  1  0  0  0  0
 12 33  1  0  0  0  0
 13 34  1  0  0  0  0
 14 35  1  0  0  0  0
 14 36  1  0  0  0  0
 14 37  1  0  0  0  0
M  END
> <Catalog ID>
Z1335517795

> <PlateID>
1041831-R-23

> <Well>
B05

> <MW (desalted)>
308.353

> <ClogP>
-0.300

> <HBD>
0

> <TPSA>
74.760

> <RotBonds>
1

> <ROCS_ShapeQuery>
A71EV2A-x0451_0A_A71EV2A-x0310_0A_A71EV2A-x0416_0A_peptide

> <ROCS_TanimotoCombo>
0.514 

> <ROCS_ShapeTanimoto>
0.371 

> <ROCS_ColorTanimoto>
0.143 

> <ROCS_RefTversky>
0.319 

> <ROCS_RefColorTversky>
0.159 

> <ROCS_RefTverskyCombo>
0.479 

> <ROCS_FitTversky>
1.768 

> <ROCS_FitColorTversky>
0.589 

> <ROCS_FitTverskyCombo>
2.357 

> <ROCS_ColorScore>
-4.857

> <ROCS_Overlap>
2216.245

> <ROCS_Rank>
454                 

$$$$
untitled-dbase-1508_1234
  -OEChem-11132311063D

 48 51  0     1  0  0  0  0  0999 V2000
    9.7558   11.6823   23.2438 C   0  0  0  0  0  0  0  0  0  0  0  0
    8.0873   11.2062   24.4255 C   0  0  0  0  0  0  0  0  0  0  0  0
    6.9892    8.6982   24.9234 C   0  0  0  0  0  0  0  0  0  0  0  0
    8.0689    8.7802   24.1308 C   0  0  0  0  0  0  0  0  0  0  0  0
    6.4782    9.9921   25.4681 C   0  0  0  0  0  0  0  0  0  0  0  0
   10.8783   13.9086   23.1103 C   0  0  0  0  0  0  0  0  0  0  0  0
   13.6070   15.0273   18.3701 C   0  0  0  0  0  0  0  0  0  0  0  0
   14.6476   15.8741   19.0881 C   0  0  0  0  0  0  0  0  0  0  0  0
   12.2247   15.6431   18.5439 C   0  0  0  0  0  0  0  0  0  0  0  0
   14.2702   16.0911   20.5519 C   0  0  0  0  0  0  0  0  0  0  0  0
   11.3462   16.2925   22.6360 C   0  0  0  0  0  0  0  0  0  0  0  0
   12.6293   16.9466   22.1178 C   0  0  0  0  0  0  0  0  0  0  0  0
   11.4926   14.6502   20.7783 C   0  0  0  0  0  0  0  0  0  0  0  0
   11.8752   15.9294   20.0142 C   0  0  1  0  0  0  0  0  0  0  0  0
    8.7009    7.5734   23.5074 C   0  0  0  0  0  0  0  0  0  0  0  0
    5.2649    9.9250   26.3620 C   0  0  0  0  0  0  0  0  0  0  0  0
   10.8094   12.5037   22.5622 C   0  0  0  0  0  0  0  0  0  0  0  0
    8.7987   12.2415   24.0272 N   0  0  0  0  0  0  0  0  0  0  0  0
    9.7022   10.3599   23.1163 N   0  0  0  0  0  0  0  0  0  0  0  0
    6.9922   11.1640   25.2354 N   0  0  0  0  0  0  0  0  0  0  0  0
    8.6248   10.0381   23.8771 N   0  0  0  0  0  0  0  0  0  0  0  0
   11.2476   14.9017   22.2023 N   0  0  0  0  0  0  0  0  0  0  0  0
   12.9355   16.6880   20.6991 N   0  0  2  0  0  0  0  0  0  0  0  0
   10.6172   14.1140   24.2977 O   0  0  0  0  0  0  0  0  0  0  0  0
    6.4949    7.7686   25.1719 H   0  0  0  0  0  0  0  0  0  0  0  0
   13.8518   14.9685   17.3038 H   0  0  0  0  0  0  0  0  0  0  0  0
   13.6162   14.0061   18.7629 H   0  0  0  0  0  0  0  0  0  0  0  0
   15.6269   15.3810   19.0290 H   0  0  0  0  0  0  0  0  0  0  0  0
   14.7482   16.8428   18.5842 H   0  0  0  0  0  0  0  0  0  0  0  0
   12.1692   16.5762   17.9577 H   0  0  0  0  0  0  0  0  0  0  0  0
   11.4717   14.9647   18.1041 H   0  0  0  0  0  0  0  0  0  0  0  0
   14.2963   15.1140   21.0577 H   0  0  0  0  0  0  0  0  0  0  0  0
   15.0334   16.7198   21.0384 H   0  0  0  0  0  0  0  0  0  0  0  0
   11.3344   16.2910   23.7324 H   0  0  0  0  0  0  0  0  0  0  0  0
   10.4782   16.8682   22.3009 H   0  0  0  0  0  0  0  0  0  0  0  0
   12.5796   18.0436   22.3083 H   0  0  0  0  0  0  0  0  0  0  0  0
   13.4717   16.5821   22.7463 H   0  0  0  0  0  0  0  0  0  0  0  0
   10.6208   14.1891   20.2996 H   0  0  0  0  0  0  0  0  0  0  0  0
   12.3051   13.9081   20.7289 H   0  0  0  0  0  0  0  0  0  0  0  0
   10.9455   16.5857   20.0034 H   0  0  0  0  0  0  0  0  0  0  0  0
    8.2461    7.3837   22.5372 H   0  0  0  0  0  0  0  0  0  0  0  0
    8.5536    6.7094   24.1529 H   0  0  0  0  0  0  0  0  0  0  0  0
    9.7684    7.7448   23.3811 H   0  0  0  0  0  0  0  0  0  0  0  0
    5.5886    9.8050   27.3904 H   0  0  0  0  0  0  0  0  0  0  0  0
    4.6515    9.0806   26.0649 H   0  0  0  0  0  0  0  0  0  0  0  0
    4.6956   10.8427   26.2564 H   0  0  0  0  0  0  0  0  0  0  0  0
   11.7880   12.0355   22.6821 H   0  0  0  0  0  0  0  0  0  0  0  0
   10.6214   12.5616   21.4891 H   0  0  0  0  0  0  0  0  0  0  0  0
  1 17  1  0  0  0  0
  1 18  1  0  0  0  0
  1 19  2  0  0  0  0
  2 18  2  0  0  0  0
  2 20  1  0  0  0  0
  2 21  1  0  0  0  0
  3  4  2  0  0  0  0
  3  5  1  0  0  0  0
  4 15  1  0  0  0  0
  4 21  1  0  0  0  0
  5 16  1  0  0  0  0
  5 20  2  0  0  0  0
  6 17  1  0  0  0  0
  6 22  1  0  0  0  0
  6 24  2  0  0  0  0
  7  8  1  0  0  0  0
  7  9  1  0  0  0  0
  8 10  1  0  0  0  0
  9 14  1  0  0  0  0
 10 23  1  0  0  0  0
 11 12  1  0  0  0  0
 11 22  1  0  0  0  0
 12 23  1  0  0  0  0
 13 14  1  0  0  0  0
 13 22  1  0  0  0  0
 14 23  1  0  0  0  0
 19 21  1  0  0  0  0
  3 25  1  0  0  0  0
  7 26  1  0  0  0  0
  7 27  1  0  0  0  0
  8 28  1  0  0  0  0
  8 29  1  0  0  0  0
  9 30  1  0  0  0  0
  9 31  1  0  0  0  0
 10 32  1  0  0  0  0
 10 33  1  0  0  0  0
 11 34  1  0  0  0  0
 11 35  1  0  0  0  0
 12 36  1  0  0  0  0
 12 37  1  0  0  0  0
 13 38  1  0  0  0  0
 13 39  1  0  0  0  0
 14 40  1  0  0  0  0
 15 41  1  0  0  0  0
 15 42  1  0  0  0  0
 15 43  1  0  0  0  0
 16 44  1  0  0  0  0
 16 45  1  0  0  0  0
 16 46  1  0  0  0  0
 17 47  1  0  0  0  0
 17 48  1  0  0  0  0
M  END
> <Catalog ID>
Z908773940

> <PlateID>
1041831-R-19

> <Well>
G09

> <MW (desalted)>
328.412

> <ClogP>
0.810

> <HBD>
0

> <TPSA>
66.630

> <RotBonds>
2

> <ROCS_ShapeQuery>
A71EV2A-x0451_0A_A71EV2A-x0310_0A_A71EV2A-x0416_0A_peptide

> <ROCS_TanimotoCombo>
0.514 

> <ROCS_ShapeTanimoto>
0.359 

> <ROCS_ColorTanimoto>
0.155 

> <ROCS_RefTversky>
0.318 

> <ROCS_RefColorTversky>
0.179 

> <ROCS_RefTverskyCombo>
0.497 

> <ROCS_FitTversky>
1.568 

> <ROCS_FitColorTversky>
0.536 

> <ROCS_FitTverskyCombo>
2.105 

> <ROCS_ColorScore>
-5.462

> <ROCS_Overlap>
2209.808

> <ROCS_Rank>
455                 

$$$$
untitled-dbase-820_2371
  -OEChem-11132311063D

 56 60  0     1  0  0  0  0  0999 V2000
   15.6793   18.1132   17.4445 C   0  0  0  0  0  0  0  0  0  0  0  0
   16.2791   17.5243   18.5577 C   0  0  0  0  0  0  0  0  0  0  0  0
   14.3016   18.0041   17.2553 C   0  0  0  0  0  0  0  0  0  0  0  0
   15.5013   16.8264   19.4815 C   0  0  0  0  0  0  0  0  0  0  0  0
   13.5238   17.3062   18.1791 C   0  0  0  0  0  0  0  0  0  0  0  0
   14.1236   16.7173   19.2922 C   0  0  0  0  0  0  0  0  0  0  0  0
   11.1463   13.7645   23.1199 C   0  0  0  0  0  0  0  0  0  0  0  0
    7.3390   12.1142   25.1736 C   0  0  0  0  0  0  0  0  0  0  0  0
    8.5147   12.4267   22.9797 C   0  0  0  0  0  0  0  0  0  0  0  0
    9.8405   11.9626   25.0646 C   0  0  0  0  0  0  0  0  0  0  0  0
    7.1507   10.3638   23.3897 C   0  0  0  0  0  0  0  0  0  0  0  0
    8.4751    9.8998   25.4686 C   0  0  0  0  0  0  0  0  0  0  0  0
    9.6553   10.2081   23.2765 C   0  0  0  0  0  0  0  0  0  0  0  0
   13.7357   15.9606   21.6264 C   0  0  0  0  0  0  0  0  0  0  0  0
   12.1008   15.3632   19.8118 C   0  0  0  0  0  0  0  0  0  0  0  0
   12.5148   15.7263   22.5133 C   0  0  0  0  0  0  0  0  0  0  0  0
   11.8033   14.1652   20.7139 C   0  0  0  0  0  0  0  0  0  0  0  0
    7.2481   11.8736   23.6571 C   0  0  1  0  0  0  0  0  0  0  0  0
    8.5784   11.4070   25.7479 C   0  0  2  0  0  0  0  0  0  0  0  0
    9.7779   11.7268   23.5365 C   0  0  0  0  0  0  0  0  0  0  0  0
    8.3909    9.6498   23.9539 C   0  0  0  0  0  0  0  0  0  0  0  0
   11.0346   12.2820   22.8611 C   0  0  0  0  0  0  0  0  0  0  0  0
   13.3466   16.0205   20.2146 N   0  0  0  0  0  0  0  0  0  0  0  0
   11.7907   14.5152   22.1360 N   0  0  0  0  0  0  0  0  0  0  0  0
   10.6745   14.2399   24.1554 O   0  0  0  0  0  0  0  0  0  0  0  0
    8.2785    8.2571   23.6978 O   0  0  0  0  0  0  0  0  0  0  0  0
   16.2852   18.6565   16.7251 H   0  0  0  0  0  0  0  0  0  0  0  0
   17.3516   17.6092   18.7048 H   0  0  0  0  0  0  0  0  0  0  0  0
   13.8347   18.4628   16.3883 H   0  0  0  0  0  0  0  0  0  0  0  0
   15.9784   16.3710   20.3455 H   0  0  0  0  0  0  0  0  0  0  0  0
   12.4511   17.2279   18.0213 H   0  0  0  0  0  0  0  0  0  0  0  0
    7.3930   13.1902   25.3796 H   0  0  0  0  0  0  0  0  0  0  0  0
    6.4331   11.7403   25.6666 H   0  0  0  0  0  0  0  0  0  0  0  0
    8.4463   12.2779   21.8943 H   0  0  0  0  0  0  0  0  0  0  0  0
    8.5775   13.5099   23.1458 H   0  0  0  0  0  0  0  0  0  0  0  0
    9.9334   13.0351   25.2792 H   0  0  0  0  0  0  0  0  0  0  0  0
   10.7307   11.4786   25.4867 H   0  0  0  0  0  0  0  0  0  0  0  0
    6.2393    9.9520   23.8422 H   0  0  0  0  0  0  0  0  0  0  0  0
    7.0605   10.1700   22.3130 H   0  0  0  0  0  0  0  0  0  0  0  0
    9.3395    9.3724   25.8925 H   0  0  0  0  0  0  0  0  0  0  0  0
    7.5954    9.4762   25.9703 H   0  0  0  0  0  0  0  0  0  0  0  0
    9.6216    9.9996   22.1987 H   0  0  0  0  0  0  0  0  0  0  0  0
   10.5429    9.6788   23.6490 H   0  0  0  0  0  0  0  0  0  0  0  0
   14.2325   16.8954   21.9150 H   0  0  0  0  0  0  0  0  0  0  0  0
   14.4514   15.1444   21.7804 H   0  0  0  0  0  0  0  0  0  0  0  0
   12.1884   15.0385   18.7677 H   0  0  0  0  0  0  0  0  0  0  0  0
   11.2554   16.0614   19.8616 H   0  0  0  0  0  0  0  0  0  0  0  0
   12.8191   15.6124   23.5577 H   0  0  0  0  0  0  0  0  0  0  0  0
   11.8514   16.5905   22.4512 H   0  0  0  0  0  0  0  0  0  0  0  0
   10.8191   13.7360   20.4757 H   0  0  0  0  0  0  0  0  0  0  0  0
   12.5434   13.3734   20.5350 H   0  0  0  0  0  0  0  0  0  0  0  0
    6.3630   12.3788   23.2551 H   0  0  0  0  0  0  0  0  0  0  0  0
    8.6360   11.5806   26.8281 H   0  0  0  0  0  0  0  0  0  0  0  0
   10.9841   12.1082   21.7877 H   0  0  0  0  0  0  0  0  0  0  0  0
   11.9165   11.7870   23.2640 H   0  0  0  0  0  0  0  0  0  0  0  0
    7.4700    7.9541   24.1422 H   0  0  0  0  0  0  0  0  0  0  0  0
  1  2  2  0  0  0  0
  1  3  1  0  0  0  0
  2  4  1  0  0  0  0
  3  5  2  0  0  0  0
  4  6  2  0  0  0  0
  5  6  1  0  0  0  0
  6 23  1  0  0  0  0
  7 22  1  0  0  0  0
  7 24  1  0  0  0  0
  7 25  2  0  0  0  0
  8 18  1  0  0  0  0
  8 19  1  0  0  0  0
  9 18  1  0  0  0  0
  9 20  1  0  0  0  0
 10 19  1  0  0  0  0
 10 20  1  0  0  0  0
 11 18  1  0  0  0  0
 11 21  1  0  0  0  0
 12 19  1  0  0  0  0
 12 21  1  0  0  0  0
 13 20  1  0  0  0  0
 13 21  1  0  0  0  0
 14 16  1  0  0  0  0
 14 23  1  0  0  0  0
 15 17  1  0  0  0  0
 15 23  1  0  0  0  0
 16 24  1  0  0  0  0
 17 24  1  0  0  0  0
 20 22  1  0  0  0  0
 21 26  1  0  0  0  0
  1 27  1  0  0  0  0
  2 28  1  0  0  0  0
  3 29  1  0  0  0  0
  4 30  1  0  0  0  0
  5 31  1  0  0  0  0
  8 32  1  0  0  0  0
  8 33  1  0  0  0  0
  9 34  1  0  0  0  0
  9 35  1  0  0  0  0
 10 36  1  0  0  0  0
 10 37  1  0  0  0  0
 11 38  1  0  0  0  0
 11 39  1  0  0  0  0
 12 40  1  0  0  0  0
 12 41  1  0  0  0  0
 13 42  1  0  0  0  0
 13 43  1  0  0  0  0
 14 44  1  0  0  0  0
 14 45  1  0  0  0  0
 15 46  1  0  0  0  0
 15 47  1  0  0  0  0
 16 48  1  0  0  0  0
 16 49  1  0  0  0  0
 17 50  1  0  0  0  0
 17 51  1  0  0  0  0
 18 52  1  0  0  0  0
 19 53  1  0  0  0  0
 22 54  1  0  0  0  0
 22 55  1  0  0  0  0
 26 56  1  0  0  0  0
M  END
> <Catalog ID>
Z100473596

> <PlateID>
1041831-R-11

> <Well>
B11

> <MW (desalted)>
354.486

> <ClogP>
2.370

> <HBD>
1

> <TPSA>
43.780

> <RotBonds>
3

> <ROCS_ShapeQuery>
A71EV2A-x0451_0A_A71EV2A-x0310_0A_A71EV2A-x0416_0A_peptide

> <ROCS_TanimotoCombo>
0.514 

> <ROCS_ShapeTanimoto>
0.334 

> <ROCS_ColorTanimoto>
0.180 

> <ROCS_RefTversky>
0.304 

> <ROCS_RefColorTversky>
0.215 

> <ROCS_RefTverskyCombo>
0.519 

> <ROCS_FitTversky>
1.418 

> <ROCS_FitColorTversky>
0.528 

> <ROCS_FitTverskyCombo>
1.946 

> <ROCS_ColorScore>
-6.585

> <ROCS_Overlap>
2115.019

> <ROCS_Rank>
456                 

$$$$
untitled-dbase-629_2038
  -OEChem-11132311063D

 42 44  0     1  0  0  0  0  0999 V2000
   15.3823   15.5481   17.0205 C   0  0  0  0  0  0  0  0  0  0  0  0
   12.5211   15.3643   18.5899 C   0  0  0  0  0  0  0  0  0  0  0  0
   14.2186   16.4192   19.9473 C   0  0  0  0  0  0  0  0  0  0  0  0
   11.8614   14.9411   19.7436 C   0  0  0  0  0  0  0  0  0  0  0  0
   13.5588   15.9961   21.1012 C   0  0  0  0  0  0  0  0  0  0  0  0
   13.6998   16.1033   18.6917 C   0  0  0  0  0  0  0  0  0  0  0  0
   12.3802   15.2570   20.9993 C   0  0  0  0  0  0  0  0  0  0  0  0
   10.3608   13.3450   23.3906 C   0  0  0  0  0  0  0  0  0  0  0  0
    7.4405   11.4670   26.4233 C   0  0  0  0  0  0  0  0  0  0  0  0
    8.6902   12.1031   25.8064 C   0  0  0  0  0  0  0  0  0  0  0  0
    6.5651   11.0026   25.2548 C   0  0  0  0  0  0  0  0  0  0  0  0
    9.8323   10.9656   22.6926 C   0  0  0  0  0  0  0  0  0  0  0  0
    9.5151    9.7273   23.5168 C   0  0  0  0  0  0  0  0  0  0  0  0
    8.4000   12.1731   24.3039 C   0  0  2  0  0  0  0  0  0  0  0  0
    7.5093   10.9562   24.0582 C   0  0  1  0  0  0  0  0  0  0  0  0
   14.4049   16.5563   17.4582 C   0  0  0  0  0  0  0  0  0  0  0  0
   10.9926   13.6386   22.0534 C   0  0  0  0  0  0  0  0  0  0  0  0
   16.1543   14.7535   16.6752 N   0  0  0  0  0  0  0  0  0  0  0  0
    9.5998   12.1791   23.4769 N   0  0  0  0  0  0  0  0  0  0  0  0
   10.5381   14.1227   24.3316 O   0  0  0  0  0  0  0  0  0  0  0  0
    8.2157    9.7178   24.1016 O   0  0  0  0  0  0  0  0  0  0  0  0
   11.7292   14.8410   22.1362 O   0  0  0  0  0  0  0  0  0  0  0  0
   12.1098   15.1136   17.6157 H   0  0  0  0  0  0  0  0  0  0  0  0
   15.1365   16.9946   20.0363 H   0  0  0  0  0  0  0  0  0  0  0  0
   10.9433   14.3659   19.6578 H   0  0  0  0  0  0  0  0  0  0  0  0
   13.9678   16.2456   22.0762 H   0  0  0  0  0  0  0  0  0  0  0  0
    7.7286   10.6125   27.0459 H   0  0  0  0  0  0  0  0  0  0  0  0
    6.9003   12.1711   27.0635 H   0  0  0  0  0  0  0  0  0  0  0  0
    8.8819   13.0954   26.2213 H   0  0  0  0  0  0  0  0  0  0  0  0
    9.5587   11.4776   26.0300 H   0  0  0  0  0  0  0  0  0  0  0  0
    6.1012   10.0360   25.4704 H   0  0  0  0  0  0  0  0  0  0  0  0
    5.7743   11.7405   25.0804 H   0  0  0  0  0  0  0  0  0  0  0  0
   10.8890   10.9714   22.4202 H   0  0  0  0  0  0  0  0  0  0  0  0
    9.2421   10.9572   21.7801 H   0  0  0  0  0  0  0  0  0  0  0  0
    9.6526    8.7986   22.9122 H   0  0  0  0  0  0  0  0  0  0  0  0
   10.2495    9.6390   24.3482 H   0  0  0  0  0  0  0  0  0  0  0  0
    7.8163   13.0791   24.1088 H   0  0  0  0  0  0  0  0  0  0  0  0
    6.9440   11.0213   23.1174 H   0  0  0  0  0  0  0  0  0  0  0  0
   14.9170   17.5120   17.6357 H   0  0  0  0  0  0  0  0  0  0  0  0
   13.6855   16.7465   16.6501 H   0  0  0  0  0  0  0  0  0  0  0  0
   10.2191   13.7349   21.2972 H   0  0  0  0  0  0  0  0  0  0  0  0
   11.6628   12.8249   21.7926 H   0  0  0  0  0  0  0  0  0  0  0  0
  1 16  1  0  0  0  0
  1 18  3  0  0  0  0
  2  4  1  0  0  0  0
  2  6  2  0  0  0  0
  3  5  2  0  0  0  0
  3  6  1  0  0  0  0
  4  7  2  0  0  0  0
  5  7  1  0  0  0  0
  6 16  1  0  0  0  0
  7 22  1  0  0  0  0
  8 17  1  0  0  0  0
  8 19  1  0  0  0  0
  8 20  2  0  0  0  0
  9 10  1  0  0  0  0
  9 11  1  0  0  0  0
 10 14  1  0  0  0  0
 11 15  1  0  0  0  0
 12 13  1  0  0  0  0
 12 19  1  0  0  0  0
 13 21  1  0  0  0  0
 14 15  1  0  0  0  0
 14 19  1  0  0  0  0
 15 21  1  0  0  0  0
 17 22  1  0  0  0  0
  2 23  1  0  0  0  0
  3 24  1  0  0  0  0
  4 25  1  0  0  0  0
  5 26  1  0  0  0  0
  9 27  1  0  0  0  0
  9 28  1  0  0  0  0
 10 29  1  0  0  0  0
 10 30  1  0  0  0  0
 11 31  1  0  0  0  0
 11 32  1  0  0  0  0
 12 33  1  0  0  0  0
 12 34  1  0  0  0  0
 13 35  1  0  0  0  0
 13 36  1  0  0  0  0
 14 37  1  0  0  0  0
 15 38  1  0  0  0  0
 16 39  1  0  0  0  0
 16 40  1  0  0  0  0
 17 41  1  0  0  0  0
 17 42  1  0  0  0  0
M  END
> <Catalog ID>
Z846496042

> <PlateID>
1041831-R-08

> <Well>
G10

> <MW (desalted)>
300.352

> <ClogP>
1.667

> <HBD>
0

> <TPSA>
62.560

> <RotBonds>
4

> <ROCS_ShapeQuery>
A71EV2A-x0451_0A_A71EV2A-x0310_0A_A71EV2A-x0416_0A_peptide

> <ROCS_TanimotoCombo>
0.514 

> <ROCS_ShapeTanimoto>
0.320 

> <ROCS_ColorTanimoto>
0.194 

> <ROCS_RefTversky>
0.288 

> <ROCS_RefColorTversky>
0.207 

> <ROCS_RefTverskyCombo>
0.494 

> <ROCS_FitTversky>
1.542 

> <ROCS_FitColorTversky>
0.761 

> <ROCS_FitTverskyCombo>
2.303 

> <ROCS_ColorScore>
-6.300

> <ROCS_Overlap>
1997.064

> <ROCS_Rank>
457                 

$$$$
untitled-dbase-120_1019
  -OEChem-11132311063D

 51 55  0     1  0  0  0  0  0999 V2000
   10.6431   11.0816   23.4519 C   0  0  0  0  0  0  0  0  0  0  0  0
    9.9015    9.9217   23.6772 C   0  0  0  0  0  0  0  0  0  0  0  0
    8.7388   12.4307   24.0840 C   0  0  0  0  0  0  0  0  0  0  0  0
   10.0609   12.3341   23.6496 C   0  0  0  0  0  0  0  0  0  0  0  0
    8.5747   10.0175   24.0977 C   0  0  0  0  0  0  0  0  0  0  0  0
    8.0005   11.2712   24.3223 C   0  0  0  0  0  0  0  0  0  0  0  0
   12.1796   14.9650   22.6823 C   0  0  0  0  0  0  0  0  0  0  0  0
   11.8044   13.6568   22.5065 C   0  0  0  0  0  0  0  0  0  0  0  0
   13.2356   15.6944   21.9635 C   0  0  0  0  0  0  0  0  0  0  0  0
   13.1868   17.8070   16.5098 C   0  0  0  0  0  0  0  0  0  0  0  0
   12.1289   16.7647   16.1336 C   0  0  0  0  0  0  0  0  0  0  0  0
   13.7828   17.6060   17.9072 C   0  0  0  0  0  0  0  0  0  0  0  0
   11.3680   16.2632   17.3553 C   0  0  0  0  0  0  0  0  0  0  0  0
   14.2819   15.8842   19.7275 C   0  0  0  0  0  0  0  0  0  0  0  0
   11.8749   15.8147   19.8131 C   0  0  0  0  0  0  0  0  0  0  0  0
    6.4794    9.0569   24.3673 C   0  0  0  0  0  0  0  0  0  0  0  0
    6.1793   10.2149   25.2991 C   0  0  0  0  0  0  0  0  0  0  0  0
   13.7536   16.1343   18.3181 C   0  0  1  0  0  0  0  0  0  0  0  0
   12.3109   15.5966   18.3634 C   0  0  2  0  0  0  0  0  0  0  0  0
   12.2912   12.5995   21.6025 C   0  0  0  0  0  0  0  0  0  0  0  0
   11.4109   15.5363   23.6582 N   0  0  0  0  0  0  0  0  0  0  0  0
   10.5615   14.6153   24.1002 N   0  0  0  0  0  0  0  0  0  0  0  0
   10.7991   13.4891   23.4085 N   0  0  0  0  0  0  0  0  0  0  0  0
   13.1118   15.8097   20.5866 N   0  0  0  0  0  0  0  0  0  0  0  0
   14.1646   16.1446   22.6310 O   0  0  0  0  0  0  0  0  0  0  0  0
    7.8911    8.8439   24.2810 O   0  0  0  0  0  0  0  0  0  0  0  0
    6.7141   11.4301   24.7671 O   0  0  0  0  0  0  0  0  0  0  0  0
   11.6769   10.9950   23.1259 H   0  0  0  0  0  0  0  0  0  0  0  0
   10.3661    8.9501   23.5331 H   0  0  0  0  0  0  0  0  0  0  0  0
    8.2765   13.4049   24.2279 H   0  0  0  0  0  0  0  0  0  0  0  0
   14.0004   17.7943   15.7588 H   0  0  0  0  0  0  0  0  0  0  0  0
   12.7406   18.8174   16.4471 H   0  0  0  0  0  0  0  0  0  0  0  0
   11.4306   17.1991   15.4071 H   0  0  0  0  0  0  0  0  0  0  0  0
   12.6151   15.9189   15.6319 H   0  0  0  0  0  0  0  0  0  0  0  0
   14.8136   17.9722   17.9178 H   0  0  0  0  0  0  0  0  0  0  0  0
   13.2234   18.2237   18.6176 H   0  0  0  0  0  0  0  0  0  0  0  0
   10.8334   17.0814   17.8244 H   0  0  0  0  0  0  0  0  0  0  0  0
   10.6399   15.5253   17.0290 H   0  0  0  0  0  0  0  0  0  0  0  0
   14.7926   14.9108   19.7913 H   0  0  0  0  0  0  0  0  0  0  0  0
   14.9816   16.6530   20.0882 H   0  0  0  0  0  0  0  0  0  0  0  0
   11.3822   16.7843   19.9719 H   0  0  0  0  0  0  0  0  0  0  0  0
   11.1966   15.0244   20.1638 H   0  0  0  0  0  0  0  0  0  0  0  0
    6.0051    8.1292   24.7105 H   0  0  0  0  0  0  0  0  0  0  0  0
    6.1131    9.2748   23.3592 H   0  0  0  0  0  0  0  0  0  0  0  0
    5.1003   10.3429   25.4500 H   0  0  0  0  0  0  0  0  0  0  0  0
    6.6440   10.0467   26.2757 H   0  0  0  0  0  0  0  0  0  0  0  0
   14.3320   15.5555   17.5696 H   0  0  0  0  0  0  0  0  0  0  0  0
   12.3146   14.5263   18.1665 H   0  0  0  0  0  0  0  0  0  0  0  0
   13.1076   12.0212   22.0671 H   0  0  0  0  0  0  0  0  0  0  0  0
   11.4933   11.8875   21.3273 H   0  0  0  0  0  0  0  0  0  0  0  0
   12.6728   13.0093   20.6506 H   0  0  0  0  0  0  0  0  0  0  0  0
  1  2  1  0  0  0  0
  1  4  2  0  0  0  0
  2  5  2  0  0  0  0
  3  4  1  0  0  0  0
  3  6  2  0  0  0  0
  4 23  1  0  0  0  0
  5  6  1  0  0  0  0
  5 26  1  0  0  0  0
  6 27  1  0  0  0  0
  7  8  2  0  0  0  0
  7  9  1  0  0  0  0
  7 21  1  0  0  0  0
  8 20  1  0  0  0  0
  8 23  1  0  0  0  0
  9 24  1  0  0  0  0
  9 25  2  0  0  0  0
 10 11  1  0  0  0  0
 10 12  1  0  0  0  0
 11 13  1  0  0  0  0
 12 18  1  0  0  0  0
 13 19  1  0  0  0  0
 14 18  1  0  0  0  0
 14 24  1  0  0  0  0
 15 19  1  0  0  0  0
 15 24  1  0  0  0  0
 16 17  1  0  0  0  0
 16 26  1  0  0  0  0
 17 27  1  0  0  0  0
 18 19  1  0  0  0  0
 21 22  2  0  0  0  0
 22 23  1  0  0  0  0
  1 28  1  0  0  0  0
  2 29  1  0  0  0  0
  3 30  1  0  0  0  0
 10 31  1  0  0  0  0
 10 32  1  0  0  0  0
 11 33  1  0  0  0  0
 11 34  1  0  0  0  0
 12 35  1  0  0  0  0
 12 36  1  0  0  0  0
 13 37  1  0  0  0  0
 13 38  1  0  0  0  0
 14 39  1  0  0  0  0
 14 40  1  0  0  0  0
 15 41  1  0  0  0  0
 15 42  1  0  0  0  0
 16 43  1  0  0  0  0
 16 44  1  0  0  0  0
 17 45  1  0  0  0  0
 17 46  1  0  0  0  0
 18 47  1  0  0  0  0
 19 48  1  0  0  0  0
 20 49  1  0  0  0  0
 20 50  1  0  0  0  0
 20 51  1  0  0  0  0
M  END
> <Catalog ID>
Z1348910409

> <PlateID>
1041831-R-02

> <Well>
D11

> <MW (desalted)>
368.430

> <ClogP>
2.887

> <HBD>
0

> <TPSA>
69.480

> <RotBonds>
2

> <ROCS_ShapeQuery>
A71EV2A-x0451_0A_A71EV2A-x0310_0A_A71EV2A-x0416_0A_peptide

> <ROCS_TanimotoCombo>
0.514 

> <ROCS_ShapeTanimoto>
0.348 

> <ROCS_ColorTanimoto>
0.166 

> <ROCS_RefTversky>
0.316 

> <ROCS_RefColorTversky>
0.195 

> <ROCS_RefTverskyCombo>
0.512 

> <ROCS_FitTversky>
1.408 

> <ROCS_FitColorTversky>
0.522 

> <ROCS_FitTverskyCombo>
1.930 

> <ROCS_ColorScore>
-5.978

> <ROCS_Overlap>
2202.254

> <ROCS_Rank>
458                 

$$$$
untitled-dbase-3106_510
  -OEChem-11132311063D

 46 49  0     1  0  0  0  0  0999 V2000
   15.3457   12.7939   23.2436 C   0  0  0  0  0  0  0  0  0  0  0  0
   15.1753   12.3493   24.5546 C   0  0  0  0  0  0  0  0  0  0  0  0
   14.2764   13.3704   22.5581 C   0  0  0  0  0  0  0  0  0  0  0  0
   12.8662   13.0576   24.4947 C   0  0  0  0  0  0  0  0  0  0  0  0
   13.9355   12.4811   25.1802 C   0  0  0  0  0  0  0  0  0  0  0  0
   13.0367   13.5023   23.1836 C   0  0  0  0  0  0  0  0  0  0  0  0
   13.7583   12.0179   26.5473 C   0  0  0  0  0  0  0  0  0  0  0  0
    9.3505    8.1698   23.0197 C   0  0  0  0  0  0  0  0  0  0  0  0
   10.3079    9.3195   23.4250 C   0  0  0  0  0  0  0  0  0  0  0  0
    8.3480    9.2514   22.5436 C   0  0  0  0  0  0  0  0  0  0  0  0
    7.5454   12.6790   24.9819 C   0  0  0  0  0  0  0  0  0  0  0  0
    6.4507   11.6597   24.6869 C   0  0  0  0  0  0  0  0  0  0  0  0
    8.8526   11.9858   24.6137 C   0  0  2  0  0  0  0  0  0  0  0  0
    9.1366   11.6724   23.1131 C   0  0  2  0  0  0  0  0  0  0  0  0
    8.4798   10.4945   24.8325 C   0  0  2  0  0  0  0  0  0  0  0  0
    9.0764   10.2079   23.4649 C   0  0  0  0  0  0  0  0  0  0  0  0
   11.8798   14.1258   22.4420 C   0  0  0  0  0  0  0  0  0  0  0  0
   10.5246   13.5806   22.8860 C   0  0  0  0  0  0  0  0  0  0  0  0
   14.8571   11.4508   27.1865 N   0  0  0  0  0  0  0  0  0  0  0  0
   10.4152   12.1399   22.7044 N   0  0  0  0  0  0  0  0  0  0  0  0
   12.6607   12.1072   27.1249 O   0  0  0  0  0  0  0  0  0  0  0  0
    7.0436   10.3931   24.9948 O   0  0  0  0  0  0  0  0  0  0  0  0
   16.3107   12.6902   22.7561 H   0  0  0  0  0  0  0  0  0  0  0  0
   16.0154   11.9019   25.0797 H   0  0  0  0  0  0  0  0  0  0  0  0
   14.4185   13.7147   21.5370 H   0  0  0  0  0  0  0  0  0  0  0  0
   11.8985   13.1601   24.9805 H   0  0  0  0  0  0  0  0  0  0  0  0
    9.7211    7.4932   22.2455 H   0  0  0  0  0  0  0  0  0  0  0  0
    8.9890    7.5784   23.8690 H   0  0  0  0  0  0  0  0  0  0  0  0
   10.8474    9.1697   24.3642 H   0  0  0  0  0  0  0  0  0  0  0  0
   11.0346    9.5442   22.6361 H   0  0  0  0  0  0  0  0  0  0  0  0
    8.4469    9.4933   21.4787 H   0  0  0  0  0  0  0  0  0  0  0  0
    7.2969    9.0408   22.7556 H   0  0  0  0  0  0  0  0  0  0  0  0
    7.3944   13.6180   24.4419 H   0  0  0  0  0  0  0  0  0  0  0  0
    7.5493   12.9034   26.0554 H   0  0  0  0  0  0  0  0  0  0  0  0
    5.5603   11.8166   25.3012 H   0  0  0  0  0  0  0  0  0  0  0  0
    6.1671   11.6613   23.6296 H   0  0  0  0  0  0  0  0  0  0  0  0
    9.7104   12.3254   25.2067 H   0  0  0  0  0  0  0  0  0  0  0  0
    8.2928   11.9972   22.4273 H   0  0  0  0  0  0  0  0  0  0  0  0
    8.9897   10.0221   25.6786 H   0  0  0  0  0  0  0  0  0  0  0  0
   12.0124   13.9379   21.3691 H   0  0  0  0  0  0  0  0  0  0  0  0
   11.9061   15.2164   22.5630 H   0  0  0  0  0  0  0  0  0  0  0  0
   10.3749   13.7767   23.9524 H   0  0  0  0  0  0  0  0  0  0  0  0
    9.7014   14.0465   22.3344 H   0  0  0  0  0  0  0  0  0  0  0  0
   14.7597   11.1199   28.1403 H   0  0  0  0  0  0  0  0  0  0  0  0
   15.7536   11.3611   26.7192 H   0  0  0  0  0  0  0  0  0  0  0  0
   10.5555   11.9133   21.7205 H   0  0  0  0  0  0  0  0  0  0  0  0
  1  2  1  0  0  0  0
  1  3  2  0  0  0  0
  2  5  2  0  0  0  0
  3  6  1  0  0  0  0
  4  5  1  0  0  0  0
  4  6  2  0  0  0  0
  5  7  1  0  0  0  0
  6 17  1  0  0  0  0
  7 19  1  0  0  0  0
  7 21  2  0  0  0  0
  8  9  1  0  0  0  0
  8 10  1  0  0  0  0
  9 16  1  0  0  0  0
 10 16  1  0  0  0  0
 11 12  1  0  0  0  0
 11 13  1  0  0  0  0
 12 22  1  0  0  0  0
 13 14  1  0  0  0  0
 13 15  1  0  0  0  0
 14 16  1  0  0  0  0
 14 20  1  0  0  0  0
 15 16  1  0  0  0  0
 15 22  1  0  0  0  0
 17 18  1  0  0  0  0
 18 20  1  0  0  0  0
  1 23  1  0  0  0  0
  2 24  1  0  0  0  0
  3 25  1  0  0  0  0
  4 26  1  0  0  0  0
  8 27  1  0  0  0  0
  8 28  1  0  0  0  0
  9 29  1  0  0  0  0
  9 30  1  0  0  0  0
 10 31  1  0  0  0  0
 10 32  1  0  0  0  0
 11 33  1  0  0  0  0
 11 34  1  0  0  0  0
 12 35  1  0  0  0  0
 12 36  1  0  0  0  0
 13 37  1  0  0  0  0
 14 38  1  0  0  0  0
 15 39  1  0  0  0  0
 17 40  1  0  0  0  0
 17 41  1  0  0  0  0
 18 42  1  0  0  0  0
 18 43  1  0  0  0  0
 19 44  1  0  0  0  0
 19 45  1  0  0  0  0
 20 46  1  0  0  0  0
M  END
> <Catalog ID>
Z1597941996

> <PlateID>
1041831-R-39

> <Well>
G07

> <MW (desalted)>
300.395

> <ClogP>
1.522

> <HBD>
2

> <TPSA>
64.350

> <RotBonds>
5

> <ROCS_ShapeQuery>
A71EV2A-x0451_0A_A71EV2A-x0310_0A_A71EV2A-x0416_0A_peptide

> <ROCS_TanimotoCombo>
0.514 

> <ROCS_ShapeTanimoto>
0.324 

> <ROCS_ColorTanimoto>
0.190 

> <ROCS_RefTversky>
0.291 

> <ROCS_RefColorTversky>
0.229 

> <ROCS_RefTverskyCombo>
0.520 

> <ROCS_FitTversky>
1.552 

> <ROCS_FitColorTversky>
0.524 

> <ROCS_FitTverskyCombo>
2.076 

> <ROCS_ColorScore>
-7.044

> <ROCS_Overlap>
2018.960

> <ROCS_Rank>
459                 

$$$$
untitled-dbase-3192_223
  -OEChem-11132311063D

 38 41  0     1  0  0  0  0  0999 V2000
   12.2421   14.0982   26.1539 C   0  0  0  0  0  0  0  0  0  0  0  0
   12.8865   13.1113   25.4163 C   0  0  0  0  0  0  0  0  0  0  0  0
   11.1182   14.6910   25.6014 C   0  0  0  0  0  0  0  0  0  0  0  0
   12.3944   12.7525   24.1663 C   0  0  0  0  0  0  0  0  0  0  0  0
   11.2636   13.4055   23.7029 C   0  0  0  0  0  0  0  0  0  0  0  0
    8.6661    7.9355   22.9876 C   0  0  0  0  0  0  0  0  0  0  0  0
    9.8553    8.9115   23.1777 C   0  0  0  0  0  0  0  0  0  0  0  0
    7.7993    9.1601   22.5998 C   0  0  0  0  0  0  0  0  0  0  0  0
    7.9761   12.7558   24.9187 C   0  0  0  0  0  0  0  0  0  0  0  0
    6.6925   11.9361   24.8499 C   0  0  0  0  0  0  0  0  0  0  0  0
    9.0741   11.8311   24.4047 C   0  0  2  0  0  0  0  0  0  0  0  0
    9.0645   11.4221   22.9003 C   0  0  2  0  0  0  0  0  0  0  0  0
    8.4931   10.4371   24.7654 C   0  0  2  0  0  0  0  0  0  0  0  0
    8.8130   10.0038   23.3447 C   0  0  0  0  0  0  0  0  0  0  0  0
   10.7028   13.0470   22.3571 C   0  0  0  0  0  0  0  0  0  0  0  0
   10.6105   14.3689   24.3906 N   0  0  0  0  0  0  0  0  0  0  0  0
   10.3245   11.6428   22.2807 N   0  0  0  0  0  0  0  0  0  0  0  0
    7.1033   10.5959   25.1429 O   0  0  0  0  0  0  0  0  0  0  0  0
   13.0019   11.8051   23.4418 F   0  0  0  0  0  0  0  0  0  0  0  0
   12.6079   14.3938   27.1306 H   0  0  0  0  0  0  0  0  0  0  0  0
   13.7706   12.6228   25.8144 H   0  0  0  0  0  0  0  0  0  0  0  0
   10.5793   15.4660   26.1360 H   0  0  0  0  0  0  0  0  0  0  0  0
    8.7922    7.1784   22.2095 H   0  0  0  0  0  0  0  0  0  0  0  0
    8.3461    7.4460   23.9149 H   0  0  0  0  0  0  0  0  0  0  0  0
   10.5009    8.7007   24.0347 H   0  0  0  0  0  0  0  0  0  0  0  0
   10.4781    8.9778   22.2784 H   0  0  0  0  0  0  0  0  0  0  0  0
    7.7711    9.3448   21.5193 H   0  0  0  0  0  0  0  0  0  0  0  0
    6.7736    9.1453   22.9764 H   0  0  0  0  0  0  0  0  0  0  0  0
    7.9040   13.6880   24.3512 H   0  0  0  0  0  0  0  0  0  0  0  0
    8.1846   13.0122   25.9645 H   0  0  0  0  0  0  0  0  0  0  0  0
    5.9478   12.2681   25.5778 H   0  0  0  0  0  0  0  0  0  0  0  0
    6.2526   11.9520   23.8476 H   0  0  0  0  0  0  0  0  0  0  0  0
   10.0585   12.0341   24.8437 H   0  0  0  0  0  0  0  0  0  0  0  0
    8.1917   11.8672   22.3277 H   0  0  0  0  0  0  0  0  0  0  0  0
    9.0410    9.9111   25.5542 H   0  0  0  0  0  0  0  0  0  0  0  0
    9.8139   13.6482   22.1366 H   0  0  0  0  0  0  0  0  0  0  0  0
   11.4317   13.2411   21.5632 H   0  0  0  0  0  0  0  0  0  0  0  0
   10.2701   11.3620   21.3023 H   0  0  0  0  0  0  0  0  0  0  0  0
  1  2  1  0  0  0  0
  1  3  2  0  0  0  0
  2  4  2  0  0  0  0
  3 16  1  0  0  0  0
  4  5  1  0  0  0  0
  4 19  1  0  0  0  0
  5 15  1  0  0  0  0
  5 16  2  0  0  0  0
  6  7  1  0  0  0  0
  6  8  1  0  0  0  0
  7 14  1  0  0  0  0
  8 14  1  0  0  0  0
  9 10  1  0  0  0  0
  9 11  1  0  0  0  0
 10 18  1  0  0  0  0
 11 12  1  0  0  0  0
 11 13  1  0  0  0  0
 12 14  1  0  0  0  0
 12 17  1  0  0  0  0
 13 14  1  0  0  0  0
 13 18  1  0  0  0  0
 15 17  1  0  0  0  0
  1 20  1  0  0  0  0
  2 21  1  0  0  0  0
  3 22  1  0  0  0  0
  6 23  1  0  0  0  0
  6 24  1  0  0  0  0
  7 25  1  0  0  0  0
  7 26  1  0  0  0  0
  8 27  1  0  0  0  0
  8 28  1  0  0  0  0
  9 29  1  0  0  0  0
  9 30  1  0  0  0  0
 10 31  1  0  0  0  0
 10 32  1  0  0  0  0
 11 33  1  0  0  0  0
 12 34  1  0  0  0  0
 13 35  1  0  0  0  0
 15 36  1  0  0  0  0
 15 37  1  0  0  0  0
 17 38  1  0  0  0  0
M  END
> <Catalog ID>
Z1597994099

> <PlateID>
1041831-R-40

> <Well>
H03

> <MW (desalted)>
262.323

> <ClogP>
1.532

> <HBD>
1

> <TPSA>
34.150

> <RotBonds>
3

> <ROCS_ShapeQuery>
A71EV2A-x0451_0A_A71EV2A-x0310_0A_A71EV2A-x0416_0A_peptide

> <ROCS_TanimotoCombo>
0.514 

> <ROCS_ShapeTanimoto>
0.307 

> <ROCS_ColorTanimoto>
0.207 

> <ROCS_RefTversky>
0.275 

> <ROCS_RefColorTversky>
0.241 

> <ROCS_RefTverskyCombo>
0.516 

> <ROCS_FitTversky>
1.609 

> <ROCS_FitColorTversky>
0.592 

> <ROCS_FitTverskyCombo>
2.201 

> <ROCS_ColorScore>
-7.395

> <ROCS_Overlap>
1909.604

> <ROCS_Rank>
460                 

$$$$
untitled-dbase-1143_2600
  -OEChem-11132311063D

 54 57  0     1  0  0  0  0  0999 V2000
   14.5900   11.3579   25.7288 C   0  0  0  0  0  0  0  0  0  0  0  0
   12.6780   12.9127   28.5049 C   0  0  0  0  0  0  0  0  0  0  0  0
   14.1575   12.1174   24.6414 C   0  0  0  0  0  0  0  0  0  0  0  0
   13.1106   12.1531   29.5923 C   0  0  0  0  0  0  0  0  0  0  0  0
   12.7403   13.4104   26.1068 C   0  0  0  0  0  0  0  0  0  0  0  0
   14.5276   10.8600   28.1269 C   0  0  0  0  0  0  0  0  0  0  0  0
   13.1647   12.6561   27.2128 C   0  0  0  0  0  0  0  0  0  0  0  0
   14.1033   11.6144   27.0210 C   0  0  0  0  0  0  0  0  0  0  0  0
   13.2344   13.1417   24.8300 C   0  0  0  0  0  0  0  0  0  0  0  0
   14.0336   11.1288   29.4037 C   0  0  0  0  0  0  0  0  0  0  0  0
    7.7106   10.7239   24.8160 C   0  0  0  0  0  0  0  0  0  0  0  0
    8.9803   11.4680   23.2027 C   0  0  0  0  0  0  0  0  0  0  0  0
   11.2610   13.8092   23.4224 C   0  0  0  0  0  0  0  0  0  0  0  0
    6.7222   10.6455   25.9286 C   0  0  0  0  0  0  0  0  0  0  0  0
    5.5141   11.5558   25.7394 C   0  0  0  0  0  0  0  0  0  0  0  0
    5.7778   13.0165   26.1111 C   0  0  0  0  0  0  0  0  0  0  0  0
    7.1232   13.5879   25.6604 C   0  0  0  0  0  0  0  0  0  0  0  0
    7.5116   13.1956   24.2397 C   0  0  0  0  0  0  0  0  0  0  0  0
   13.1508   15.4390   23.8125 C   0  0  0  0  0  0  0  0  0  0  0  0
   15.4017    9.3541   30.2003 C   0  0  0  0  0  0  0  0  0  0  0  0
    9.6100   12.3793   22.2269 C   0  0  0  0  0  0  0  0  0  0  0  0
   12.7653   13.9671   23.6457 C   0  0  1  0  0  0  0  0  0  0  0  0
    8.4300    9.7169   24.3555 N   0  0  0  0  0  0  0  0  0  0  0  0
    9.2291   10.1869   23.3374 N   0  0  0  0  0  0  0  0  0  0  0  0
    8.0382   11.8528   24.1104 N   0  0  0  0  0  0  0  0  0  0  0  0
   10.9637   12.7433   22.5865 N   0  0  0  0  0  0  0  0  0  0  0  0
   10.4301   14.5508   23.9426 O   0  0  0  0  0  0  0  0  0  0  0  0
   14.4548   10.3879   30.4651 O   0  0  0  0  0  0  0  0  0  0  0  0
   15.3120   10.5619   25.5580 H   0  0  0  0  0  0  0  0  0  0  0  0
   11.9562   13.7087   28.6749 H   0  0  0  0  0  0  0  0  0  0  0  0
   14.5471   11.9013   23.6501 H   0  0  0  0  0  0  0  0  0  0  0  0
   12.7225   12.3666   30.5845 H   0  0  0  0  0  0  0  0  0  0  0  0
   12.0188   14.2150   26.2400 H   0  0  0  0  0  0  0  0  0  0  0  0
   15.2491   10.0556   27.9960 H   0  0  0  0  0  0  0  0  0  0  0  0
    6.4039    9.6012   26.0689 H   0  0  0  0  0  0  0  0  0  0  0  0
    7.2357   10.9333   26.8593 H   0  0  0  0  0  0  0  0  0  0  0  0
    5.2346   11.5309   24.6792 H   0  0  0  0  0  0  0  0  0  0  0  0
    4.6513   11.1786   26.3012 H   0  0  0  0  0  0  0  0  0  0  0  0
    4.9612   13.6486   25.7284 H   0  0  0  0  0  0  0  0  0  0  0  0
    5.7291   13.0980   27.2083 H   0  0  0  0  0  0  0  0  0  0  0  0
    7.0492   14.6814   25.7028 H   0  0  0  0  0  0  0  0  0  0  0  0
    7.9079   13.2951   26.3683 H   0  0  0  0  0  0  0  0  0  0  0  0
    6.6542   13.2739   23.5521 H   0  0  0  0  0  0  0  0  0  0  0  0
    8.2719   13.8995   23.8699 H   0  0  0  0  0  0  0  0  0  0  0  0
   12.6977   15.8871   24.7040 H   0  0  0  0  0  0  0  0  0  0  0  0
   14.2372   15.5524   23.8978 H   0  0  0  0  0  0  0  0  0  0  0  0
   12.8163   16.0242   22.9486 H   0  0  0  0  0  0  0  0  0  0  0  0
   15.6525    8.8413   31.1322 H   0  0  0  0  0  0  0  0  0  0  0  0
   16.3015    9.7878   29.7570 H   0  0  0  0  0  0  0  0  0  0  0  0
   14.9614    8.6394   29.5010 H   0  0  0  0  0  0  0  0  0  0  0  0
    9.6589   11.9313   21.2179 H   0  0  0  0  0  0  0  0  0  0  0  0
    9.0495   13.3244   22.1121 H   0  0  0  0  0  0  0  0  0  0  0  0
   13.2626   13.6083   22.7338 H   0  0  0  0  0  0  0  0  0  0  0  0
   11.7295   12.1942   22.2102 H   0  0  0  0  0  0  0  0  0  0  0  0
  1  3  1  0  0  0  0
  1  8  2  0  0  0  0
  2  4  2  0  0  0  0
  2  7  1  0  0  0  0
  3  9  2  0  0  0  0
  4 10  1  0  0  0  0
  5  7  2  0  0  0  0
  5  9  1  0  0  0  0
  6  8  1  0  0  0  0
  6 10  2  0  0  0  0
  7  8  1  0  0  0  0
  9 22  1  0  0  0  0
 10 28  1  0  0  0  0
 11 14  1  0  0  0  0
 11 23  2  0  0  0  0
 11 25  1  0  0  0  0
 12 21  1  0  0  0  0
 12 24  2  0  0  0  0
 12 25  1  0  0  0  0
 13 22  1  0  0  0  0
 13 26  1  0  0  0  0
 13 27  2  0  0  0  0
 14 15  1  0  0  0  0
 15 16  1  0  0  0  0
 16 17  1  0  0  0  0
 17 18  1  0  0  0  0
 18 25  1  0  0  0  0
 19 22  1  0  0  0  0
 20 28  1  0  0  0  0
 21 26  1  0  0  0  0
 23 24  1  0  0  0  0
  1 29  1  0  0  0  0
  2 30  1  0  0  0  0
  3 31  1  0  0  0  0
  4 32  1  0  0  0  0
  5 33  1  0  0  0  0
  6 34  1  0  0  0  0
 14 35  1  0  0  0  0
 14 36  1  0  0  0  0
 15 37  1  0  0  0  0
 15 38  1  0  0  0  0
 16 39  1  0  0  0  0
 16 40  1  0  0  0  0
 17 41  1  0  0  0  0
 17 42  1  0  0  0  0
 18 43  1  0  0  0  0
 18 44  1  0  0  0  0
 19 45  1  0  0  0  0
 19 46  1  0  0  0  0
 19 47  1  0  0  0  0
 20 48  1  0  0  0  0
 20 49  1  0  0  0  0
 20 50  1  0  0  0  0
 21 51  1  0  0  0  0
 21 52  1  0  0  0  0
 22 53  1  0  0  0  0
 26 54  1  0  0  0  0
M  END
> <Catalog ID>
Z760032110

> <PlateID>
1041831-R-15

> <Well>
C04

> <MW (desalted)>
378.467

> <ClogP>
2.299

> <HBD>
1

> <TPSA>
69.040

> <RotBonds>
5

> <ROCS_ShapeQuery>
A71EV2A-x0451_0A_A71EV2A-x0310_0A_A71EV2A-x0416_0A_peptide

> <ROCS_TanimotoCombo>
0.514 

> <ROCS_ShapeTanimoto>
0.341 

> <ROCS_ColorTanimoto>
0.173 

> <ROCS_RefTversky>
0.312 

> <ROCS_RefColorTversky>
0.202 

> <ROCS_RefTverskyCombo>
0.514 

> <ROCS_FitTversky>
1.379 

> <ROCS_FitColorTversky>
0.544 

> <ROCS_FitTverskyCombo>
1.923 

> <ROCS_ColorScore>
-6.190

> <ROCS_Overlap>
2169.953

> <ROCS_Rank>
461                 

$$$$
untitled-dbase-1726_15049
  -OEChem-11132311063D

 41 44  0     0  0  0  0  0  0999 V2000
    8.4891    9.4152   23.7337 C   0  0  0  0  0  0  0  0  0  0  0  0
    7.4926    9.9364   24.5588 C   0  0  0  0  0  0  0  0  0  0  0  0
    9.4418   10.2635   23.1693 C   0  0  0  0  0  0  0  0  0  0  0  0
   16.1136   11.3290   25.3349 C   0  0  0  0  0  0  0  0  0  0  0  0
   16.6500   11.3644   26.6442 C   0  0  0  0  0  0  0  0  0  0  0  0
    8.4012   12.1544   24.2549 C   0  0  0  0  0  0  0  0  0  0  0  0
    5.3566   11.3321   26.3759 C   0  0  0  0  0  0  0  0  0  0  0  0
   14.2700   13.6741   21.7157 C   0  0  0  0  0  0  0  0  0  0  0  0
    5.3835   13.4097   26.7014 C   0  0  0  0  0  0  0  0  0  0  0  0
    7.4485   11.3060   24.8194 C   0  0  0  0  0  0  0  0  0  0  0  0
    9.3978   11.6331   23.4299 C   0  0  0  0  0  0  0  0  0  0  0  0
   15.5540   12.5666   25.1178 C   0  0  0  0  0  0  0  0  0  0  0  0
    6.4186   11.8451   25.6733 C   0  0  0  0  0  0  0  0  0  0  0  0
   13.2857   13.7952   22.6741 C   0  0  0  0  0  0  0  0  0  0  0  0
   16.3802   12.6213   27.1337 C   0  0  0  0  0  0  0  0  0  0  0  0
   14.8926   13.0178   23.9482 C   0  0  0  0  0  0  0  0  0  0  0  0
   10.8582   13.6848   23.3800 C   0  0  0  0  0  0  0  0  0  0  0  0
   16.6683   13.2860   28.4122 C   0  0  0  0  0  0  0  0  0  0  0  0
   11.8843   14.2942   22.4377 C   0  0  0  0  0  0  0  0  0  0  0  0
    4.6973   12.3394   27.0328 N   0  0  0  0  0  0  0  0  0  0  0  0
   13.6407   13.4189   23.9548 N   0  0  0  0  0  0  0  0  0  0  0  0
   10.3498   12.4811   22.8636 N   0  0  0  0  0  0  0  0  0  0  0  0
   10.5469   14.2149   24.4417 O   0  0  0  0  0  0  0  0  0  0  0  0
    6.4450   13.1917   25.8776 O   0  0  0  0  0  0  0  0  0  0  0  0
   15.7124   13.3603   26.2093 O   0  0  0  0  0  0  0  0  0  0  0  0
   15.7031   13.0672   22.4364 S   0  0  0  0  0  0  0  0  0  0  0  0
    8.5232    8.3486   23.5308 H   0  0  0  0  0  0  0  0  0  0  0  0
    6.7571    9.2621   24.9916 H   0  0  0  0  0  0  0  0  0  0  0  0
   10.2131    9.8459   22.5270 H   0  0  0  0  0  0  0  0  0  0  0  0
   16.1393   10.4998   24.6415 H   0  0  0  0  0  0  0  0  0  0  0  0
   17.1695   10.5717   27.1631 H   0  0  0  0  0  0  0  0  0  0  0  0
    8.3714   13.2237   24.4559 H   0  0  0  0  0  0  0  0  0  0  0  0
    5.0320   10.3042   26.4457 H   0  0  0  0  0  0  0  0  0  0  0  0
   14.2216   13.9055   20.6612 H   0  0  0  0  0  0  0  0  0  0  0  0
    5.2085   14.4320   27.0011 H   0  0  0  0  0  0  0  0  0  0  0  0
   17.6416   13.8077   28.3858 H   0  0  0  0  0  0  0  0  0  0  0  0
   15.8999   14.0352   28.6789 H   0  0  0  0  0  0  0  0  0  0  0  0
   16.6985   12.5745   29.2584 H   0  0  0  0  0  0  0  0  0  0  0  0
   11.8585   15.3858   22.5483 H   0  0  0  0  0  0  0  0  0  0  0  0
   11.5869   14.0771   21.4039 H   0  0  0  0  0  0  0  0  0  0  0  0
   10.7267   12.1886   21.9546 H   0  0  0  0  0  0  0  0  0  0  0  0
  1  2  2  0  0  0  0
  1  3  1  0  0  0  0
  2 10  1  0  0  0  0
  3 11  2  0  0  0  0
  4  5  1  0  0  0  0
  4 12  2  0  0  0  0
  5 15  2  0  0  0  0
  6 10  2  0  0  0  0
  6 11  1  0  0  0  0
  7 13  2  0  0  0  0
  7 20  1  0  0  0  0
  8 14  2  0  0  0  0
  8 26  1  0  0  0  0
  9 20  2  0  0  0  0
  9 24  1  0  0  0  0
 10 13  1  0  0  0  0
 11 22  1  0  0  0  0
 12 16  1  0  0  0  0
 12 25  1  0  0  0  0
 13 24  1  0  0  0  0
 14 19  1  0  0  0  0
 14 21  1  0  0  0  0
 15 18  1  0  0  0  0
 15 25  1  0  0  0  0
 16 21  2  0  0  0  0
 16 26  1  0  0  0  0
 17 19  1  0  0  0  0
 17 22  1  0  0  0  0
 17 23  2  0  0  0  0
  1 27  1  0  0  0  0
  2 28  1  0  0  0  0
  3 29  1  0  0  0  0
  4 30  1  0  0  0  0
  5 31  1  0  0  0  0
  6 32  1  0  0  0  0
  7 33  1  0  0  0  0
  8 34  1  0  0  0  0
  9 35  1  0  0  0  0
 18 36  1  0  0  0  0
 18 37  1  0  0  0  0
 18 38  1  0  0  0  0
 19 39  1  0  0  0  0
 19 40  1  0  0  0  0
 22 41  1  0  0  0  0
M  END
> <Catalog ID>
Z605670518

> <PlateID>
1041831-R-22

> <Well>
E07

> <MW (desalted)>
365.406

> <ClogP>
2.969

> <HBD>
1

> <TPSA>
81.160

> <RotBonds>
5

> <ROCS_ShapeQuery>
A71EV2A-x0451_0A_A71EV2A-x0310_0A_A71EV2A-x0416_0A_peptide

> <ROCS_TanimotoCombo>
0.514 

> <ROCS_ShapeTanimoto>
0.329 

> <ROCS_ColorTanimoto>
0.185 

> <ROCS_RefTversky>
0.301 

> <ROCS_RefColorTversky>
0.208 

> <ROCS_RefTverskyCombo>
0.509 

> <ROCS_FitTversky>
1.393 

> <ROCS_FitColorTversky>
0.627 

> <ROCS_FitTverskyCombo>
2.021 

> <ROCS_ColorScore>
-6.359

> <ROCS_Overlap>
2091.702

> <ROCS_Rank>
462                 

$$$$
untitled-dbase-2407_906
  -OEChem-11132311063D

 50 53  0     1  0  0  0  0  0999 V2000
   13.6898   12.7161   24.5028 C   0  0  0  0  0  0  0  0  0  0  0  0
   14.2113   11.5097   26.1425 C   0  0  0  0  0  0  0  0  0  0  0  0
   11.2039   13.7348   23.1292 C   0  0  0  0  0  0  0  0  0  0  0  0
    6.1843   10.7727   26.5001 C   0  0  0  0  0  0  0  0  0  0  0  0
    6.6114    9.7228   25.4853 C   0  0  0  0  0  0  0  0  0  0  0  0
    7.3012   11.8032   26.4323 C   0  0  0  0  0  0  0  0  0  0  0  0
    9.5652   10.4756   24.7239 C   0  0  0  0  0  0  0  0  0  0  0  0
    8.8660   10.8171   22.4843 C   0  0  0  0  0  0  0  0  0  0  0  0
    7.1944   10.5366   24.3289 C   0  0  1  0  0  0  0  0  0  0  0  0
    7.6357   11.8886   24.9425 C   0  0  2  0  0  0  0  0  0  0  0  0
    8.5061    9.9849   23.7326 C   0  0  2  0  0  0  0  0  0  0  0  0
    9.1420   11.9447   24.6023 C   0  0  2  0  0  0  0  0  0  0  0  0
    9.2671   12.1837   23.0791 C   0  0  1  0  0  0  0  0  0  0  0  0
   14.3471   12.0519   28.6004 C   0  0  0  0  0  0  0  0  0  0  0  0
   16.4004   11.2645   27.3679 C   0  0  0  0  0  0  0  0  0  0  0  0
   13.6675   13.9662   23.6619 C   0  0  0  0  0  0  0  0  0  0  0  0
   12.6054   13.8915   22.5667 C   0  0  0  0  0  0  0  0  0  0  0  0
   14.8540   11.1834   27.4216 C   0  0  0  0  0  0  0  0  0  0  0  0
   13.1172   11.5542   24.2908 N   0  0  0  0  0  0  0  0  0  0  0  0
   13.4602   10.7607   25.3695 N   0  0  0  0  0  0  0  0  0  0  0  0
   10.6003   12.5634   22.6887 N   0  0  0  0  0  0  0  0  0  0  0  0
   10.6831   14.5553   23.8800 O   0  0  0  0  0  0  0  0  0  0  0  0
   14.4041   12.7679   25.6603 O   0  0  0  0  0  0  0  0  0  0  0  0
    5.2317   11.2250   26.2000 H   0  0  0  0  0  0  0  0  0  0  0  0
    6.0645   10.3554   27.5039 H   0  0  0  0  0  0  0  0  0  0  0  0
    7.3558    9.0496   25.9254 H   0  0  0  0  0  0  0  0  0  0  0  0
    5.7672    9.1064   25.1605 H   0  0  0  0  0  0  0  0  0  0  0  0
    6.9837   12.7718   26.8313 H   0  0  0  0  0  0  0  0  0  0  0  0
    8.1607   11.4727   27.0260 H   0  0  0  0  0  0  0  0  0  0  0  0
    9.4510   10.0645   25.7304 H   0  0  0  0  0  0  0  0  0  0  0  0
   10.5893   10.2876   24.3841 H   0  0  0  0  0  0  0  0  0  0  0  0
    9.7001   10.3507   21.9461 H   0  0  0  0  0  0  0  0  0  0  0  0
    8.0265   10.9080   21.7871 H   0  0  0  0  0  0  0  0  0  0  0  0
    6.4303   10.6871   23.5569 H   0  0  0  0  0  0  0  0  0  0  0  0
    7.0855   12.7218   24.4887 H   0  0  0  0  0  0  0  0  0  0  0  0
    8.4964    8.9083   23.5502 H   0  0  0  0  0  0  0  0  0  0  0  0
    9.7039   12.6518   25.2172 H   0  0  0  0  0  0  0  0  0  0  0  0
    8.6011   12.9816   22.7338 H   0  0  0  0  0  0  0  0  0  0  0  0
   14.5166   13.1173   28.4102 H   0  0  0  0  0  0  0  0  0  0  0  0
   14.8428   11.8000   29.5442 H   0  0  0  0  0  0  0  0  0  0  0  0
   13.2700   11.9046   28.7376 H   0  0  0  0  0  0  0  0  0  0  0  0
   16.7124   12.2738   27.0768 H   0  0  0  0  0  0  0  0  0  0  0  0
   16.8276   10.5603   26.6457 H   0  0  0  0  0  0  0  0  0  0  0  0
   16.8437   11.0469   28.3458 H   0  0  0  0  0  0  0  0  0  0  0  0
   13.4889   14.8372   24.3058 H   0  0  0  0  0  0  0  0  0  0  0  0
   14.6592   14.1274   23.2193 H   0  0  0  0  0  0  0  0  0  0  0  0
   12.8041   13.0412   21.9024 H   0  0  0  0  0  0  0  0  0  0  0  0
   12.6280   14.8010   21.9532 H   0  0  0  0  0  0  0  0  0  0  0  0
   14.6321   10.1332   27.7225 H   0  0  0  0  0  0  0  0  0  0  0  0
   11.1000   11.9630   22.0364 H   0  0  0  0  0  0  0  0  0  0  0  0
  1 16  1  0  0  0  0
  1 19  2  0  0  0  0
  1 23  1  0  0  0  0
  2 18  1  0  0  0  0
  2 20  2  0  0  0  0
  2 23  1  0  0  0  0
  3 17  1  0  0  0  0
  3 21  1  0  0  0  0
  3 22  2  0  0  0  0
  4  5  1  0  0  0  0
  4  6  1  0  0  0  0
  5  9  1  0  0  0  0
  6 10  1  0  0  0  0
  7 11  1  0  0  0  0
  7 12  1  0  0  0  0
  8 11  1  0  0  0  0
  8 13  1  0  0  0  0
  9 10  1  0  0  0  0
  9 11  1  0  0  0  0
 10 12  1  0  0  0  0
 12 13  1  0  0  0  0
 13 21  1  0  0  0  0
 14 18  1  0  0  0  0
 15 18  1  0  0  0  0
 16 17  1  0  0  0  0
 19 20  1  0  0  0  0
  4 24  1  0  0  0  0
  4 25  1  0  0  0  0
  5 26  1  0  0  0  0
  5 27  1  0  0  0  0
  6 28  1  0  0  0  0
  6 29  1  0  0  0  0
  7 30  1  0  0  0  0
  7 31  1  0  0  0  0
  8 32  1  0  0  0  0
  8 33  1  0  0  0  0
  9 34  1  0  0  0  0
 10 35  1  0  0  0  0
 11 36  1  0  0  0  0
 12 37  1  0  0  0  0
 13 38  1  0  0  0  0
 14 39  1  0  0  0  0
 14 40  1  0  0  0  0
 14 41  1  0  0  0  0
 15 42  1  0  0  0  0
 15 43  1  0  0  0  0
 15 44  1  0  0  0  0
 16 45  1  0  0  0  0
 16 46  1  0  0  0  0
 17 47  1  0  0  0  0
 17 48  1  0  0  0  0
 18 49  1  0  0  0  0
 21 50  1  0  0  0  0
M  END
> <Catalog ID>
Z1322667274

> <PlateID>
1041831-R-31

> <Well>
A08

> <MW (desalted)>
317.426

> <ClogP>
1.617

> <HBD>
1

> <TPSA>
68.020

> <RotBonds>
5

> <ROCS_ShapeQuery>
A71EV2A-x0451_0A_A71EV2A-x0310_0A_A71EV2A-x0416_0A_peptide

> <ROCS_TanimotoCombo>
0.514 

> <ROCS_ShapeTanimoto>
0.320 

> <ROCS_ColorTanimoto>
0.194 

> <ROCS_RefTversky>
0.289 

> <ROCS_RefColorTversky>
0.239 

> <ROCS_RefTverskyCombo>
0.529 

> <ROCS_FitTversky>
1.492 

> <ROCS_FitColorTversky>
0.505 

> <ROCS_FitTverskyCombo>
1.997 

> <ROCS_ColorScore>
-7.377

> <ROCS_Overlap>
2009.542

> <ROCS_Rank>
463                 

$$$$
untitled-dbase-1398_384
  -OEChem-11132311063D

 47 50  0     0  0  0  0  0  0999 V2000
   13.0693   15.5339   21.1188 C   0  0  0  0  0  0  0  0  0  0  0  0
   14.2455   15.6035   20.3717 C   0  0  0  0  0  0  0  0  0  0  0  0
    9.8373   10.3457   23.2095 C   0  0  0  0  0  0  0  0  0  0  0  0
   11.7630   15.7236   19.0931 C   0  0  0  0  0  0  0  0  0  0  0  0
    9.0101   12.2678   24.3953 C   0  0  0  0  0  0  0  0  0  0  0  0
    8.6524    9.7041   23.5320 C   0  0  0  0  0  0  0  0  0  0  0  0
    5.5262   13.6216   26.2831 C   0  0  0  0  0  0  0  0  0  0  0  0
    6.5880   13.4886   25.4198 C   0  0  0  0  0  0  0  0  0  0  0  0
   11.8301   15.5887   20.4801 C   0  0  0  0  0  0  0  0  0  0  0  0
   10.0118   11.6519   23.6532 C   0  0  0  0  0  0  0  0  0  0  0  0
   14.1794   15.7251   18.9834 C   0  0  0  0  0  0  0  0  0  0  0  0
   12.9386   15.8070   18.3465 C   0  0  0  0  0  0  0  0  0  0  0  0
    7.8622   11.5401   24.6645 C   0  0  0  0  0  0  0  0  0  0  0  0
    5.9677   11.5399   26.2410 C   0  0  0  0  0  0  0  0  0  0  0  0
   10.7105   14.6838   22.5550 C   0  0  0  0  0  0  0  0  0  0  0  0
   15.1887   15.5448   16.9014 C   0  0  0  0  0  0  0  0  0  0  0  0
   14.0328   16.3766   16.3808 C   0  0  0  0  0  0  0  0  0  0  0  0
    5.9623   10.0794   26.4735 C   0  0  0  0  0  0  0  0  0  0  0  0
   10.5748   15.5071   21.2817 C   0  0  0  0  0  0  0  0  0  0  0  0
   11.2771   12.3937   23.3324 C   0  0  0  0  0  0  0  0  0  0  0  0
    7.6568   10.2696   24.2506 N   0  0  0  0  0  0  0  0  0  0  0  0
    5.1450   12.4050   26.7911 N   0  0  0  0  0  0  0  0  0  0  0  0
    6.8599   12.1495   25.4034 N   0  0  0  0  0  0  0  0  0  0  0  0
   11.0799   13.3728   22.2893 N   0  0  0  0  0  0  0  0  0  0  0  0
   10.5149   15.1472   23.6756 O   0  0  0  0  0  0  0  0  0  0  0  0
   15.3681   15.7681   18.3027 O   0  0  0  0  0  0  0  0  0  0  0  0
   12.8082   15.9599   16.9908 O   0  0  0  0  0  0  0  0  0  0  0  0
   13.1282   15.4329   22.1994 H   0  0  0  0  0  0  0  0  0  0  0  0
   15.2061   15.5521   20.8769 H   0  0  0  0  0  0  0  0  0  0  0  0
   10.5996    9.8384   22.6282 H   0  0  0  0  0  0  0  0  0  0  0  0
   10.7973   15.7740   18.5958 H   0  0  0  0  0  0  0  0  0  0  0  0
    9.1314   13.2878   24.7483 H   0  0  0  0  0  0  0  0  0  0  0  0
    8.4673    8.6847   23.2093 H   0  0  0  0  0  0  0  0  0  0  0  0
    5.0168   14.5317   26.5647 H   0  0  0  0  0  0  0  0  0  0  0  0
    7.1489   14.2091   24.8399 H   0  0  0  0  0  0  0  0  0  0  0  0
   15.0226   14.4730   16.7356 H   0  0  0  0  0  0  0  0  0  0  0  0
   16.1182   15.8274   16.3974 H   0  0  0  0  0  0  0  0  0  0  0  0
   14.1798   17.4448   16.5834 H   0  0  0  0  0  0  0  0  0  0  0  0
   13.9272   16.2462   15.2993 H   0  0  0  0  0  0  0  0  0  0  0  0
    5.3075    9.5674   25.7511 H   0  0  0  0  0  0  0  0  0  0  0  0
    6.9712    9.6448   26.3816 H   0  0  0  0  0  0  0  0  0  0  0  0
    5.6101    9.8260   27.4870 H   0  0  0  0  0  0  0  0  0  0  0  0
   10.2339   16.5174   21.5609 H   0  0  0  0  0  0  0  0  0  0  0  0
    9.7615   15.0703   20.6795 H   0  0  0  0  0  0  0  0  0  0  0  0
   11.6536   12.9162   24.2186 H   0  0  0  0  0  0  0  0  0  0  0  0
   12.0627   11.7061   23.0020 H   0  0  0  0  0  0  0  0  0  0  0  0
   11.2170   13.0908   21.3232 H   0  0  0  0  0  0  0  0  0  0  0  0
  1  2  1  0  0  0  0
  1  9  2  0  0  0  0
  2 11  2  0  0  0  0
  3  6  1  0  0  0  0
  3 10  2  0  0  0  0
  4  9  1  0  0  0  0
  4 12  2  0  0  0  0
  5 10  1  0  0  0  0
  5 13  2  0  0  0  0
  6 21  2  0  0  0  0
  7  8  2  0  0  0  0
  7 22  1  0  0  0  0
  8 23  1  0  0  0  0
  9 19  1  0  0  0  0
 10 20  1  0  0  0  0
 11 12  1  0  0  0  0
 11 26  1  0  0  0  0
 12 27  1  0  0  0  0
 13 21  1  0  0  0  0
 13 23  1  0  0  0  0
 14 18  1  0  0  0  0
 14 22  2  0  0  0  0
 14 23  1  0  0  0  0
 15 19  1  0  0  0  0
 15 24  1  0  0  0  0
 15 25  2  0  0  0  0
 16 17  1  0  0  0  0
 16 26  1  0  0  0  0
 17 27  1  0  0  0  0
 20 24  1  0  0  0  0
  1 28  1  0  0  0  0
  2 29  1  0  0  0  0
  3 30  1  0  0  0  0
  4 31  1  0  0  0  0
  5 32  1  0  0  0  0
  6 33  1  0  0  0  0
  7 34  1  0  0  0  0
  8 35  1  0  0  0  0
 16 36  1  0  0  0  0
 16 37  1  0  0  0  0
 17 38  1  0  0  0  0
 17 39  1  0  0  0  0
 18 40  1  0  0  0  0
 18 41  1  0  0  0  0
 18 42  1  0  0  0  0
 19 43  1  0  0  0  0
 19 44  1  0  0  0  0
 20 45  1  0  0  0  0
 20 46  1  0  0  0  0
 24 47  1  0  0  0  0
M  END
> <Catalog ID>
Z423065654

> <PlateID>
1041831-R-18

> <Well>
D09

> <MW (desalted)>
364.398

> <ClogP>
1.472

> <HBD>
1

> <TPSA>
78.270

> <RotBonds>
5

> <ROCS_ShapeQuery>
A71EV2A-x0451_0A_A71EV2A-x0310_0A_A71EV2A-x0416_0A_peptide

> <ROCS_TanimotoCombo>
0.514 

> <ROCS_ShapeTanimoto>
0.358 

> <ROCS_ColorTanimoto>
0.155 

> <ROCS_RefTversky>
0.323 

> <ROCS_RefColorTversky>
0.187 

> <ROCS_RefTverskyCombo>
0.510 

> <ROCS_FitTversky>
1.444 

> <ROCS_FitColorTversky>
0.477 

> <ROCS_FitTverskyCombo>
1.921 

> <ROCS_ColorScore>
-5.740

> <ROCS_Overlap>
2245.919

> <ROCS_Rank>
464                 

$$$$
untitled-dbase-2591_5920
  -OEChem-11132311063D

 50 52  0     0  0  0  0  0  0999 V2000
   14.7937   10.6611   23.7609 C   0  0  0  0  0  0  0  0  0  0  0  0
   12.5596   15.3726   18.2969 C   0  0  0  0  0  0  0  0  0  0  0  0
   14.9343   11.2929   24.9915 C   0  0  0  0  0  0  0  0  0  0  0  0
   13.7521   16.0818   18.1538 C   0  0  0  0  0  0  0  0  0  0  0  0
   11.9887   15.2156   19.5599 C   0  0  0  0  0  0  0  0  0  0  0  0
   14.1249   11.3066   22.7267 C   0  0  0  0  0  0  0  0  0  0  0  0
   13.8031   16.4769   20.5368 C   0  0  0  0  0  0  0  0  0  0  0  0
   14.3925   12.5599   25.1357 C   0  0  0  0  0  0  0  0  0  0  0  0
   14.3739   16.6339   19.2738 C   0  0  0  0  0  0  0  0  0  0  0  0
   12.6105   15.7677   20.6798 C   0  0  0  0  0  0  0  0  0  0  0  0
   13.6192   12.5729   22.9724 C   0  0  0  0  0  0  0  0  0  0  0  0
    7.8689    9.9562   24.1497 C   0  0  0  0  0  0  0  0  0  0  0  0
    9.3743   11.6740   23.5581 C   0  0  0  0  0  0  0  0  0  0  0  0
   10.8060   13.7267   23.2214 C   0  0  0  0  0  0  0  0  0  0  0  0
   15.6483   17.3933   19.1198 C   0  0  0  0  0  0  0  0  0  0  0  0
    5.9588    8.7985   25.3180 C   0  0  0  0  0  0  0  0  0  0  0  0
    7.9733    7.4747   24.5803 C   0  0  0  0  0  0  0  0  0  0  0  0
   11.9963   15.5981   22.0393 C   0  0  0  0  0  0  0  0  0  0  0  0
   12.8912   13.2994   21.8785 C   0  0  0  0  0  0  0  0  0  0  0  0
    7.0918    8.7066   24.2699 C   0  0  0  0  0  0  0  0  0  0  0  0
   13.7362   13.2186   24.1543 N   0  0  0  0  0  0  0  0  0  0  0  0
    7.6807   11.0400   24.8722 N   0  0  0  0  0  0  0  0  0  0  0  0
    8.5630   12.0479   24.5245 N   0  0  0  0  0  0  0  0  0  0  0  0
   10.4106   12.4167   22.9395 N   0  0  0  0  0  0  0  0  0  0  0  0
   11.8631   14.1940   22.4063 N   0  0  0  0  0  0  0  0  0  0  0  0
   10.2843   14.4398   24.0813 O   0  0  0  0  0  0  0  0  0  0  0  0
    9.1312   10.0726   22.9943 S   0  0  0  0  0  0  0  0  0  0  0  0
   15.2045    9.6676   23.6082 H   0  0  0  0  0  0  0  0  0  0  0  0
   12.0754   14.9428   17.4247 H   0  0  0  0  0  0  0  0  0  0  0  0
   15.4517   10.8088   25.8118 H   0  0  0  0  0  0  0  0  0  0  0  0
   14.1893   16.1994   17.1657 H   0  0  0  0  0  0  0  0  0  0  0  0
   11.0597   14.6609   19.6621 H   0  0  0  0  0  0  0  0  0  0  0  0
   14.0084   10.8246   21.7620 H   0  0  0  0  0  0  0  0  0  0  0  0
   14.2868   16.9079   21.4102 H   0  0  0  0  0  0  0  0  0  0  0  0
   14.4752   13.0955   26.0757 H   0  0  0  0  0  0  0  0  0  0  0  0
   15.4409   18.4566   18.9483 H   0  0  0  0  0  0  0  0  0  0  0  0
   16.2775   17.3014   20.0145 H   0  0  0  0  0  0  0  0  0  0  0  0
   16.2389   17.0134   18.2759 H   0  0  0  0  0  0  0  0  0  0  0  0
    6.3533    9.0318   26.3130 H   0  0  0  0  0  0  0  0  0  0  0  0
    5.3951    7.8625   25.3952 H   0  0  0  0  0  0  0  0  0  0  0  0
    5.2548    9.5922   25.0437 H   0  0  0  0  0  0  0  0  0  0  0  0
    8.5151    7.6260   25.5207 H   0  0  0  0  0  0  0  0  0  0  0  0
    8.7129    7.2914   23.7932 H   0  0  0  0  0  0  0  0  0  0  0  0
    7.3686    6.5674   24.6855 H   0  0  0  0  0  0  0  0  0  0  0  0
   12.6080   16.0899   22.8035 H   0  0  0  0  0  0  0  0  0  0  0  0
   10.9999   16.0506   22.0796 H   0  0  0  0  0  0  0  0  0  0  0  0
   13.5880   13.9001   21.2838 H   0  0  0  0  0  0  0  0  0  0  0  0
   12.4040   12.5953   21.1958 H   0  0  0  0  0  0  0  0  0  0  0  0
    6.5842    8.4689   23.3097 H   0  0  0  0  0  0  0  0  0  0  0  0
   10.9259   11.9412   22.2056 H   0  0  0  0  0  0  0  0  0  0  0  0
  1  3  2  0  0  0  0
  1  6  1  0  0  0  0
  2  4  2  0  0  0  0
  2  5  1  0  0  0  0
  3  8  1  0  0  0  0
  4  9  1  0  0  0  0
  5 10  2  0  0  0  0
  6 11  2  0  0  0  0
  7  9  2  0  0  0  0
  7 10  1  0  0  0  0
  8 21  2  0  0  0  0
  9 15  1  0  0  0  0
 10 18  1  0  0  0  0
 11 19  1  0  0  0  0
 11 21  1  0  0  0  0
 12 20  1  0  0  0  0
 12 22  2  0  0  0  0
 12 27  1  0  0  0  0
 13 23  2  0  0  0  0
 13 24  1  0  0  0  0
 13 27  1  0  0  0  0
 14 24  1  0  0  0  0
 14 25  1  0  0  0  0
 14 26  2  0  0  0  0
 16 20  1  0  0  0  0
 17 20  1  0  0  0  0
 18 25  1  0  0  0  0
 19 25  1  0  0  0  0
 22 23  1  0  0  0  0
  1 28  1  0  0  0  0
  2 29  1  0  0  0  0
  3 30  1  0  0  0  0
  4 31  1  0  0  0  0
  5 32  1  0  0  0  0
  6 33  1  0  0  0  0
  7 34  1  0  0  0  0
  8 35  1  0  0  0  0
 15 36  1  0  0  0  0
 15 37  1  0  0  0  0
 15 38  1  0  0  0  0
 16 39  1  0  0  0  0
 16 40  1  0  0  0  0
 16 41  1  0  0  0  0
 17 42  1  0  0  0  0
 17 43  1  0  0  0  0
 17 44  1  0  0  0  0
 18 45  1  0  0  0  0
 18 46  1  0  0  0  0
 19 47  1  0  0  0  0
 19 48  1  0  0  0  0
 20 49  1  0  0  0  0
 24 50  1  0  0  0  0
M  END
> <Catalog ID>
Z1310764955

> <PlateID>
1041831-R-33

> <Well>
D02

> <MW (desalted)>
381.495

> <ClogP>
3.421

> <HBD>
1

> <TPSA>
71.010

> <RotBonds>
6

> <ROCS_ShapeQuery>
A71EV2A-x0451_0A_A71EV2A-x0310_0A_A71EV2A-x0416_0A_peptide

> <ROCS_TanimotoCombo>
0.513 

> <ROCS_ShapeTanimoto>
0.328 

> <ROCS_ColorTanimoto>
0.186 

> <ROCS_RefTversky>
0.300 

> <ROCS_RefColorTversky>
0.210 

> <ROCS_RefTverskyCombo>
0.510 

> <ROCS_FitTversky>
1.393 

> <ROCS_FitColorTversky>
0.617 

> <ROCS_FitTverskyCombo>
2.010 

> <ROCS_ColorScore>
-6.429

> <ROCS_Overlap>
2085.520

> <ROCS_Rank>
465                 

$$$$
untitled-dbase-1885_96
  -OEChem-11132311063D

 39 41  0     0  0  0  0  0  0999 V2000
    6.4144   11.4456   25.8606 C   0  0  0  0  0  0  0  0  0  0  0  0
    7.0321   12.6619   25.6599 C   0  0  0  0  0  0  0  0  0  0  0  0
    7.0133   10.3273   25.3028 C   0  0  0  0  0  0  0  0  0  0  0  0
    8.1969   10.4631   24.5711 C   0  0  0  0  0  0  0  0  0  0  0  0
    8.7635   11.7235   24.4099 C   0  0  0  0  0  0  0  0  0  0  0  0
    9.9274    9.3273   23.2905 C   0  0  0  0  0  0  0  0  0  0  0  0
   10.5636   13.1379   23.4900 C   0  0  0  0  0  0  0  0  0  0  0  0
   10.5854   10.6698   23.0804 C   0  0  0  0  0  0  0  0  0  0  0  0
   12.5036   14.3109   22.4636 C   0  0  0  0  0  0  0  0  0  0  0  0
   10.3731   13.7990   21.1186 C   0  0  0  0  0  0  0  0  0  0  0  0
   12.1234   15.7464   22.1122 C   0  0  0  0  0  0  0  0  0  0  0  0
   11.0973   14.6150   20.0550 C   0  0  0  0  0  0  0  0  0  0  0  0
   11.3381   13.3384   22.2214 C   0  0  0  0  0  0  0  0  0  0  0  0
   11.7171   15.8733   20.6493 C   0  0  0  0  0  0  0  0  0  0  0  0
    6.3533    9.0020   25.5130 C   0  0  0  0  0  0  0  0  0  0  0  0
    8.1766   12.8201   24.9568 N   0  0  0  0  0  0  0  0  0  0  0  0
    8.7736    9.3163   24.0233 N   0  0  0  0  0  0  0  0  0  0  0  0
    9.9777   11.8669   23.6599 N   0  0  0  0  0  0  0  0  0  0  0  0
   10.4229    8.3046   22.8143 O   0  0  0  0  0  0  0  0  0  0  0  0
   10.4903   14.0767   24.2867 O   0  0  0  0  0  0  0  0  0  0  0  0
   12.8026   16.2118   19.9043 F   0  0  0  0  0  0  0  0  0  0  0  0
   10.8433   16.9080   20.5332 F   0  0  0  0  0  0  0  0  0  0  0  0
    5.4965   11.3776   26.4337 H   0  0  0  0  0  0  0  0  0  0  0  0
    6.6136   13.5748   26.0702 H   0  0  0  0  0  0  0  0  0  0  0  0
   11.6041   10.5890   23.4766 H   0  0  0  0  0  0  0  0  0  0  0  0
   10.6526   10.8239   21.9971 H   0  0  0  0  0  0  0  0  0  0  0  0
   13.3363   14.0024   21.8323 H   0  0  0  0  0  0  0  0  0  0  0  0
   12.8348   14.2645   23.4987 H   0  0  0  0  0  0  0  0  0  0  0  0
    9.5613   14.3870   21.5409 H   0  0  0  0  0  0  0  0  0  0  0  0
    9.9406   12.9134   20.6547 H   0  0  0  0  0  0  0  0  0  0  0  0
   11.3013   16.0878   22.7495 H   0  0  0  0  0  0  0  0  0  0  0  0
   12.9720   16.4077   22.3128 H   0  0  0  0  0  0  0  0  0  0  0  0
   11.8852   14.0039   19.6029 H   0  0  0  0  0  0  0  0  0  0  0  0
   10.4132   14.8899   19.2456 H   0  0  0  0  0  0  0  0  0  0  0  0
   11.7318   12.3603   21.9609 H   0  0  0  0  0  0  0  0  0  0  0  0
    5.6395    8.8030   24.7063 H   0  0  0  0  0  0  0  0  0  0  0  0
    7.0923    8.1925   25.5357 H   0  0  0  0  0  0  0  0  0  0  0  0
    5.8186    8.9750   26.4698 H   0  0  0  0  0  0  0  0  0  0  0  0
    8.3190    8.4205   24.1720 H   0  0  0  0  0  0  0  0  0  0  0  0
  1  2  1  0  0  0  0
  1  3  2  0  0  0  0
  2 16  2  0  0  0  0
  3  4  1  0  0  0  0
  3 15  1  0  0  0  0
  4  5  2  0  0  0  0
  4 17  1  0  0  0  0
  5 16  1  0  0  0  0
  5 18  1  0  0  0  0
  6  8  1  0  0  0  0
  6 17  1  0  0  0  0
  6 19  2  0  0  0  0
  7 13  1  0  0  0  0
  7 18  1  0  0  0  0
  7 20  2  0  0  0  0
  8 18  1  0  0  0  0
  9 11  1  0  0  0  0
  9 13  1  0  0  0  0
 10 12  1  0  0  0  0
 10 13  1  0  0  0  0
 11 14  1  0  0  0  0
 12 14  1  0  0  0  0
 14 21  1  0  0  0  0
 14 22  1  0  0  0  0
  1 23  1  0  0  0  0
  2 24  1  0  0  0  0
  8 25  1  0  0  0  0
  8 26  1  0  0  0  0
  9 27  1  0  0  0  0
  9 28  1  0  0  0  0
 10 29  1  0  0  0  0
 10 30  1  0  0  0  0
 11 31  1  0  0  0  0
 11 32  1  0  0  0  0
 12 33  1  0  0  0  0
 12 34  1  0  0  0  0
 13 35  1  0  0  0  0
 15 36  1  0  0  0  0
 15 37  1  0  0  0  0
 15 38  1  0  0  0  0
 17 39  1  0  0  0  0
M  END
> <Catalog ID>
Z1602503369

> <PlateID>
1041831-R-24

> <Well>
E06

> <MW (desalted)>
309.311

> <ClogP>
1.676

> <HBD>
1

> <TPSA>
62.300

> <RotBonds>
1

> <ROCS_ShapeQuery>
A71EV2A-x0451_0A_A71EV2A-x0310_0A_A71EV2A-x0416_0A_peptide

> <ROCS_TanimotoCombo>
0.513 

> <ROCS_ShapeTanimoto>
0.377 

> <ROCS_ColorTanimoto>
0.136 

> <ROCS_RefTversky>
0.326 

> <ROCS_RefColorTversky>
0.152 

> <ROCS_RefTverskyCombo>
0.478 

> <ROCS_FitTversky>
1.712 

> <ROCS_FitColorTversky>
0.563 

> <ROCS_FitTverskyCombo>
2.276 

> <ROCS_ColorScore>
-4.644

> <ROCS_Overlap>
2264.716

> <ROCS_Rank>
466                 

$$$$
untitled-dbase-2748_5301
  -OEChem-11132311063D

 45 47  0     1  0  0  0  0  0999 V2000
   12.6171   14.5021   18.9300 C   0  0  0  0  0  0  0  0  0  0  0  0
   13.1039   15.7573   18.5652 C   0  0  0  0  0  0  0  0  0  0  0  0
   12.4478   14.1843   20.2776 C   0  0  0  0  0  0  0  0  0  0  0  0
   13.2523   16.3769   20.8957 C   0  0  0  0  0  0  0  0  0  0  0  0
   13.4215   16.6947   19.5481 C   0  0  0  0  0  0  0  0  0  0  0  0
   12.7655   15.1217   21.2605 C   0  0  0  0  0  0  0  0  0  0  0  0
   10.2285   10.4560   22.5644 C   0  0  0  0  0  0  0  0  0  0  0  0
    8.5700   10.9225   25.8664 C   0  0  0  0  0  0  0  0  0  0  0  0
    8.7602   12.1832   23.6393 C   0  0  0  0  0  0  0  0  0  0  0  0
    9.5193    9.4157   23.4209 C   0  0  0  0  0  0  0  0  0  0  0  0
    7.7631   11.9777   26.5943 C   0  0  0  0  0  0  0  0  0  0  0  0
    6.6085   11.3552   24.6731 C   0  0  0  0  0  0  0  0  0  0  0  0
   10.1952   11.8227   23.2462 C   0  0  2  0  0  0  0  0  0  0  0  0
    8.0834   11.0441   24.4283 C   0  0  2  0  0  0  0  0  0  0  0  0
   13.9405   18.0372   19.1572 C   0  0  0  0  0  0  0  0  0  0  0  0
   12.5844   14.7801   22.7073 C   0  0  0  0  0  0  0  0  0  0  0  0
   10.7631   12.8390   22.3943 N   0  0  0  0  0  0  0  0  0  0  0  0
   10.6126   14.4657   24.3995 O   0  0  0  0  0  0  0  0  0  0  0  0
   10.1064   15.2912   22.0717 O   0  0  0  0  0  0  0  0  0  0  0  0
    6.5363   12.1394   25.8707 O   0  0  0  0  0  0  0  0  0  0  0  0
    8.1806    9.8159   23.7089 O   0  0  0  0  0  0  0  0  0  0  0  0
   10.8594   14.4383   22.9711 S   0  0  0  0  0  0  0  0  0  0  0  0
   12.3697   13.7722   18.1645 H   0  0  0  0  0  0  0  0  0  0  0  0
   13.2320   15.9962   17.5126 H   0  0  0  0  0  0  0  0  0  0  0  0
   12.0687   13.2036   20.5526 H   0  0  0  0  0  0  0  0  0  0  0  0
   13.4988   17.1077   21.6624 H   0  0  0  0  0  0  0  0  0  0  0  0
   11.2609   10.1456   22.3675 H   0  0  0  0  0  0  0  0  0  0  0  0
    9.7231   10.5237   21.5920 H   0  0  0  0  0  0  0  0  0  0  0  0
    9.6396   11.1761   25.9286 H   0  0  0  0  0  0  0  0  0  0  0  0
    8.4389    9.9360   26.3272 H   0  0  0  0  0  0  0  0  0  0  0  0
    8.7455   13.1172   24.2148 H   0  0  0  0  0  0  0  0  0  0  0  0
    8.1805   12.3728   22.7249 H   0  0  0  0  0  0  0  0  0  0  0  0
    9.4688    8.4686   22.8787 H   0  0  0  0  0  0  0  0  0  0  0  0
   10.0641    9.2272   24.3479 H   0  0  0  0  0  0  0  0  0  0  0  0
    7.5124   11.6581   27.6125 H   0  0  0  0  0  0  0  0  0  0  0  0
    8.2852   12.9382   26.6522 H   0  0  0  0  0  0  0  0  0  0  0  0
    6.1742   11.9573   23.8646 H   0  0  0  0  0  0  0  0  0  0  0  0
    5.9966   10.4553   24.8099 H   0  0  0  0  0  0  0  0  0  0  0  0
   10.8149   11.7686   24.1781 H   0  0  0  0  0  0  0  0  0  0  0  0
   13.1116   18.7428   19.0228 H   0  0  0  0  0  0  0  0  0  0  0  0
   14.6196   18.4394   19.9201 H   0  0  0  0  0  0  0  0  0  0  0  0
   14.5100   17.9867   18.2200 H   0  0  0  0  0  0  0  0  0  0  0  0
   12.8721   15.6069   23.3627 H   0  0  0  0  0  0  0  0  0  0  0  0
   13.1552   13.8921   22.9933 H   0  0  0  0  0  0  0  0  0  0  0  0
   10.5472   12.7069   21.4014 H   0  0  0  0  0  0  0  0  0  0  0  0
  1  2  1  0  0  0  0
  1  3  2  0  0  0  0
  2  5  2  0  0  0  0
  3  6  1  0  0  0  0
  4  5  1  0  0  0  0
  4  6  2  0  0  0  0
  5 15  1  0  0  0  0
  6 16  1  0  0  0  0
  7 10  1  0  0  0  0
  7 13  1  0  0  0  0
  8 11  1  0  0  0  0
  8 14  1  0  0  0  0
  9 13  1  0  0  0  0
  9 14  1  0  0  0  0
 10 21  1  0  0  0  0
 11 20  1  0  0  0  0
 12 14  1  0  0  0  0
 12 20  1  0  0  0  0
 13 17  1  0  0  0  0
 14 21  1  0  0  0  0
 16 22  1  0  0  0  0
 17 22  1  0  0  0  0
 18 22  2  0  0  0  0
 19 22  2  0  0  0  0
  1 23  1  0  0  0  0
  2 24  1  0  0  0  0
  3 25  1  0  0  0  0
  4 26  1  0  0  0  0
  7 27  1  0  0  0  0
  7 28  1  0  0  0  0
  8 29  1  0  0  0  0
  8 30  1  0  0  0  0
  9 31  1  0  0  0  0
  9 32  1  0  0  0  0
 10 33  1  0  0  0  0
 10 34  1  0  0  0  0
 11 35  1  0  0  0  0
 11 36  1  0  0  0  0
 12 37  1  0  0  0  0
 12 38  1  0  0  0  0
 13 39  1  0  0  0  0
 15 40  1  0  0  0  0
 15 41  1  0  0  0  0
 15 42  1  0  0  0  0
 16 43  1  0  0  0  0
 16 44  1  0  0  0  0
 17 45  1  0  0  0  0
M  END
> <Catalog ID>
Z1575723493

> <PlateID>
1041831-R-35

> <Well>
C09

> <MW (desalted)>
325.423

> <ClogP>
0.599

> <HBD>
1

> <TPSA>
64.630

> <RotBonds>
3

> <ROCS_ShapeQuery>
A71EV2A-x0451_0A_A71EV2A-x0310_0A_A71EV2A-x0416_0A_peptide

> <ROCS_TanimotoCombo>
0.513 

> <ROCS_ShapeTanimoto>
0.330 

> <ROCS_ColorTanimoto>
0.184 

> <ROCS_RefTversky>
0.293 

> <ROCS_RefColorTversky>
0.202 

> <ROCS_RefTverskyCombo>
0.495 

> <ROCS_FitTversky>
1.603 

> <ROCS_FitColorTversky>
0.671 

> <ROCS_FitTverskyCombo>
2.274 

> <ROCS_ColorScore>
-6.168

> <ROCS_Overlap>
2035.831

> <ROCS_Rank>
467                 

$$$$
untitled-dbase-1820_5879
  -OEChem-11132311063D

 47 49  0     0  0  0  0  0  0999 V2000
    8.2345   12.6446   24.8429 C   0  0  0  0  0  0  0  0  0  0  0  0
    6.8802   12.6505   25.1964 C   0  0  0  0  0  0  0  0  0  0  0  0
    6.7209   10.2526   24.8366 C   0  0  0  0  0  0  0  0  0  0  0  0
   10.1617    9.7018   23.8495 C   0  0  0  0  0  0  0  0  0  0  0  0
    8.8449   11.4274   24.4805 C   0  0  0  0  0  0  0  0  0  0  0  0
    6.1370   11.4718   25.1926 C   0  0  0  0  0  0  0  0  0  0  0  0
   10.1587   11.0588   24.0769 C   0  0  0  0  0  0  0  0  0  0  0  0
    8.0756   10.2619   24.4857 C   0  0  0  0  0  0  0  0  0  0  0  0
   10.9581   13.3815   23.4912 C   0  0  0  0  0  0  0  0  0  0  0  0
   10.5245   14.5325   19.9199 C   0  0  0  0  0  0  0  0  0  0  0  0
   11.5157   15.8442   21.8146 C   0  0  0  0  0  0  0  0  0  0  0  0
   11.9329   14.3965   19.3328 C   0  0  0  0  0  0  0  0  0  0  0  0
   12.8910   15.6647   21.1639 C   0  0  0  0  0  0  0  0  0  0  0  0
   10.5488   14.7190   21.4388 C   0  0  0  0  0  0  0  0  0  0  0  0
    4.6937   11.5093   25.5727 C   0  0  0  0  0  0  0  0  0  0  0  0
   11.3405   11.9792   23.9241 C   0  0  0  0  0  0  0  0  0  0  0  0
   14.0989   15.4229   19.0939 C   0  0  0  0  0  0  0  0  0  0  0  0
   14.7935   16.7683   19.0637 C   0  0  0  0  0  0  0  0  0  0  0  0
    8.9007    9.2302   24.0984 N   0  0  0  0  0  0  0  0  0  0  0  0
   12.7750   15.5412   19.7046 N   0  0  0  0  0  0  0  0  0  0  0  0
   10.8967   13.4866   22.1099 N   0  0  0  0  0  0  0  0  0  0  0  0
   10.7308   14.2961   24.2791 O   0  0  0  0  0  0  0  0  0  0  0  0
   15.2836   17.0635   20.2936 F   0  0  0  0  0  0  0  0  0  0  0  0
   13.8832   17.7318   18.7704 F   0  0  0  0  0  0  0  0  0  0  0  0
    8.8010   13.5713   24.8491 H   0  0  0  0  0  0  0  0  0  0  0  0
    6.4127   13.5923   25.4744 H   0  0  0  0  0  0  0  0  0  0  0  0
    6.1474    9.3311   24.8303 H   0  0  0  0  0  0  0  0  0  0  0  0
   10.9462    9.0282   23.5337 H   0  0  0  0  0  0  0  0  0  0  0  0
   10.0299   15.4006   19.4643 H   0  0  0  0  0  0  0  0  0  0  0  0
    9.9209   13.6578   19.6487 H   0  0  0  0  0  0  0  0  0  0  0  0
   11.6241   15.9115   22.9039 H   0  0  0  0  0  0  0  0  0  0  0  0
   11.0885   16.8022   21.4889 H   0  0  0  0  0  0  0  0  0  0  0  0
   12.3856   13.4523   19.6632 H   0  0  0  0  0  0  0  0  0  0  0  0
   11.8408   14.3455   18.2410 H   0  0  0  0  0  0  0  0  0  0  0  0
   13.4994   16.5431   21.4123 H   0  0  0  0  0  0  0  0  0  0  0  0
   13.3962   14.7898   21.5934 H   0  0  0  0  0  0  0  0  0  0  0  0
    9.5398   14.9739   21.7904 H   0  0  0  0  0  0  0  0  0  0  0  0
    4.0715   11.6825   24.6869 H   0  0  0  0  0  0  0  0  0  0  0  0
    4.3817   10.5668   26.0398 H   0  0  0  0  0  0  0  0  0  0  0  0
    4.4956   12.3065   26.3001 H   0  0  0  0  0  0  0  0  0  0  0  0
   11.8854   12.0389   24.8749 H   0  0  0  0  0  0  0  0  0  0  0  0
   12.0409   11.5641   23.1884 H   0  0  0  0  0  0  0  0  0  0  0  0
   13.9907   15.0433   18.0728 H   0  0  0  0  0  0  0  0  0  0  0  0
   14.7064   14.7011   19.6495 H   0  0  0  0  0  0  0  0  0  0  0  0
   15.6055   16.8200   18.3323 H   0  0  0  0  0  0  0  0  0  0  0  0
    8.6163    8.2644   24.0101 H   0  0  0  0  0  0  0  0  0  0  0  0
   11.1039   12.6669   21.5486 H   0  0  0  0  0  0  0  0  0  0  0  0
  1  2  1  0  0  0  0
  1  5  2  0  0  0  0
  2  6  2  0  0  0  0
  3  6  1  0  0  0  0
  3  8  2  0  0  0  0
  4  7  2  0  0  0  0
  4 19  1  0  0  0  0
  5  7  1  0  0  0  0
  5  8  1  0  0  0  0
  6 15  1  0  0  0  0
  7 16  1  0  0  0  0
  8 19  1  0  0  0  0
  9 16  1  0  0  0  0
  9 21  1  0  0  0  0
  9 22  2  0  0  0  0
 10 12  1  0  0  0  0
 10 14  1  0  0  0  0
 11 13  1  0  0  0  0
 11 14  1  0  0  0  0
 12 20  1  0  0  0  0
 13 20  1  0  0  0  0
 14 21  1  0  0  0  0
 17 18  1  0  0  0  0
 17 20  1  0  0  0  0
 18 23  1  0  0  0  0
 18 24  1  0  0  0  0
  1 25  1  0  0  0  0
  2 26  1  0  0  0  0
  3 27  1  0  0  0  0
  4 28  1  0  0  0  0
 10 29  1  0  0  0  0
 10 30  1  0  0  0  0
 11 31  1  0  0  0  0
 11 32  1  0  0  0  0
 12 33  1  0  0  0  0
 12 34  1  0  0  0  0
 13 35  1  0  0  0  0
 13 36  1  0  0  0  0
 14 37  1  0  0  0  0
 15 38  1  0  0  0  0
 15 39  1  0  0  0  0
 15 40  1  0  0  0  0
 16 41  1  0  0  0  0
 16 42  1  0  0  0  0
 17 43  1  0  0  0  0
 17 44  1  0  0  0  0
 18 45  1  0  0  0  0
 19 46  1  0  0  0  0
 21 47  1  0  0  0  0
M  END
> <Catalog ID>
Z1014630474

> <PlateID>
1041831-R-23

> <Well>
F11

> <MW (desalted)>
335.392

> <ClogP>
1.642

> <HBD>
2

> <TPSA>
48.130

> <RotBonds>
5

> <ROCS_ShapeQuery>
A71EV2A-x0451_0A_A71EV2A-x0310_0A_A71EV2A-x0416_0A_peptide

> <ROCS_TanimotoCombo>
0.513 

> <ROCS_ShapeTanimoto>
0.348 

> <ROCS_ColorTanimoto>
0.165 

> <ROCS_RefTversky>
0.310 

> <ROCS_RefColorTversky>
0.180 

> <ROCS_RefTverskyCombo>
0.490 

> <ROCS_FitTversky>
1.559 

> <ROCS_FitColorTversky>
0.664 

> <ROCS_FitTverskyCombo>
2.223 

> <ROCS_ColorScore>
-5.483

> <ROCS_Overlap>
2152.311

> <ROCS_Rank>
468                 

$$$$
untitled-dbase-959_1432
  -OEChem-11132311063D

 45 48  0     1  0  0  0  0  0999 V2000
   13.9742   16.7651   18.5302 C   0  0  0  0  0  0  0  0  0  0  0  0
   14.6326   15.7658   19.2616 C   0  0  0  0  0  0  0  0  0  0  0  0
   12.6447   17.0825   18.8051 C   0  0  0  0  0  0  0  0  0  0  0  0
   13.9706   15.0701   20.2785 C   0  0  0  0  0  0  0  0  0  0  0  0
    8.2029   12.0418   24.2699 C   0  0  0  0  0  0  0  0  0  0  0  0
    7.4597   10.9345   24.7207 C   0  0  0  0  0  0  0  0  0  0  0  0
   12.0012   16.3784   19.8087 C   0  0  0  0  0  0  0  0  0  0  0  0
   12.6467   15.3800   20.5496 C   0  0  0  0  0  0  0  0  0  0  0  0
    9.2498   11.4915   23.5716 C   0  0  0  0  0  0  0  0  0  0  0  0
   10.9441   13.3149   23.1858 C   0  0  0  0  0  0  0  0  0  0  0  0
   10.6043   16.5474   20.3132 C   0  0  0  0  0  0  0  0  0  0  0  0
   10.5587    6.9913   24.0928 C   0  0  0  0  0  0  0  0  0  0  0  0
   11.8175    7.7083   23.6358 C   0  0  0  0  0  0  0  0  0  0  0  0
    9.4466    7.6673   23.2988 C   0  0  0  0  0  0  0  0  0  0  0  0
   11.3828    9.1646   23.5637 C   0  0  0  0  0  0  0  0  0  0  0  0
   10.4525   15.2960   21.2016 C   0  0  0  0  0  0  0  0  0  0  0  0
    9.9311    9.1108   23.0582 C   0  0  0  0  0  0  0  0  0  0  0  0
   12.0623   13.5977   22.2012 C   0  0  0  0  0  0  0  0  0  0  0  0
    7.9895    9.7687   24.3406 N   0  0  0  0  0  0  0  0  0  0  0  0
    9.0766   10.1405   23.6435 N   0  0  0  0  0  0  0  0  0  0  0  0
   11.8046   14.8343   21.5081 N   0  0  1  0  0  0  0  0  0  0  0  0
   10.3289   12.1016   22.8888 N   0  0  0  0  0  0  0  0  0  0  0  0
   10.6721   14.0816   24.1042 O   0  0  0  0  0  0  0  0  0  0  0  0
   14.5066   17.2977   17.7472 H   0  0  0  0  0  0  0  0  0  0  0  0
   15.6699   15.5313   19.0376 H   0  0  0  0  0  0  0  0  0  0  0  0
   12.1352   17.8607   18.2476 H   0  0  0  0  0  0  0  0  0  0  0  0
   14.4990   14.3035   20.8359 H   0  0  0  0  0  0  0  0  0  0  0  0
    8.0039   13.0914   24.4314 H   0  0  0  0  0  0  0  0  0  0  0  0
    6.5544   10.9285   25.3104 H   0  0  0  0  0  0  0  0  0  0  0  0
   10.5250   17.4644   20.9057 H   0  0  0  0  0  0  0  0  0  0  0  0
    9.8704   16.5518   19.5024 H   0  0  0  0  0  0  0  0  0  0  0  0
   10.6026    5.9137   23.9106 H   0  0  0  0  0  0  0  0  0  0  0  0
   10.4024    7.1510   25.1665 H   0  0  0  0  0  0  0  0  0  0  0  0
   12.6559    7.5595   24.3221 H   0  0  0  0  0  0  0  0  0  0  0  0
   12.1195    7.3524   22.6436 H   0  0  0  0  0  0  0  0  0  0  0  0
    9.3363    7.1614   22.3317 H   0  0  0  0  0  0  0  0  0  0  0  0
    8.4841    7.6031   23.8169 H   0  0  0  0  0  0  0  0  0  0  0  0
   11.4429    9.6208   24.5599 H   0  0  0  0  0  0  0  0  0  0  0  0
   12.0249    9.7464   22.8946 H   0  0  0  0  0  0  0  0  0  0  0  0
    9.8866   15.5204   22.1120 H   0  0  0  0  0  0  0  0  0  0  0  0
    9.9128   14.5136   20.6521 H   0  0  0  0  0  0  0  0  0  0  0  0
    9.9078    9.3244   21.9569 H   0  0  0  0  0  0  0  0  0  0  0  0
   12.1328   12.7802   21.4769 H   0  0  0  0  0  0  0  0  0  0  0  0
   13.0081   13.6681   22.7475 H   0  0  0  0  0  0  0  0  0  0  0  0
   10.6870   11.5820   22.0902 H   0  0  0  0  0  0  0  0  0  0  0  0
  1  2  2  0  0  0  0
  1  3  1  0  0  0  0
  2  4  1  0  0  0  0
  3  7  2  0  0  0  0
  4  8  2  0  0  0  0
  5  6  1  0  0  0  0
  5  9  2  0  0  0  0
  6 19  2  0  0  0  0
  7  8  1  0  0  0  0
  7 11  1  0  0  0  0
  8 21  1  0  0  0  0
  9 20  1  0  0  0  0
  9 22  1  0  0  0  0
 10 18  1  0  0  0  0
 10 22  1  0  0  0  0
 10 23  2  0  0  0  0
 11 16  1  0  0  0  0
 12 13  1  0  0  0  0
 12 14  1  0  0  0  0
 13 15  1  0  0  0  0
 14 17  1  0  0  0  0
 15 17  1  0  0  0  0
 16 21  1  0  0  0  0
 17 20  1  0  0  0  0
 18 21  1  0  0  0  0
 19 20  1  0  0  0  0
  1 24  1  0  0  0  0
  2 25  1  0  0  0  0
  3 26  1  0  0  0  0
  4 27  1  0  0  0  0
  5 28  1  0  0  0  0
  6 29  1  0  0  0  0
 11 30  1  0  0  0  0
 11 31  1  0  0  0  0
 12 32  1  0  0  0  0
 12 33  1  0  0  0  0
 13 34  1  0  0  0  0
 13 35  1  0  0  0  0
 14 36  1  0  0  0  0
 14 37  1  0  0  0  0
 15 38  1  0  0  0  0
 15 39  1  0  0  0  0
 16 40  1  0  0  0  0
 16 41  1  0  0  0  0
 17 42  1  0  0  0  0
 18 43  1  0  0  0  0
 18 44  1  0  0  0  0
 22 45  1  0  0  0  0
M  END
> <Catalog ID>
Z104782636

> <PlateID>
1041831-R-12

> <Well>
H10

> <MW (desalted)>
310.393

> <ClogP>
3.335

> <HBD>
1

> <TPSA>
50.160

> <RotBonds>
4

> <ROCS_ShapeQuery>
A71EV2A-x0451_0A_A71EV2A-x0310_0A_A71EV2A-x0416_0A_peptide

> <ROCS_TanimotoCombo>
0.513 

> <ROCS_ShapeTanimoto>
0.323 

> <ROCS_ColorTanimoto>
0.190 

> <ROCS_RefTversky>
0.292 

> <ROCS_RefColorTversky>
0.203 

> <ROCS_RefTverskyCombo>
0.495 

> <ROCS_FitTversky>
1.487 

> <ROCS_FitColorTversky>
0.749 

> <ROCS_FitTverskyCombo>
2.236 

> <ROCS_ColorScore>
-6.181

> <ROCS_Overlap>
2032.154

> <ROCS_Rank>
469                 

$$$$
untitled-dbase-449_148
  -OEChem-11132311063D

 48 52  0     1  0  0  0  0  0999 V2000
   11.2103   15.3699   24.2780 C   0  0  0  0  0  0  0  0  0  0  0  0
   12.5115   15.1215   24.7209 C   0  0  0  0  0  0  0  0  0  0  0  0
   10.4809   14.3775   23.6042 C   0  0  0  0  0  0  0  0  0  0  0  0
   12.3332   12.8836   23.8068 C   0  0  0  0  0  0  0  0  0  0  0  0
   13.0444   13.8619   24.5000 C   0  0  0  0  0  0  0  0  0  0  0  0
   11.0464   13.1251   23.3552 C   0  0  0  0  0  0  0  0  0  0  0  0
   13.1656   11.6600   23.5963 C   0  0  0  0  0  0  0  0  0  0  0  0
    9.6291    8.1523   23.3665 C   0  0  0  0  0  0  0  0  0  0  0  0
   10.4606    9.4251   23.6686 C   0  0  0  0  0  0  0  0  0  0  0  0
    8.5451    9.0765   22.7563 C   0  0  0  0  0  0  0  0  0  0  0  0
    7.3460   12.6444   24.7987 C   0  0  0  0  0  0  0  0  0  0  0  0
   14.3660   11.9140   24.5251 C   0  0  0  0  0  0  0  0  0  0  0  0
    6.3620   11.4990   24.5897 C   0  0  0  0  0  0  0  0  0  0  0  0
    8.7238   12.0466   24.5352 C   0  0  2  0  0  0  0  0  0  0  0  0
    9.0840   11.6085   23.0830 C   0  0  2  0  0  0  0  0  0  0  0  0
    8.4858   10.5570   24.9029 C   0  0  2  0  0  0  0  0  0  0  0  0
    9.1503   10.1893   23.5869 C   0  0  0  0  0  0  0  0  0  0  0  0
   13.9197   13.3134   27.4134 C   0  0  0  0  0  0  0  0  0  0  0  0
   14.3658   13.3918   24.7969 N   0  0  2  0  0  0  0  0  0  0  0  0
   10.3255   12.1527   22.6554 N   0  0  0  0  0  0  0  0  0  0  0  0
   15.0456   15.3808   26.2797 O   0  0  0  0  0  0  0  0  0  0  0  0
   16.3409   13.2167   26.4357 O   0  0  0  0  0  0  0  0  0  0  0  0
    7.0610   10.3345   25.0433 O   0  0  0  0  0  0  0  0  0  0  0  0
   15.0942   13.9311   26.2321 S   0  0  0  0  0  0  0  0  0  0  0  0
   10.7599   16.3441   24.4479 H   0  0  0  0  0  0  0  0  0  0  0  0
   13.0724   15.9030   25.2204 H   0  0  0  0  0  0  0  0  0  0  0  0
    9.4724   14.6030   23.2653 H   0  0  0  0  0  0  0  0  0  0  0  0
   12.6431   10.7388   23.8699 H   0  0  0  0  0  0  0  0  0  0  0  0
   13.4906   11.6035   22.5518 H   0  0  0  0  0  0  0  0  0  0  0  0
   10.0862    7.4383   22.6770 H   0  0  0  0  0  0  0  0  0  0  0  0
    9.2979    7.6195   24.2654 H   0  0  0  0  0  0  0  0  0  0  0  0
   10.9809    9.4276   24.6301 H   0  0  0  0  0  0  0  0  0  0  0  0
   11.1866    9.6442   22.8778 H   0  0  0  0  0  0  0  0  0  0  0  0
    8.6546    9.2152   21.6741 H   0  0  0  0  0  0  0  0  0  0  0  0
    7.5123    8.7880   22.9667 H   0  0  0  0  0  0  0  0  0  0  0  0
    7.1246   13.5033   24.1589 H   0  0  0  0  0  0  0  0  0  0  0  0
    7.2946   12.9781   25.8422 H   0  0  0  0  0  0  0  0  0  0  0  0
   14.2321   11.3656   25.4657 H   0  0  0  0  0  0  0  0  0  0  0  0
   15.3075   11.6043   24.0624 H   0  0  0  0  0  0  0  0  0  0  0  0
    5.4416   11.6327   25.1641 H   0  0  0  0  0  0  0  0  0  0  0  0
    6.1129   11.3634   23.5325 H   0  0  0  0  0  0  0  0  0  0  0  0
    9.5339   12.5281   25.0949 H   0  0  0  0  0  0  0  0  0  0  0  0
    8.2981   11.7977   22.3446 H   0  0  0  0  0  0  0  0  0  0  0  0
    9.0104   10.2272   25.8056 H   0  0  0  0  0  0  0  0  0  0  0  0
   14.2594   13.5888   28.4131 H   0  0  0  0  0  0  0  0  0  0  0  0
   12.9489   13.7641   27.2017 H   0  0  0  0  0  0  0  0  0  0  0  0
   13.8680   12.2283   27.3124 H   0  0  0  0  0  0  0  0  0  0  0  0
   10.7396   11.8236   21.7779 H   0  0  0  0  0  0  0  0  0  0  0  0
  1  2  2  0  0  0  0
  1  3  1  0  0  0  0
  2  5  1  0  0  0  0
  3  6  2  0  0  0  0
  4  5  2  0  0  0  0
  4  6  1  0  0  0  0
  4  7  1  0  0  0  0
  5 19  1  0  0  0  0
  6 20  1  0  0  0  0
  7 12  1  0  0  0  0
  8  9  1  0  0  0  0
  8 10  1  0  0  0  0
  9 17  1  0  0  0  0
 10 17  1  0  0  0  0
 11 13  1  0  0  0  0
 11 14  1  1  0  0  0
 12 19  1  0  0  0  0
 13 23  1  0  0  0  0
 14 15  1  0  0  0  0
 14 16  1  0  0  0  0
 15 17  1  0  0  0  0
 15 20  1  0  0  0  0
 16 17  1  0  0  0  0
 16 23  1  1  0  0  0
 18 24  1  0  0  0  0
 19 24  1  0  0  0  0
 21 24  2  0  0  0  0
 22 24  2  0  0  0  0
  1 25  1  0  0  0  0
  2 26  1  0  0  0  0
  3 27  1  0  0  0  0
  7 28  1  0  0  0  0
  7 29  1  0  0  0  0
  8 30  1  0  0  0  0
  8 31  1  0  0  0  0
  9 32  1  0  0  0  0
  9 33  1  0  0  0  0
 10 34  1  0  0  0  0
 10 35  1  0  0  0  0
 11 36  1  0  0  0  0
 11 37  1  0  0  0  0
 12 38  1  0  0  0  0
 12 39  1  0  0  0  0
 13 40  1  0  0  0  0
 13 41  1  0  0  0  0
 14 42  1  0  0  0  0
 15 43  1  0  0  0  0
 16 44  1  0  0  0  0
 18 45  1  0  0  0  0
 18 46  1  0  0  0  0
 18 47  1  0  0  0  0
 20 48  1  0  0  0  0
M  END
> <Catalog ID>
Z1904758666

> <PlateID>
1041831-R-06

> <Well>
E10

> <MW (desalted)>
348.460

> <ClogP>
1.865

> <HBD>
1

> <TPSA>
58.640

> <RotBonds>
2

> <ROCS_ShapeQuery>
A71EV2A-x0451_0A_A71EV2A-x0310_0A_A71EV2A-x0416_0A_peptide

> <ROCS_TanimotoCombo>
0.513 

> <ROCS_ShapeTanimoto>
0.335 

> <ROCS_ColorTanimoto>
0.179 

> <ROCS_RefTversky>
0.301 

> <ROCS_RefColorTversky>
0.222 

> <ROCS_RefTverskyCombo>
0.523 

> <ROCS_FitTversky>
1.500 

> <ROCS_FitColorTversky>
0.475 

> <ROCS_FitTverskyCombo>
1.975 

> <ROCS_ColorScore>
-6.848

> <ROCS_Overlap>
2092.823

> <ROCS_Rank>
470                 

$$$$
untitled-dbase-1201_699
  -OEChem-11132311063D

 49 51  0     1  0  0  0  0  0999 V2000
    6.2340   12.2192   25.4638 C   0  0  0  0  0  0  0  0  0  0  0  0
    5.9429   10.8622   25.3391 C   0  0  0  0  0  0  0  0  0  0  0  0
    7.4682   12.7286   25.0440 C   0  0  0  0  0  0  0  0  0  0  0  0
    6.8725    9.9728   24.7926 C   0  0  0  0  0  0  0  0  0  0  0  0
   10.1834   10.7785   23.5656 C   0  0  0  0  0  0  0  0  0  0  0  0
    8.4214   11.8510   24.4900 C   0  0  0  0  0  0  0  0  0  0  0  0
    9.7373   12.0144   23.9737 C   0  0  0  0  0  0  0  0  0  0  0  0
    8.1022   10.4962   24.3773 C   0  0  0  0  0  0  0  0  0  0  0  0
   11.2769   15.0886   22.3318 C   0  0  0  0  0  0  0  0  0  0  0  0
   13.3323   13.0433   22.7717 C   0  0  0  0  0  0  0  0  0  0  0  0
   12.5269   14.3474   19.0686 C   0  0  0  0  0  0  0  0  0  0  0  0
   13.5026   15.4907   18.7904 C   0  0  0  0  0  0  0  0  0  0  0  0
   11.3240   14.8322   19.8718 C   0  0  0  0  0  0  0  0  0  0  0  0
   12.6676   16.6448   20.8754 C   0  0  0  0  0  0  0  0  0  0  0  0
   13.9103   16.1971   20.0927 C   0  0  2  0  0  0  0  0  0  0  0  0
   14.4623   12.2722   22.1746 C   0  0  0  0  0  0  0  0  0  0  0  0
   10.5147   13.3048   23.8861 C   0  0  0  0  0  0  0  0  0  0  0  0
   10.9353   13.6253   22.4580 C   0  0  2  0  0  0  0  0  0  0  0  0
   14.8246   17.3844   19.8012 C   0  0  0  0  0  0  0  0  0  0  0  0
    9.1901    9.8693   23.8128 N   0  0  0  0  0  0  0  0  0  0  0  0
   11.7552   15.5142   21.0930 N   0  0  0  0  0  0  0  0  0  0  0  0
   12.1437   12.9628   22.0598 N   0  0  0  0  0  0  0  0  0  0  0  0
   11.1204   15.8300   23.3054 O   0  0  0  0  0  0  0  0  0  0  0  0
   13.5110   13.6721   23.8083 O   0  0  0  0  0  0  0  0  0  0  0  0
   15.9216   16.9710   19.1486 F   0  0  0  0  0  0  0  0  0  0  0  0
   14.1814   18.2850   19.0427 F   0  0  0  0  0  0  0  0  0  0  0  0
   15.1974   17.9704   20.9492 F   0  0  0  0  0  0  0  0  0  0  0  0
    5.4948   12.8912   25.8913 H   0  0  0  0  0  0  0  0  0  0  0  0
    4.9781   10.4881   25.6717 H   0  0  0  0  0  0  0  0  0  0  0  0
    7.6797   13.7891   25.1470 H   0  0  0  0  0  0  0  0  0  0  0  0
    6.6454    8.9165   24.6970 H   0  0  0  0  0  0  0  0  0  0  0  0
   11.1171   10.4638   23.1202 H   0  0  0  0  0  0  0  0  0  0  0  0
   12.1881   13.9151   18.1204 H   0  0  0  0  0  0  0  0  0  0  0  0
   13.0402   13.5499   19.6200 H   0  0  0  0  0  0  0  0  0  0  0  0
   14.3904   15.0970   18.2817 H   0  0  0  0  0  0  0  0  0  0  0  0
   13.0333   16.2087   18.1056 H   0  0  0  0  0  0  0  0  0  0  0  0
   10.7352   15.5489   19.2871 H   0  0  0  0  0  0  0  0  0  0  0  0
   10.6704   13.9860   20.1058 H   0  0  0  0  0  0  0  0  0  0  0  0
   12.9721   17.1054   21.8173 H   0  0  0  0  0  0  0  0  0  0  0  0
   12.1081   17.4037   20.3144 H   0  0  0  0  0  0  0  0  0  0  0  0
   14.4713   15.4851   20.7137 H   0  0  0  0  0  0  0  0  0  0  0  0
   15.0511   12.8724   21.4624 H   0  0  0  0  0  0  0  0  0  0  0  0
   15.1844   11.9292   22.9329 H   0  0  0  0  0  0  0  0  0  0  0  0
   14.1729   11.3656   21.6195 H   0  0  0  0  0  0  0  0  0  0  0  0
    9.8923   14.1147   24.2900 H   0  0  0  0  0  0  0  0  0  0  0  0
   11.3892   13.2540   24.5491 H   0  0  0  0  0  0  0  0  0  0  0  0
   10.1603   13.3954   21.7264 H   0  0  0  0  0  0  0  0  0  0  0  0
    9.2466    8.8806   23.6106 H   0  0  0  0  0  0  0  0  0  0  0  0
   12.1286   12.4021   21.2071 H   0  0  0  0  0  0  0  0  0  0  0  0
  1  2  2  0  0  0  0
  1  3  1  0  0  0  0
  2  4  1  0  0  0  0
  3  6  2  0  0  0  0
  4  8  2  0  0  0  0
  5  7  2  0  0  0  0
  5 20  1  0  0  0  0
  6  7  1  0  0  0  0
  6  8  1  0  0  0  0
  7 17  1  0  0  0  0
  8 20  1  0  0  0  0
  9 18  1  0  0  0  0
  9 21  1  0  0  0  0
  9 23  2  0  0  0  0
 10 16  1  0  0  0  0
 10 22  1  0  0  0  0
 10 24  2  0  0  0  0
 11 12  1  0  0  0  0
 11 13  1  0  0  0  0
 12 15  1  0  0  0  0
 13 21  1  0  0  0  0
 14 15  1  0  0  0  0
 14 21  1  0  0  0  0
 15 19  1  0  0  0  0
 17 18  1  0  0  0  0
 18 22  1  0  0  0  0
 19 25  1  0  0  0  0
 19 26  1  0  0  0  0
 19 27  1  0  0  0  0
  1 28  1  0  0  0  0
  2 29  1  0  0  0  0
  3 30  1  0  0  0  0
  4 31  1  0  0  0  0
  5 32  1  0  0  0  0
 11 33  1  0  0  0  0
 11 34  1  0  0  0  0
 12 35  1  0  0  0  0
 12 36  1  0  0  0  0
 13 37  1  0  0  0  0
 13 38  1  0  0  0  0
 14 39  1  0  0  0  0
 14 40  1  0  0  0  0
 15 41  1  0  0  0  0
 16 42  1  0  0  0  0
 16 43  1  0  0  0  0
 16 44  1  0  0  0  0
 17 45  1  0  0  0  0
 17 46  1  0  0  0  0
 18 47  1  0  0  0  0
 20 48  1  0  0  0  0
 22 49  1  0  0  0  0
M  END
> <Catalog ID>
Z221240752

> <PlateID>
1041831-R-16

> <Well>
A02

> <MW (desalted)>
381.392

> <ClogP>
1.559

> <HBD>
2

> <TPSA>
65.200

> <RotBonds>
5

> <ROCS_ShapeQuery>
A71EV2A-x0451_0A_A71EV2A-x0310_0A_A71EV2A-x0416_0A_peptide

> <ROCS_TanimotoCombo>
0.513 

> <ROCS_ShapeTanimoto>
0.351 

> <ROCS_ColorTanimoto>
0.162 

> <ROCS_RefTversky>
0.317 

> <ROCS_RefColorTversky>
0.177 

> <ROCS_RefTverskyCombo>
0.494 

> <ROCS_FitTversky>
1.446 

> <ROCS_FitColorTversky>
0.654 

> <ROCS_FitTverskyCombo>
2.100 

> <ROCS_ColorScore>
-5.397

> <ROCS_Overlap>
2204.252

> <ROCS_Rank>
471                 

$$$$
untitled-dbase-2312_53
  -OEChem-11132311063D

 48 50  0     1  0  0  0  0  0999 V2000
   13.9553   16.7382   17.4562 C   0  0  0  0  0  0  0  0  0  0  0  0
   12.3469   16.6813   19.2972 C   0  0  0  0  0  0  0  0  0  0  0  0
   14.2996   15.2608   19.3744 C   0  0  0  0  0  0  0  0  0  0  0  0
   11.9319   16.1779   20.5301 C   0  0  0  0  0  0  0  0  0  0  0  0
   13.8847   14.7574   20.6073 C   0  0  0  0  0  0  0  0  0  0  0  0
   13.5307   16.2227   18.7193 C   0  0  0  0  0  0  0  0  0  0  0  0
   12.7009   15.2160   21.1851 C   0  0  0  0  0  0  0  0  0  0  0  0
    8.7309   12.5376   25.0390 C   0  0  0  0  0  0  0  0  0  0  0  0
    7.2689   12.4118   24.6224 C   0  0  0  0  0  0  0  0  0  0  0  0
    9.3939   11.2447   24.5806 C   0  0  2  0  0  0  0  0  0  0  0  0
    9.5052   10.9659   23.0588 C   0  0  2  0  0  0  0  0  0  0  0  0
    8.2086   10.2603   24.6503 C   0  0  2  0  0  0  0  0  0  0  0  0
    8.6388    9.6810   23.2676 C   0  0  0  0  0  0  0  0  0  0  0  0
    7.5146    9.5374   22.2433 C   0  0  0  0  0  0  0  0  0  0  0  0
    9.4009    8.3593   23.4222 C   0  0  0  0  0  0  0  0  0  0  0  0
   10.8795   10.4884   21.1461 C   0  0  0  0  0  0  0  0  0  0  0  0
   11.7181   11.8907   22.9076 C   0  0  0  0  0  0  0  0  0  0  0  0
   11.1779   13.1831   22.3261 C   0  0  0  0  0  0  0  0  0  0  0  0
   14.3001   17.1569   16.4302 N   0  0  0  0  0  0  0  0  0  0  0  0
   10.8672   10.7429   22.5878 N   0  0  1  0  0  0  0  0  0  0  0  0
   13.3655   14.1088   23.4361 O   0  0  0  0  0  0  0  0  0  0  0  0
   11.3133   15.5681   23.3688 O   0  0  0  0  0  0  0  0  0  0  0  0
    6.9734   11.0146   24.7342 O   0  0  0  0  0  0  0  0  0  0  0  0
   12.1754   14.5776   22.7478 S   0  0  0  0  0  0  0  0  0  0  0  0
   11.7368   17.4306   18.7984 H   0  0  0  0  0  0  0  0  0  0  0  0
   15.2246   14.8931   18.9366 H   0  0  0  0  0  0  0  0  0  0  0  0
   11.0076   16.5414   20.9711 H   0  0  0  0  0  0  0  0  0  0  0  0
   14.4911   14.0076   21.1087 H   0  0  0  0  0  0  0  0  0  0  0  0
    9.2045   13.4307   24.6218 H   0  0  0  0  0  0  0  0  0  0  0  0
    8.7901   12.6041   26.1322 H   0  0  0  0  0  0  0  0  0  0  0  0
    6.6026   12.9892   25.2687 H   0  0  0  0  0  0  0  0  0  0  0  0
    7.1155   12.7152   23.5822 H   0  0  0  0  0  0  0  0  0  0  0  0
   10.2584   10.9509   25.1880 H   0  0  0  0  0  0  0  0  0  0  0  0
    8.9670   11.7644   22.4313 H   0  0  0  0  0  0  0  0  0  0  0  0
    8.2632    9.5532   25.4855 H   0  0  0  0  0  0  0  0  0  0  0  0
    6.9518    8.6281   22.4424 H   0  0  0  0  0  0  0  0  0  0  0  0
    7.9361    9.4867   21.2418 H   0  0  0  0  0  0  0  0  0  0  0  0
    6.8476   10.3942   22.3093 H   0  0  0  0  0  0  0  0  0  0  0  0
    8.6921    7.5480   23.5599 H   0  0  0  0  0  0  0  0  0  0  0  0
   10.0561    8.4194   24.2862 H   0  0  0  0  0  0  0  0  0  0  0  0
    9.9924    8.1772   22.5297 H   0  0  0  0  0  0  0  0  0  0  0  0
   11.9141   10.3229   20.8112 H   0  0  0  0  0  0  0  0  0  0  0  0
   10.2759    9.5954   20.9264 H   0  0  0  0  0  0  0  0  0  0  0  0
   10.4572   11.3556   20.6172 H   0  0  0  0  0  0  0  0  0  0  0  0
   12.7231   11.6712   22.5338 H   0  0  0  0  0  0  0  0  0  0  0  0
   11.7632   11.9589   23.9987 H   0  0  0  0  0  0  0  0  0  0  0  0
   10.1792   13.3906   22.7219 H   0  0  0  0  0  0  0  0  0  0  0  0
   11.1242   13.1462   21.2338 H   0  0  0  0  0  0  0  0  0  0  0  0
  1  6  1  0  0  0  0
  1 19  3  0  0  0  0
  2  4  1  0  0  0  0
  2  6  2  0  0  0  0
  3  5  2  0  0  0  0
  3  6  1  0  0  0  0
  4  7  2  0  0  0  0
  5  7  1  0  0  0  0
  7 24  1  0  0  0  0
  8  9  1  0  0  0  0
  8 10  1  0  0  0  0
  9 23  1  0  0  0  0
 10 11  1  0  0  0  0
 10 12  1  0  0  0  0
 11 13  1  0  0  0  0
 11 20  1  0  0  0  0
 12 13  1  0  0  0  0
 12 23  1  0  0  0  0
 13 14  1  0  0  0  0
 13 15  1  0  0  0  0
 16 20  1  0  0  0  0
 17 18  1  0  0  0  0
 17 20  1  0  0  0  0
 18 24  1  0  0  0  0
 21 24  2  0  0  0  0
 22 24  2  0  0  0  0
  2 25  1  0  0  0  0
  3 26  1  0  0  0  0
  4 27  1  0  0  0  0
  5 28  1  0  0  0  0
  8 29  1  0  0  0  0
  8 30  1  0  0  0  0
  9 31  1  0  0  0  0
  9 32  1  0  0  0  0
 10 33  1  0  0  0  0
 11 34  1  0  0  0  0
 12 35  1  0  0  0  0
 14 36  1  0  0  0  0
 14 37  1  0  0  0  0
 14 38  1  0  0  0  0
 15 39  1  0  0  0  0
 15 40  1  0  0  0  0
 15 41  1  0  0  0  0
 16 42  1  0  0  0  0
 16 43  1  0  0  0  0
 16 44  1  0  0  0  0
 17 45  1  0  0  0  0
 17 46  1  0  0  0  0
 18 47  1  0  0  0  0
 18 48  1  0  0  0  0
M  END
> <Catalog ID>
Z1330906849

> <PlateID>
1041831-R-29

> <Well>
H03

> <MW (desalted)>
348.460

> <ClogP>
1.774

> <HBD>
0

> <TPSA>
70.400

> <RotBonds>
5

> <ROCS_ShapeQuery>
A71EV2A-x0451_0A_A71EV2A-x0310_0A_A71EV2A-x0416_0A_peptide

> <ROCS_TanimotoCombo>
0.513 

> <ROCS_ShapeTanimoto>
0.316 

> <ROCS_ColorTanimoto>
0.197 

> <ROCS_RefTversky>
0.287 

> <ROCS_RefColorTversky>
0.237 

> <ROCS_RefTverskyCombo>
0.523 

> <ROCS_FitTversky>
1.478 

> <ROCS_FitColorTversky>
0.543 

> <ROCS_FitTverskyCombo>
2.021 

> <ROCS_ColorScore>
-7.272

> <ROCS_Overlap>
1990.918

> <ROCS_Rank>
472                 

$$$$
untitled-dbase-501_249
  -OEChem-11132311063D

 48 51  0     1  0  0  0  0  0999 V2000
   14.3251   16.1203   17.3943 C   0  0  0  0  0  0  0  0  0  0  0  0
   15.5259   16.4737   18.0181 C   0  0  0  0  0  0  0  0  0  0  0  0
   13.4751   15.7945   18.4261 C   0  0  0  0  0  0  0  0  0  0  0  0
   12.3230   15.3178   20.9314 C   0  0  0  0  0  0  0  0  0  0  0  0
   13.6108   15.7223   20.8665 C   0  0  0  0  0  0  0  0  0  0  0  0
   11.6428   15.1469   19.5891 C   0  0  0  0  0  0  0  0  0  0  0  0
   10.5240   13.2876   23.5969 C   0  0  0  0  0  0  0  0  0  0  0  0
    7.1823   11.4866   26.2126 C   0  0  0  0  0  0  0  0  0  0  0  0
    8.5161   12.0955   25.7687 C   0  0  0  0  0  0  0  0  0  0  0  0
    6.4663   11.0280   24.9381 C   0  0  0  0  0  0  0  0  0  0  0  0
   10.0516   10.9122   22.8470 C   0  0  0  0  0  0  0  0  0  0  0  0
    9.6019    9.6866   23.6272 C   0  0  0  0  0  0  0  0  0  0  0  0
    8.4352   12.1581   24.2403 C   0  0  2  0  0  0  0  0  0  0  0  0
    7.5640   10.9551   23.8822 C   0  0  1  0  0  0  0  0  0  0  0  0
   14.5040   15.9381   22.0604 C   0  0  0  0  0  0  0  0  0  0  0  0
   10.2050   14.6718   19.5741 C   0  0  0  0  0  0  0  0  0  0  0  0
   11.5272   15.0501   22.1662 C   0  0  0  0  0  0  0  0  0  0  0  0
   11.3378   13.5589   22.3569 C   0  0  0  0  0  0  0  0  0  0  0  0
   15.4631   16.3854   19.3449 N   0  0  0  0  0  0  0  0  0  0  0  0
   12.1853   15.3762   18.4304 N   0  0  0  0  0  0  0  0  0  0  0  0
   14.1918   15.9652   19.6070 N   0  0  0  0  0  0  0  0  0  0  0  0
    9.7367   12.1361   23.5850 N   0  0  0  0  0  0  0  0  0  0  0  0
   10.5854   14.0699   24.5487 O   0  0  0  0  0  0  0  0  0  0  0  0
    8.2347    9.7048   24.0289 O   0  0  0  0  0  0  0  0  0  0  0  0
   14.0983   16.1006   16.3383 H   0  0  0  0  0  0  0  0  0  0  0  0
   16.4515   16.7937   17.5617 H   0  0  0  0  0  0  0  0  0  0  0  0
    7.3668   10.6324   26.8738 H   0  0  0  0  0  0  0  0  0  0  0  0
    6.5729   12.2053   26.7689 H   0  0  0  0  0  0  0  0  0  0  0  0
    8.6678   13.0876   26.2001 H   0  0  0  0  0  0  0  0  0  0  0  0
    9.3343   11.4566   26.1126 H   0  0  0  0  0  0  0  0  0  0  0  0
    5.9594   10.0715   25.0939 H   0  0  0  0  0  0  0  0  0  0  0  0
    5.7205   11.7783   24.6529 H   0  0  0  0  0  0  0  0  0  0  0  0
   11.1355   10.8972   22.7215 H   0  0  0  0  0  0  0  0  0  0  0  0
    9.5915   10.9066   21.8624 H   0  0  0  0  0  0  0  0  0  0  0  0
    9.8034    8.7506   23.0525 H   0  0  0  0  0  0  0  0  0  0  0  0
   10.2140    9.5923   24.5517 H   0  0  0  0  0  0  0  0  0  0  0  0
    7.9006   13.0726   23.9619 H   0  0  0  0  0  0  0  0  0  0  0  0
    7.1338   11.0223   22.8726 H   0  0  0  0  0  0  0  0  0  0  0  0
   15.0197   15.0115   22.2916 H   0  0  0  0  0  0  0  0  0  0  0  0
   13.8989   16.2460   22.9077 H   0  0  0  0  0  0  0  0  0  0  0  0
   15.2258   16.7156   21.8295 H   0  0  0  0  0  0  0  0  0  0  0  0
    9.5523   15.5351   19.6100 H   0  0  0  0  0  0  0  0  0  0  0  0
   10.0378   14.0382   20.4367 H   0  0  0  0  0  0  0  0  0  0  0  0
   10.0335   14.1084   18.6650 H   0  0  0  0  0  0  0  0  0  0  0  0
   10.5495   15.5221   22.0240 H   0  0  0  0  0  0  0  0  0  0  0  0
   12.0278   15.5229   23.0168 H   0  0  0  0  0  0  0  0  0  0  0  0
   12.2802   13.0198   22.4567 H   0  0  0  0  0  0  0  0  0  0  0  0
   10.7746   13.1365   21.5233 H   0  0  0  0  0  0  0  0  0  0  0  0
  1  2  1  0  0  0  0
  1  3  2  0  0  0  0
  2 19  2  0  0  0  0
  3 20  1  0  0  0  0
  3 21  1  0  0  0  0
  4  5  2  0  0  0  0
  4  6  1  0  0  0  0
  4 17  1  0  0  0  0
  5 15  1  0  0  0  0
  5 21  1  0  0  0  0
  6 16  1  0  0  0  0
  6 20  2  0  0  0  0
  7 18  1  0  0  0  0
  7 22  1  0  0  0  0
  7 23  2  0  0  0  0
  8  9  1  0  0  0  0
  8 10  1  0  0  0  0
  9 13  1  0  0  0  0
 10 14  1  0  0  0  0
 11 12  1  0  0  0  0
 11 22  1  0  0  0  0
 12 24  1  0  0  0  0
 13 14  1  0  0  0  0
 13 22  1  0  0  0  0
 14 24  1  0  0  0  0
 17 18  1  0  0  0  0
 19 21  1  0  0  0  0
  1 25  1  0  0  0  0
  2 26  1  0  0  0  0
  8 27  1  0  0  0  0
  8 28  1  0  0  0  0
  9 29  1  0  0  0  0
  9 30  1  0  0  0  0
 10 31  1  0  0  0  0
 10 32  1  0  0  0  0
 11 33  1  0  0  0  0
 11 34  1  0  0  0  0
 12 35  1  0  0  0  0
 12 36  1  0  0  0  0
 13 37  1  0  0  0  0
 14 38  1  0  0  0  0
 15 39  1  0  0  0  0
 15 40  1  0  0  0  0
 15 41  1  0  0  0  0
 16 42  1  0  0  0  0
 16 43  1  0  0  0  0
 16 44  1  0  0  0  0
 17 45  1  0  0  0  0
 17 46  1  0  0  0  0
 18 47  1  0  0  0  0
 18 48  1  0  0  0  0
M  END
> <Catalog ID>
Z811396086

> <PlateID>
1041831-R-07

> <Well>
C02

> <MW (desalted)>
328.409

> <ClogP>
1.394

> <HBD>
0

> <TPSA>
59.730

> <RotBonds>
3

> <ROCS_ShapeQuery>
A71EV2A-x0451_0A_A71EV2A-x0310_0A_A71EV2A-x0416_0A_peptide

> <ROCS_TanimotoCombo>
0.513 

> <ROCS_ShapeTanimoto>
0.332 

> <ROCS_ColorTanimoto>
0.181 

> <ROCS_RefTversky>
0.299 

> <ROCS_RefColorTversky>
0.200 

> <ROCS_RefTverskyCombo>
0.500 

> <ROCS_FitTversky>
1.478 

> <ROCS_FitColorTversky>
0.660 

> <ROCS_FitTverskyCombo>
2.138 

> <ROCS_ColorScore>
-6.108

> <ROCS_Overlap>
2081.328

> <ROCS_Rank>
473                 

$$$$
untitled-dbase-987_18665
  -OEChem-11132311063D

 43 45  0     0  0  0  0  0  0999 V2000
   14.3648   16.6033   19.2753 C   0  0  0  0  0  0  0  0  0  0  0  0
   13.2980   16.4489   18.3900 C   0  0  0  0  0  0  0  0  0  0  0  0
   14.2596   16.1303   20.5833 C   0  0  0  0  0  0  0  0  0  0  0  0
    7.3501   11.8422   24.6816 C   0  0  0  0  0  0  0  0  0  0  0  0
   15.6418   12.7144   25.0310 C   0  0  0  0  0  0  0  0  0  0  0  0
   12.1261   15.8217   18.8127 C   0  0  0  0  0  0  0  0  0  0  0  0
   13.0877   15.5031   21.0060 C   0  0  0  0  0  0  0  0  0  0  0  0
    8.6344   12.1937   24.2814 C   0  0  0  0  0  0  0  0  0  0  0  0
   14.4035   12.2549   25.5396 C   0  0  0  0  0  0  0  0  0  0  0  0
    7.0200   10.4966   24.6938 C   0  0  0  0  0  0  0  0  0  0  0  0
    9.1089    9.8859   23.9578 C   0  0  0  0  0  0  0  0  0  0  0  0
   15.3456   13.7697   24.2001 C   0  0  0  0  0  0  0  0  0  0  0  0
   12.0209   15.3487   20.1207 C   0  0  0  0  0  0  0  0  0  0  0  0
    9.5368   11.2029   23.9108 C   0  0  0  0  0  0  0  0  0  0  0  0
   13.4388   13.0624   24.9834 C   0  0  0  0  0  0  0  0  0  0  0  0
   11.0047   14.0005   22.9563 C   0  0  0  0  0  0  0  0  0  0  0  0
   10.7596   14.6737   20.5765 C   0  0  0  0  0  0  0  0  0  0  0  0
   10.9308   11.5501   23.4747 C   0  0  0  0  0  0  0  0  0  0  0  0
   11.9431   13.1089   25.1057 C   0  0  0  0  0  0  0  0  0  0  0  0
    7.8694    9.5058   24.3409 N   0  0  0  0  0  0  0  0  0  0  0  0
   11.0145   13.6856   21.6003 N   0  0  0  0  0  0  0  0  0  0  0  0
   11.2831   12.9220   23.8160 N   0  0  0  0  0  0  0  0  0  0  0  0
   10.7772   15.1443   23.3619 O   0  0  0  0  0  0  0  0  0  0  0  0
   14.0049   13.9884   24.1656 O   0  0  0  0  0  0  0  0  0  0  0  0
   15.2777   17.0906   18.9456 H   0  0  0  0  0  0  0  0  0  0  0  0
   13.3801   16.8162   17.3711 H   0  0  0  0  0  0  0  0  0  0  0  0
   15.0904   16.2494   21.2725 H   0  0  0  0  0  0  0  0  0  0  0  0
    6.6301   12.5977   24.9749 H   0  0  0  0  0  0  0  0  0  0  0  0
   16.6269   12.3248   25.2432 H   0  0  0  0  0  0  0  0  0  0  0  0
   11.2999   15.7059   18.1160 H   0  0  0  0  0  0  0  0  0  0  0  0
   13.0147   15.1378   22.0270 H   0  0  0  0  0  0  0  0  0  0  0  0
    8.9232   13.2411   24.2615 H   0  0  0  0  0  0  0  0  0  0  0  0
   14.2381   11.4365   26.2258 H   0  0  0  0  0  0  0  0  0  0  0  0
    6.0307   10.1708   24.9978 H   0  0  0  0  0  0  0  0  0  0  0  0
    9.7687    9.0696   23.6803 H   0  0  0  0  0  0  0  0  0  0  0  0
   15.9434   14.4335   23.5930 H   0  0  0  0  0  0  0  0  0  0  0  0
   10.0546   15.4068   20.9833 H   0  0  0  0  0  0  0  0  0  0  0  0
   10.2599   14.1701   19.7422 H   0  0  0  0  0  0  0  0  0  0  0  0
   11.6608   10.8861   23.9503 H   0  0  0  0  0  0  0  0  0  0  0  0
   11.0438   11.4351   22.3915 H   0  0  0  0  0  0  0  0  0  0  0  0
   11.5867   12.3258   25.7837 H   0  0  0  0  0  0  0  0  0  0  0  0
   11.6120   14.0691   25.5152 H   0  0  0  0  0  0  0  0  0  0  0  0
   11.2068   12.7309   21.3214 H   0  0  0  0  0  0  0  0  0  0  0  0
  1  2  2  0  0  0  0
  1  3  1  0  0  0  0
  2  6  1  0  0  0  0
  3  7  2  0  0  0  0
  4  8  1  0  0  0  0
  4 10  2  0  0  0  0
  5  9  1  0  0  0  0
  5 12  2  0  0  0  0
  6 13  2  0  0  0  0
  7 13  1  0  0  0  0
  8 14  2  0  0  0  0
  9 15  2  0  0  0  0
 10 20  1  0  0  0  0
 11 14  1  0  0  0  0
 11 20  2  0  0  0  0
 12 24  1  0  0  0  0
 13 17  1  0  0  0  0
 14 18  1  0  0  0  0
 15 19  1  0  0  0  0
 15 24  1  0  0  0  0
 16 21  1  0  0  0  0
 16 22  1  0  0  0  0
 16 23  2  0  0  0  0
 17 21  1  0  0  0  0
 18 22  1  0  0  0  0
 19 22  1  0  0  0  0
  1 25  1  0  0  0  0
  2 26  1  0  0  0  0
  3 27  1  0  0  0  0
  4 28  1  0  0  0  0
  5 29  1  0  0  0  0
  6 30  1  0  0  0  0
  7 31  1  0  0  0  0
  8 32  1  0  0  0  0
  9 33  1  0  0  0  0
 10 34  1  0  0  0  0
 11 35  1  0  0  0  0
 12 36  1  0  0  0  0
 17 37  1  0  0  0  0
 17 38  1  0  0  0  0
 18 39  1  0  0  0  0
 18 40  1  0  0  0  0
 19 41  1  0  0  0  0
 19 42  1  0  0  0  0
 21 43  1  0  0  0  0
M  END
> <Catalog ID>
Z281175908

> <PlateID>
1041831-R-13

> <Well>
C08

> <MW (desalted)>
321.373

> <ClogP>
1.938

> <HBD>
1

> <TPSA>
58.370

> <RotBonds>
6

> <ROCS_ShapeQuery>
A71EV2A-x0451_0A_A71EV2A-x0310_0A_A71EV2A-x0416_0A_peptide

> <ROCS_TanimotoCombo>
0.513 

> <ROCS_ShapeTanimoto>
0.328 

> <ROCS_ColorTanimoto>
0.185 

> <ROCS_RefTversky>
0.296 

> <ROCS_RefColorTversky>
0.198 

> <ROCS_RefTverskyCombo>
0.495 

> <ROCS_FitTversky>
1.478 

> <ROCS_FitColorTversky>
0.734 

> <ROCS_FitTverskyCombo>
2.212 

> <ROCS_ColorScore>
-6.044

> <ROCS_Overlap>
2060.401

> <ROCS_Rank>
474                 

$$$$
untitled-dbase-1860_9495
  -OEChem-11132311063D

 45 48  0     0  0  0  0  0  0999 V2000
    6.7597   12.2878   26.2301 C   0  0  0  0  0  0  0  0  0  0  0  0
    7.7926   12.7783   25.4333 C   0  0  0  0  0  0  0  0  0  0  0  0
    6.3989   10.9526   26.1085 C   0  0  0  0  0  0  0  0  0  0  0  0
   14.2207   15.8254   20.1065 C   0  0  0  0  0  0  0  0  0  0  0  0
   13.9630   15.5314   18.7883 C   0  0  0  0  0  0  0  0  0  0  0  0
    9.6105   10.7186   23.0264 C   0  0  0  0  0  0  0  0  0  0  0  0
    8.4154   11.8869   24.5448 C   0  0  0  0  0  0  0  0  0  0  0  0
    9.4648   11.9672   23.5915 C   0  0  0  0  0  0  0  0  0  0  0  0
    7.9531   10.5742   24.5257 C   0  0  0  0  0  0  0  0  0  0  0  0
   12.2782   16.6045   19.7191 C   0  0  0  0  0  0  0  0  0  0  0  0
   10.1275   15.0186   20.1822 C   0  0  0  0  0  0  0  0  0  0  0  0
   10.1377   16.6053   22.0107 C   0  0  0  0  0  0  0  0  0  0  0  0
    9.1090   14.1484   20.9158 C   0  0  0  0  0  0  0  0  0  0  0  0
    9.1193   15.7621   22.7753 C   0  0  0  0  0  0  0  0  0  0  0  0
   10.9340   17.2635   19.8325 C   0  0  0  0  0  0  0  0  0  0  0  0
   12.0032   15.9727   17.3000 C   0  0  0  0  0  0  0  0  0  0  0  0
    6.9621   10.0503   25.2717 N   0  0  0  0  0  0  0  0  0  0  0  0
   13.1679   16.4932   20.6803 N   0  0  0  0  0  0  0  0  0  0  0  0
    8.6885    9.8819   23.6000 N   0  0  0  0  0  0  0  0  0  0  0  0
   12.7149   16.0362   18.5548 N   0  0  0  0  0  0  0  0  0  0  0  0
    9.9763   16.4315   20.5596 N   0  0  0  0  0  0  0  0  0  0  0  0
    9.2356   14.3300   22.3876 N   0  0  0  0  0  0  0  0  0  0  0  0
   10.7764   14.0527   24.4304 O   0  0  0  0  0  0  0  0  0  0  0  0
   11.4335   13.0027   22.2364 O   0  0  0  0  0  0  0  0  0  0  0  0
   11.2335   14.8551   17.1760 F   0  0  0  0  0  0  0  0  0  0  0  0
   12.8279   15.9670   16.2154 F   0  0  0  0  0  0  0  0  0  0  0  0
   10.4192   13.3971   23.1905 S   0  0  0  0  0  0  0  0  0  0  0  0
    6.2481   12.9378   26.9318 H   0  0  0  0  0  0  0  0  0  0  0  0
    8.0983   13.8172   25.5036 H   0  0  0  0  0  0  0  0  0  0  0  0
    5.5962   10.5531   26.7226 H   0  0  0  0  0  0  0  0  0  0  0  0
   15.1108   15.5902   20.6716 H   0  0  0  0  0  0  0  0  0  0  0  0
   14.5387   15.0254   18.0259 H   0  0  0  0  0  0  0  0  0  0  0  0
   10.2869   10.3491   22.2681 H   0  0  0  0  0  0  0  0  0  0  0  0
   11.1435   14.6661   20.4045 H   0  0  0  0  0  0  0  0  0  0  0  0
    9.9671   14.9016   19.1038 H   0  0  0  0  0  0  0  0  0  0  0  0
    9.9852   17.6575   22.2787 H   0  0  0  0  0  0  0  0  0  0  0  0
   11.1539   16.3295   22.3229 H   0  0  0  0  0  0  0  0  0  0  0  0
    8.0847   14.3976   20.5990 H   0  0  0  0  0  0  0  0  0  0  0  0
    9.2928   13.0942   20.6629 H   0  0  0  0  0  0  0  0  0  0  0  0
    9.3104   15.8631   23.8534 H   0  0  0  0  0  0  0  0  0  0  0  0
    8.0957   16.1168   22.5794 H   0  0  0  0  0  0  0  0  0  0  0  0
   11.0165   18.2209   20.3584 H   0  0  0  0  0  0  0  0  0  0  0  0
   10.5134   17.4712   18.8429 H   0  0  0  0  0  0  0  0  0  0  0  0
   11.3428   16.8410   17.2091 H   0  0  0  0  0  0  0  0  0  0  0  0
    8.5687    8.9040   23.3748 H   0  0  0  0  0  0  0  0  0  0  0  0
  1  2  1  0  0  0  0
  1  3  2  0  0  0  0
  2  7  2  0  0  0  0
  3 17  1  0  0  0  0
  4  5  2  0  0  0  0
  4 18  1  0  0  0  0
  5 20  1  0  0  0  0
  6  8  2  0  0  0  0
  6 19  1  0  0  0  0
  7  8  1  0  0  0  0
  7  9  1  0  0  0  0
  8 27  1  0  0  0  0
  9 17  2  0  0  0  0
  9 19  1  0  0  0  0
 10 15  1  0  0  0  0
 10 18  2  0  0  0  0
 10 20  1  0  0  0  0
 11 13  1  0  0  0  0
 11 21  1  0  0  0  0
 12 14  1  0  0  0  0
 12 21  1  0  0  0  0
 13 22  1  0  0  0  0
 14 22  1  0  0  0  0
 15 21  1  0  0  0  0
 16 20  1  0  0  0  0
 16 25  1  0  0  0  0
 16 26  1  0  0  0  0
 22 27  1  0  0  0  0
 23 27  2  0  0  0  0
 24 27  2  0  0  0  0
  1 28  1  0  0  0  0
  2 29  1  0  0  0  0
  3 30  1  0  0  0  0
  4 31  1  0  0  0  0
  5 32  1  0  0  0  0
  6 33  1  0  0  0  0
 11 34  1  0  0  0  0
 11 35  1  0  0  0  0
 12 36  1  0  0  0  0
 12 37  1  0  0  0  0
 13 38  1  0  0  0  0
 13 39  1  0  0  0  0
 14 40  1  0  0  0  0
 14 41  1  0  0  0  0
 15 42  1  0  0  0  0
 15 43  1  0  0  0  0
 16 44  1  0  0  0  0
 19 45  1  0  0  0  0
M  END
> <Catalog ID>
Z785458586

> <PlateID>
1041831-R-24

> <Well>
B11

> <MW (desalted)>
396.415

> <ClogP>
0.914

> <HBD>
1

> <TPSA>
87.120

> <RotBonds>
4

> <ROCS_ShapeQuery>
A71EV2A-x0451_0A_A71EV2A-x0310_0A_A71EV2A-x0416_0A_peptide

> <ROCS_TanimotoCombo>
0.513 

> <ROCS_ShapeTanimoto>
0.321 

> <ROCS_ColorTanimoto>
0.192 

> <ROCS_RefTversky>
0.297 

> <ROCS_RefColorTversky>
0.224 

> <ROCS_RefTverskyCombo>
0.521 

> <ROCS_FitTversky>
1.346 

> <ROCS_FitColorTversky>
0.570 

> <ROCS_FitTverskyCombo>
1.915 

> <ROCS_ColorScore>
-6.869

> <ROCS_Overlap>
2065.156

> <ROCS_Rank>
475                 

$$$$
untitled-dbase-1034_218
  -OEChem-11132311063D

 56 59  0     1  0  0  0  0  0999 V2000
   13.8203   16.5947   18.3330 C   0  0  0  0  0  0  0  0  0  0  0  0
    4.9446   13.8269   26.7420 C   0  0  0  0  0  0  0  0  0  0  0  0
   14.2212   17.1489   19.5487 C   0  0  0  0  0  0  0  0  0  0  0  0
   12.8644   15.5790   18.3110 C   0  0  0  0  0  0  0  0  0  0  0  0
    4.6183   12.8325   27.6615 C   0  0  0  0  0  0  0  0  0  0  0  0
    5.9044   13.5978   25.7497 C   0  0  0  0  0  0  0  0  0  0  0  0
   13.6663   16.6873   20.7423 C   0  0  0  0  0  0  0  0  0  0  0  0
   12.3096   15.1175   19.5046 C   0  0  0  0  0  0  0  0  0  0  0  0
    5.2386   11.5807   27.6197 C   0  0  0  0  0  0  0  0  0  0  0  0
    6.5451   12.3438   25.6862 C   0  0  0  0  0  0  0  0  0  0  0  0
   12.7105   15.6716   20.7203 C   0  0  0  0  0  0  0  0  0  0  0  0
    7.5395   11.7765   24.8388 C   0  0  0  0  0  0  0  0  0  0  0  0
    6.1966   11.3636   26.6227 C   0  0  0  0  0  0  0  0  0  0  0  0
    7.7578   10.4881   25.2764 C   0  0  0  0  0  0  0  0  0  0  0  0
   12.1196   15.1800   21.9916 C   0  0  0  0  0  0  0  0  0  0  0  0
   10.5481   11.9091   22.6690 C   0  0  0  0  0  0  0  0  0  0  0  0
    8.2561   12.3685   23.6737 C   0  0  0  0  0  0  0  0  0  0  0  0
    8.7244    9.5329   24.6835 C   0  0  0  0  0  0  0  0  0  0  0  0
    9.0652   10.0113   23.2633 C   0  0  0  0  0  0  0  0  0  0  0  0
   12.0843   12.8806   26.9106 C   0  0  0  0  0  0  0  0  0  0  0  0
   12.9388   11.9618   24.1484 C   0  0  0  0  0  0  0  0  0  0  0  0
   11.1848   12.9802   25.6850 C   0  0  0  0  0  0  0  0  0  0  0  0
   11.0451   13.2561   23.1319 C   0  0  1  0  0  0  0  0  0  0  0  0
   11.9641   13.1280   24.3589 C   0  0  2  0  0  0  0  0  0  0  0  0
    6.9531   10.2436   26.3497 N   0  0  0  0  0  0  0  0  0  0  0  0
    9.3462   11.4640   23.2264 N   0  0  0  0  0  0  0  0  0  0  0  0
   11.6614   13.8656   21.9897 N   0  0  0  0  0  0  0  0  0  0  0  0
   12.0459   15.9411   22.9528 O   0  0  0  0  0  0  0  0  0  0  0  0
   11.2078   11.2731   21.8433 O   0  0  0  0  0  0  0  0  0  0  0  0
   14.2523   16.9541   17.4037 H   0  0  0  0  0  0  0  0  0  0  0  0
    4.4491   14.7927   26.7949 H   0  0  0  0  0  0  0  0  0  0  0  0
   14.9656   17.9395   19.5656 H   0  0  0  0  0  0  0  0  0  0  0  0
   12.5520   15.1478   17.3645 H   0  0  0  0  0  0  0  0  0  0  0  0
    3.8692   13.0317   28.4236 H   0  0  0  0  0  0  0  0  0  0  0  0
    6.1480   14.3832   25.0397 H   0  0  0  0  0  0  0  0  0  0  0  0
   13.9860   17.1262   21.6840 H   0  0  0  0  0  0  0  0  0  0  0  0
   11.5656   14.3255   19.4754 H   0  0  0  0  0  0  0  0  0  0  0  0
    4.9831   10.8076   28.3366 H   0  0  0  0  0  0  0  0  0  0  0  0
    7.5709   12.4881   22.8273 H   0  0  0  0  0  0  0  0  0  0  0  0
    8.6509   13.3509   23.9423 H   0  0  0  0  0  0  0  0  0  0  0  0
    9.6331    9.5005   25.2953 H   0  0  0  0  0  0  0  0  0  0  0  0
    8.3048    8.5221   24.6443 H   0  0  0  0  0  0  0  0  0  0  0  0
    9.9119    9.4368   22.8745 H   0  0  0  0  0  0  0  0  0  0  0  0
    8.2183    9.8389   22.5867 H   0  0  0  0  0  0  0  0  0  0  0  0
   12.7587   12.0241   26.8103 H   0  0  0  0  0  0  0  0  0  0  0  0
   12.7042   13.7737   27.0295 H   0  0  0  0  0  0  0  0  0  0  0  0
   11.4943   12.7412   27.8217 H   0  0  0  0  0  0  0  0  0  0  0  0
   12.3992   11.0113   24.0752 H   0  0  0  0  0  0  0  0  0  0  0  0
   13.5053   12.0798   23.2197 H   0  0  0  0  0  0  0  0  0  0  0  0
   13.6534   11.8833   24.9745 H   0  0  0  0  0  0  0  0  0  0  0  0
   10.5283   13.8465   25.8252 H   0  0  0  0  0  0  0  0  0  0  0  0
   10.5386   12.0948   25.6515 H   0  0  0  0  0  0  0  0  0  0  0  0
   10.1551   13.8411   23.3768 H   0  0  0  0  0  0  0  0  0  0  0  0
   12.5640   14.0465   24.4239 H   0  0  0  0  0  0  0  0  0  0  0  0
    6.9134    9.3768   26.8685 H   0  0  0  0  0  0  0  0  0  0  0  0
   11.7039   13.3210   21.1283 H   0  0  0  0  0  0  0  0  0  0  0  0
  1  3  2  0  0  0  0
  1  4  1  0  0  0  0
  2  5  2  0  0  0  0
  2  6  1  0  0  0  0
  3  7  1  0  0  0  0
  4  8  2  0  0  0  0
  5  9  1  0  0  0  0
  6 10  2  0  0  0  0
  7 11  2  0  0  0  0
  8 11  1  0  0  0  0
  9 13  2  0  0  0  0
 10 12  1  0  0  0  0
 10 13  1  0  0  0  0
 11 15  1  0  0  0  0
 12 14  2  0  0  0  0
 12 17  1  0  0  0  0
 13 25  1  0  0  0  0
 14 18  1  0  0  0  0
 14 25  1  0  0  0  0
 15 27  1  0  0  0  0
 15 28  2  0  0  0  0
 16 23  1  0  0  0  0
 16 26  1  0  0  0  0
 16 29  2  0  0  0  0
 17 26  1  0  0  0  0
 18 19  1  0  0  0  0
 19 26  1  0  0  0  0
 20 22  1  0  0  0  0
 21 24  1  0  0  0  0
 22 24  1  0  0  0  0
 23 24  1  0  0  0  0
 23 27  1  0  0  0  0
  1 30  1  0  0  0  0
  2 31  1  0  0  0  0
  3 32  1  0  0  0  0
  4 33  1  0  0  0  0
  5 34  1  0  0  0  0
  6 35  1  0  0  0  0
  7 36  1  0  0  0  0
  8 37  1  0  0  0  0
  9 38  1  0  0  0  0
 17 39  1  0  0  0  0
 17 40  1  0  0  0  0
 18 41  1  0  0  0  0
 18 42  1  0  0  0  0
 19 43  1  0  0  0  0
 19 44  1  0  0  0  0
 20 45  1  0  0  0  0
 20 46  1  0  0  0  0
 20 47  1  0  0  0  0
 21 48  1  0  0  0  0
 21 49  1  0  0  0  0
 21 50  1  0  0  0  0
 22 51  1  0  0  0  0
 22 52  1  0  0  0  0
 23 53  1  0  0  0  0
 24 54  1  0  0  0  0
 25 55  1  0  0  0  0
 27 56  1  0  0  0  0
M  END
> <Catalog ID>
Z225653412

> <PlateID>
1041831-R-13

> <Well>
H05

> <MW (desalted)>
389.490

> <ClogP>
3.766

> <HBD>
2

> <TPSA>
65.200

> <RotBonds>
5

> <ROCS_ShapeQuery>
A71EV2A-x0451_0A_A71EV2A-x0310_0A_A71EV2A-x0416_0A_peptide

> <ROCS_TanimotoCombo>
0.513 

> <ROCS_ShapeTanimoto>
0.385 

> <ROCS_ColorTanimoto>
0.127 

> <ROCS_RefTversky>
0.343 

> <ROCS_RefColorTversky>
0.154 

> <ROCS_RefTverskyCombo>
0.497 

> <ROCS_FitTversky>
1.478 

> <ROCS_FitColorTversky>
0.424 

> <ROCS_FitTverskyCombo>
1.902 

> <ROCS_ColorScore>
-4.718

> <ROCS_Overlap>
2385.760

> <ROCS_Rank>
476                 

$$$$
untitled-dbase-1190_68
  -OEChem-11132311063D

 48 51  0     0  0  0  0  0  0999 V2000
    5.9545   11.1421   25.1973 C   0  0  0  0  0  0  0  0  0  0  0  0
    7.7728   12.6924   25.5116 C   0  0  0  0  0  0  0  0  0  0  0  0
   10.0960   10.3348   22.8980 C   0  0  0  0  0  0  0  0  0  0  0  0
    6.6911   10.3942   24.3680 C   0  0  0  0  0  0  0  0  0  0  0  0
    6.5114   12.3341   25.7925 C   0  0  0  0  0  0  0  0  0  0  0  0
   10.5565   11.4504   23.4806 C   0  0  0  0  0  0  0  0  0  0  0  0
    8.6035   11.8639   24.5868 C   0  0  0  0  0  0  0  0  0  0  0  0
    8.7097    9.8909   23.1710 C   0  0  0  0  0  0  0  0  0  0  0  0
   12.3512   13.5641   21.3987 C   0  0  0  0  0  0  0  0  0  0  0  0
   11.2970   14.3461   23.2606 C   0  0  0  0  0  0  0  0  0  0  0  0
   13.1021   15.8286   18.4224 C   0  0  0  0  0  0  0  0  0  0  0  0
   14.0741   15.5725   19.5678 C   0  0  0  0  0  0  0  0  0  0  0  0
   11.8409   14.9839   18.5573 C   0  0  0  0  0  0  0  0  0  0  0  0
   13.4211   15.8052   20.9302 C   0  0  0  0  0  0  0  0  0  0  0  0
   11.1488   15.2062   19.9020 C   0  0  0  0  0  0  0  0  0  0  0  0
   12.0905   15.0558   21.1079 C   0  0  0  0  0  0  0  0  0  0  0  0
    5.6273   13.1198   26.7103 C   0  0  0  0  0  0  0  0  0  0  0  0
   10.9465   16.7607   22.6595 C   0  0  0  0  0  0  0  0  0  0  0  0
   11.9431   11.9244   23.2301 C   0  0  0  0  0  0  0  0  0  0  0  0
    9.8231   12.2358   24.3340 N   0  0  0  0  0  0  0  0  0  0  0  0
    8.0018   10.7206   24.0447 N   0  0  0  0  0  0  0  0  0  0  0  0
   11.8616   13.2490   22.6457 N   0  0  0  0  0  0  0  0  0  0  0  0
   11.4239   15.4186   22.3679 N   0  0  0  0  0  0  0  0  0  0  0  0
    8.2935    8.8666   22.6338 O   0  0  0  0  0  0  0  0  0  0  0  0
   12.9085   12.7919   20.6276 O   0  0  0  0  0  0  0  0  0  0  0  0
   10.7845   14.3804   24.3729 O   0  0  0  0  0  0  0  0  0  0  0  0
    4.9332   10.8618   25.4312 H   0  0  0  0  0  0  0  0  0  0  0  0
    8.2274   13.5801   25.9379 H   0  0  0  0  0  0  0  0  0  0  0  0
   10.6987    9.7333   22.2275 H   0  0  0  0  0  0  0  0  0  0  0  0
    6.2744    9.4986   23.9204 H   0  0  0  0  0  0  0  0  0  0  0  0
   12.8309   16.8913   18.4026 H   0  0  0  0  0  0  0  0  0  0  0  0
   13.5923   15.6070   17.4677 H   0  0  0  0  0  0  0  0  0  0  0  0
   14.4564   14.5475   19.5037 H   0  0  0  0  0  0  0  0  0  0  0  0
   14.9426   16.2336   19.4644 H   0  0  0  0  0  0  0  0  0  0  0  0
   11.1464   15.2330   17.7464 H   0  0  0  0  0  0  0  0  0  0  0  0
   12.0928   13.9245   18.4346 H   0  0  0  0  0  0  0  0  0  0  0  0
   14.1330   15.5205   21.7152 H   0  0  0  0  0  0  0  0  0  0  0  0
   13.2532   16.8846   21.0288 H   0  0  0  0  0  0  0  0  0  0  0  0
   10.7275   16.2188   19.8861 H   0  0  0  0  0  0  0  0  0  0  0  0
   10.3036   14.5110   19.9819 H   0  0  0  0  0  0  0  0  0  0  0  0
    5.7456   12.7582   27.7302 H   0  0  0  0  0  0  0  0  0  0  0  0
    4.5885   13.0068   26.4038 H   0  0  0  0  0  0  0  0  0  0  0  0
    5.8977   14.1735   26.6655 H   0  0  0  0  0  0  0  0  0  0  0  0
   11.7460   17.3366   23.1486 H   0  0  0  0  0  0  0  0  0  0  0  0
   10.6570   17.2585   21.7223 H   0  0  0  0  0  0  0  0  0  0  0  0
   10.0751   16.7026   23.3282 H   0  0  0  0  0  0  0  0  0  0  0  0
   12.4407   11.2354   22.5433 H   0  0  0  0  0  0  0  0  0  0  0  0
   12.4886   11.9586   24.1764 H   0  0  0  0  0  0  0  0  0  0  0  0
  1  4  2  0  0  0  0
  1  5  1  0  0  0  0
  2  5  2  0  0  0  0
  2  7  1  0  0  0  0
  3  6  2  0  0  0  0
  3  8  1  0  0  0  0
  4 21  1  0  0  0  0
  5 17  1  0  0  0  0
  6 19  1  0  0  0  0
  6 20  1  0  0  0  0
  7 20  2  0  0  0  0
  7 21  1  0  0  0  0
  8 21  1  0  0  0  0
  8 24  2  0  0  0  0
  9 16  1  0  0  0  0
  9 22  1  0  0  0  0
  9 25  2  0  0  0  0
 10 22  1  0  0  0  0
 10 23  1  0  0  0  0
 10 26  2  0  0  0  0
 11 12  1  0  0  0  0
 11 13  1  0  0  0  0
 12 14  1  0  0  0  0
 13 15  1  0  0  0  0
 14 16  1  0  0  0  0
 15 16  1  0  0  0  0
 16 23  1  0  0  0  0
 18 23  1  0  0  0  0
 19 22  1  0  0  0  0
  1 27  1  0  0  0  0
  2 28  1  0  0  0  0
  3 29  1  0  0  0  0
  4 30  1  0  0  0  0
 11 31  1  0  0  0  0
 11 32  1  0  0  0  0
 12 33  1  0  0  0  0
 12 34  1  0  0  0  0
 13 35  1  0  0  0  0
 13 36  1  0  0  0  0
 14 37  1  0  0  0  0
 14 38  1  0  0  0  0
 15 39  1  0  0  0  0
 15 40  1  0  0  0  0
 17 41  1  0  0  0  0
 17 42  1  0  0  0  0
 17 43  1  0  0  0  0
 18 44  1  0  0  0  0
 18 45  1  0  0  0  0
 18 46  1  0  0  0  0
 19 47  1  0  0  0  0
 19 48  1  0  0  0  0
M  END
> <Catalog ID>
Z107222344

> <PlateID>
1041831-R-15

> <Well>
G11

> <MW (desalted)>
354.403

> <ClogP>
1.510

> <HBD>
0

> <TPSA>
73.290

> <RotBonds>
2

> <ROCS_ShapeQuery>
A71EV2A-x0451_0A_A71EV2A-x0310_0A_A71EV2A-x0416_0A_peptide

> <ROCS_TanimotoCombo>
0.513 

> <ROCS_ShapeTanimoto>
0.384 

> <ROCS_ColorTanimoto>
0.128 

> <ROCS_RefTversky>
0.338 

> <ROCS_RefColorTversky>
0.148 

> <ROCS_RefTverskyCombo>
0.486 

> <ROCS_FitTversky>
1.556 

> <ROCS_FitColorTversky>
0.492 

> <ROCS_FitTverskyCombo>
2.048 

> <ROCS_ColorScore>
-4.519

> <ROCS_Overlap>
2351.036

> <ROCS_Rank>
477                 

$$$$
untitled-dbase-64_1215
  -OEChem-11132311063D

 50 53  0     1  0  0  0  0  0999 V2000
   13.2117   14.4759   19.4803 C   0  0  0  0  0  0  0  0  0  0  0  0
   13.9315   15.4839   20.1187 C   0  0  0  0  0  0  0  0  0  0  0  0
   12.7831   15.0218   22.2169 C   0  0  0  0  0  0  0  0  0  0  0  0
    9.6830   10.5953   23.1805 C   0  0  0  0  0  0  0  0  0  0  0  0
    9.5936   11.9264   23.6346 C   0  0  0  0  0  0  0  0  0  0  0  0
   12.2888   13.7546   20.2225 C   0  0  0  0  0  0  0  0  0  0  0  0
   13.7217   15.7509   21.4780 C   0  0  0  0  0  0  0  0  0  0  0  0
   12.0536   14.0335   21.5740 C   0  0  0  0  0  0  0  0  0  0  0  0
    8.5007   11.9355   24.4711 C   0  0  0  0  0  0  0  0  0  0  0  0
   10.4497   13.0749   23.3101 C   0  0  0  0  0  0  0  0  0  0  0  0
    4.4178   12.4471   28.4720 C   0  0  0  0  0  0  0  0  0  0  0  0
   11.4054   12.6531   19.7305 C   0  0  0  0  0  0  0  0  0  0  0  0
    7.8444   13.0141   25.2602 C   0  0  0  0  0  0  0  0  0  0  0  0
    6.0552   11.3146   25.8044 C   0  0  0  0  0  0  0  0  0  0  0  0
    6.9083   10.1725   25.2495 C   0  0  0  0  0  0  0  0  0  0  0  0
   10.8260   12.1220   21.0424 C   0  0  0  0  0  0  0  0  0  0  0  0
    6.9405   12.4406   26.3681 C   0  0  2  0  0  0  0  0  0  0  0  0
   14.5106   16.8288   22.1462 C   0  0  0  0  0  0  0  0  0  0  0  0
    4.1255   12.1046   29.8951 C   0  0  0  0  0  0  0  0  0  0  0  0
    6.0884   13.5432   26.9920 C   0  0  0  0  0  0  0  0  0  0  0  0
    8.7258    9.8106   23.6842 N   0  0  0  0  0  0  0  0  0  0  0  0
    8.0197   10.6544   24.4565 N   0  0  0  0  0  0  0  0  0  0  0  0
   11.0755   13.1457   22.0720 N   0  0  0  0  0  0  0  0  0  0  0  0
    5.6184   13.1250   28.2698 N   0  0  0  0  0  0  0  0  0  0  0  0
   10.6151   13.8974   24.2128 O   0  0  0  0  0  0  0  0  0  0  0  0
    3.6216   12.1262   27.5974 O   0  0  0  0  0  0  0  0  0  0  0  0
   13.3696   14.2665   18.4279 H   0  0  0  0  0  0  0  0  0  0  0  0
   14.6547   16.0638   19.5514 H   0  0  0  0  0  0  0  0  0  0  0  0
   12.6519   15.2425   23.2714 H   0  0  0  0  0  0  0  0  0  0  0  0
   10.4061   10.1618   22.5039 H   0  0  0  0  0  0  0  0  0  0  0  0
   10.6204   13.0531   19.0854 H   0  0  0  0  0  0  0  0  0  0  0  0
   11.9777   11.8852   19.2072 H   0  0  0  0  0  0  0  0  0  0  0  0
    8.6030   13.6664   25.7092 H   0  0  0  0  0  0  0  0  0  0  0  0
    7.2523   13.6330   24.5738 H   0  0  0  0  0  0  0  0  0  0  0  0
    5.4193   11.7156   25.0042 H   0  0  0  0  0  0  0  0  0  0  0  0
    5.3852   10.9236   26.5788 H   0  0  0  0  0  0  0  0  0  0  0  0
    7.3409    9.5843   26.0667 H   0  0  0  0  0  0  0  0  0  0  0  0
    6.3024    9.5115   24.6210 H   0  0  0  0  0  0  0  0  0  0  0  0
    9.7521   11.9249   20.9605 H   0  0  0  0  0  0  0  0  0  0  0  0
   11.3226   11.1950   21.3505 H   0  0  0  0  0  0  0  0  0  0  0  0
    7.5771   12.0153   27.1563 H   0  0  0  0  0  0  0  0  0  0  0  0
   13.9849   17.7878   22.0697 H   0  0  0  0  0  0  0  0  0  0  0  0
   14.6717   16.6026   23.2077 H   0  0  0  0  0  0  0  0  0  0  0  0
   15.5024   16.9368   21.6893 H   0  0  0  0  0  0  0  0  0  0  0  0
    3.5603   12.8975   30.4110 H   0  0  0  0  0  0  0  0  0  0  0  0
    3.5076   11.1973   29.9909 H   0  0  0  0  0  0  0  0  0  0  0  0
    5.0093   11.9210   30.5268 H   0  0  0  0  0  0  0  0  0  0  0  0
    6.7196   14.4254   27.0856 H   0  0  0  0  0  0  0  0  0  0  0  0
    5.2536   13.7270   26.3177 H   0  0  0  0  0  0  0  0  0  0  0  0
    6.1977   13.3352   29.0894 H   0  0  0  0  0  0  0  0  0  0  0  0
  1  2  1  0  0  0  0
  1  6  2  0  0  0  0
  2  7  2  0  0  0  0
  3  7  1  0  0  0  0
  3  8  2  0  0  0  0
  4  5  1  0  0  0  0
  4 21  2  0  0  0  0
  5  9  2  0  0  0  0
  5 10  1  0  0  0  0
  6  8  1  0  0  0  0
  6 12  1  0  0  0  0
  7 18  1  0  0  0  0
  8 23  1  0  0  0  0
  9 13  1  0  0  0  0
  9 22  1  0  0  0  0
 10 23  1  0  0  0  0
 10 25  2  0  0  0  0
 11 19  1  0  0  0  0
 11 24  1  0  0  0  0
 11 26  2  0  0  0  0
 12 16  1  0  0  0  0
 13 17  1  0  0  0  0
 14 15  1  0  0  0  0
 14 17  1  0  0  0  0
 15 22  1  0  0  0  0
 16 23  1  0  0  0  0
 17 20  1  0  0  0  0
 20 24  1  0  0  0  0
 21 22  1  0  0  0  0
  1 27  1  0  0  0  0
  2 28  1  0  0  0  0
  3 29  1  0  0  0  0
  4 30  1  0  0  0  0
 12 31  1  0  0  0  0
 12 32  1  0  0  0  0
 13 33  1  0  0  0  0
 13 34  1  0  0  0  0
 14 35  1  0  0  0  0
 14 36  1  0  0  0  0
 15 37  1  0  0  0  0
 15 38  1  0  0  0  0
 16 39  1  0  0  0  0
 16 40  1  0  0  0  0
 17 41  1  0  0  0  0
 18 42  1  0  0  0  0
 18 43  1  0  0  0  0
 18 44  1  0  0  0  0
 19 45  1  0  0  0  0
 19 46  1  0  0  0  0
 19 47  1  0  0  0  0
 20 48  1  0  0  0  0
 20 49  1  0  0  0  0
 24 50  1  0  0  0  0
M  END
> <Catalog ID>
Z1849711592

> <PlateID>
1041831-R-01

> <Well>
G05

> <MW (desalted)>
352.430

> <ClogP>
0.594

> <HBD>
1

> <TPSA>
67.230

> <RotBonds>
3

> <ROCS_ShapeQuery>
A71EV2A-x0451_0A_A71EV2A-x0310_0A_A71EV2A-x0416_0A_peptide

> <ROCS_TanimotoCombo>
0.513 

> <ROCS_ShapeTanimoto>
0.345 

> <ROCS_ColorTanimoto>
0.168 

> <ROCS_RefTversky>
0.311 

> <ROCS_RefColorTversky>
0.187 

> <ROCS_RefTverskyCombo>
0.499 

> <ROCS_FitTversky>
1.450 

> <ROCS_FitColorTversky>
0.620 

> <ROCS_FitTverskyCombo>
2.070 

> <ROCS_ColorScore>
-5.716

> <ROCS_Overlap>
2166.357

> <ROCS_Rank>
478                 

$$$$
untitled-dbase-34_4592
  -OEChem-11132311063D

 53 56  0     1  0  0  0  0  0999 V2000
   12.4772   17.3809   23.0261 C   0  0  0  0  0  0  0  0  0  0  0  0
   12.8281   17.7242   21.7202 C   0  0  0  0  0  0  0  0  0  0  0  0
   13.3578   17.0601   19.4221 C   0  0  0  0  0  0  0  0  0  0  0  0
    6.9664   12.8388   25.0758 C   0  0  0  0  0  0  0  0  0  0  0  0
   12.2983   16.0445   23.3711 C   0  0  0  0  0  0  0  0  0  0  0  0
   13.5292   16.0620   18.4625 C   0  0  0  0  0  0  0  0  0  0  0  0
    5.8084   13.1152   25.7941 C   0  0  0  0  0  0  0  0  0  0  0  0
   12.9994   14.3822   20.1134 C   0  0  0  0  0  0  0  0  0  0  0  0
    7.0447   10.7050   26.1235 C   0  0  0  0  0  0  0  0  0  0  0  0
   13.0047   16.7327   20.7414 C   0  0  0  0  0  0  0  0  0  0  0  0
   12.8228   15.3737   21.0922 C   0  0  0  0  0  0  0  0  0  0  0  0
    7.6024   11.6130   25.2379 C   0  0  0  0  0  0  0  0  0  0  0  0
   12.4696   15.0464   22.4115 C   0  0  0  0  0  0  0  0  0  0  0  0
   13.3503   14.7256   18.8075 C   0  0  0  0  0  0  0  0  0  0  0  0
    5.3309   12.1399   26.6547 C   0  0  0  0  0  0  0  0  0  0  0  0
   10.8767   13.3652   23.4184 C   0  0  0  0  0  0  0  0  0  0  0  0
    8.4571   10.7718   22.1804 C   0  0  0  0  0  0  0  0  0  0  0  0
    9.0299    9.5633   22.8864 C   0  0  0  0  0  0  0  0  0  0  0  0
    8.8663   11.2810   24.4694 C   0  0  2  0  0  0  0  0  0  0  0  0
    8.8885   11.9140   23.0749 C   0  0  1  0  0  0  0  0  0  0  0  0
   13.8761   14.1748   16.5546 C   0  0  0  0  0  0  0  0  0  0  0  0
    3.7437   11.3548   28.2422 C   0  0  0  0  0  0  0  0  0  0  0  0
   12.2613   13.6298   22.8500 C   0  0  0  0  0  0  0  0  0  0  0  0
    5.9213   10.9377   26.8386 N   0  0  0  0  0  0  0  0  0  0  0  0
   10.2199   12.3571   22.7270 N   0  0  0  0  0  0  0  0  0  0  0  0
   10.4146   13.9781   24.3774 O   0  0  0  0  0  0  0  0  0  0  0  0
    8.9961    9.8563   24.2892 O   0  0  0  0  0  0  0  0  0  0  0  0
   13.5178   13.7533   17.8696 O   0  0  0  0  0  0  0  0  0  0  0  0
    4.1912   12.3888   27.3737 O   0  0  0  0  0  0  0  0  0  0  0  0
   12.3425   18.1578   23.7730 H   0  0  0  0  0  0  0  0  0  0  0  0
   12.9627   18.7752   21.4732 H   0  0  0  0  0  0  0  0  0  0  0  0
   13.5022   18.0983   19.1308 H   0  0  0  0  0  0  0  0  0  0  0  0
    7.3658   13.5833   24.3927 H   0  0  0  0  0  0  0  0  0  0  0  0
   12.0253   15.7894   24.3917 H   0  0  0  0  0  0  0  0  0  0  0  0
   13.8020   16.3355   17.4467 H   0  0  0  0  0  0  0  0  0  0  0  0
    5.3006   14.0665   25.6789 H   0  0  0  0  0  0  0  0  0  0  0  0
   12.8674   13.3287   20.3504 H   0  0  0  0  0  0  0  0  0  0  0  0
    7.4968    9.7324   26.2912 H   0  0  0  0  0  0  0  0  0  0  0  0
    8.9160   10.8668   21.1837 H   0  0  0  0  0  0  0  0  0  0  0  0
    7.3693   10.7062   22.0438 H   0  0  0  0  0  0  0  0  0  0  0  0
    8.4150    8.6732   22.7138 H   0  0  0  0  0  0  0  0  0  0  0  0
   10.0566    9.3441   22.5801 H   0  0  0  0  0  0  0  0  0  0  0  0
    9.7333   11.6101   25.0753 H   0  0  0  0  0  0  0  0  0  0  0  0
    8.2233   12.7504   22.9865 H   0  0  0  0  0  0  0  0  0  0  0  0
   13.9779   13.3011   15.9062 H   0  0  0  0  0  0  0  0  0  0  0  0
   14.8191   14.7260   16.5919 H   0  0  0  0  0  0  0  0  0  0  0  0
   13.0908   14.8262   16.1637 H   0  0  0  0  0  0  0  0  0  0  0  0
    2.8329   11.6761   28.7534 H   0  0  0  0  0  0  0  0  0  0  0  0
    4.5241   11.1286   28.9732 H   0  0  0  0  0  0  0  0  0  0  0  0
    3.5310   10.4611   27.6509 H   0  0  0  0  0  0  0  0  0  0  0  0
   12.4261   12.9462   22.0038 H   0  0  0  0  0  0  0  0  0  0  0  0
   13.0049   13.3562   23.6134 H   0  0  0  0  0  0  0  0  0  0  0  0
   10.6933   11.9131   21.9456 H   0  0  0  0  0  0  0  0  0  0  0  0
  1  2  1  0  0  0  0
  1  5  2  0  0  0  0
  2 10  2  0  0  0  0
  3  6  2  0  0  0  0
  3 10  1  0  0  0  0
  4  7  1  0  0  0  0
  4 12  2  0  0  0  0
  5 13  1  0  0  0  0
  6 14  1  0  0  0  0
  7 15  2  0  0  0  0
  8 11  1  0  0  0  0
  8 14  2  0  0  0  0
  9 12  1  0  0  0  0
  9 24  2  0  0  0  0
 10 11  1  0  0  0  0
 11 13  2  0  0  0  0
 12 19  1  1  0  0  0
 13 23  1  0  0  0  0
 14 28  1  0  0  0  0
 15 24  1  0  0  0  0
 15 29  1  0  0  0  0
 16 23  1  0  0  0  0
 16 25  1  0  0  0  0
 16 26  2  0  0  0  0
 17 18  1  0  0  0  0
 17 20  1  0  0  0  0
 18 27  1  0  0  0  0
 19 20  1  0  0  0  0
 19 27  1  0  0  0  0
 20 25  1  6  0  0  0
 21 28  1  0  0  0  0
 22 29  1  0  0  0  0
  1 30  1  0  0  0  0
  2 31  1  0  0  0  0
  3 32  1  0  0  0  0
  4 33  1  0  0  0  0
  5 34  1  0  0  0  0
  6 35  1  0  0  0  0
  7 36  1  0  0  0  0
  8 37  1  0  0  0  0
  9 38  1  0  0  0  0
 17 39  1  0  0  0  0
 17 40  1  0  0  0  0
 18 41  1  0  0  0  0
 18 42  1  0  0  0  0
 19 43  1  0  0  0  0
 20 44  1  0  0  0  0
 21 45  1  0  0  0  0
 21 46  1  0  0  0  0
 21 47  1  0  0  0  0
 22 48  1  0  0  0  0
 22 49  1  0  0  0  0
 22 50  1  0  0  0  0
 23 51  1  0  0  0  0
 23 52  1  0  0  0  0
 25 53  1  0  0  0  0
M  END
> <Catalog ID>
Z1756637677

> <PlateID>
1041831-R-01

> <Well>
D05

> <MW (desalted)>
392.448

> <ClogP>
2.847

> <HBD>
1

> <TPSA>
69.680

> <RotBonds>
6

> <ROCS_ShapeQuery>
A71EV2A-x0451_0A_A71EV2A-x0310_0A_A71EV2A-x0416_0A_peptide

> <ROCS_TanimotoCombo>
0.513 

> <ROCS_ShapeTanimoto>
0.342 

> <ROCS_ColorTanimoto>
0.171 

> <ROCS_RefTversky>
0.314 

> <ROCS_RefColorTversky>
0.199 

> <ROCS_RefTverskyCombo>
0.513 

> <ROCS_FitTversky>
1.347 

> <ROCS_FitColorTversky>
0.549 

> <ROCS_FitTverskyCombo>
1.896 

> <ROCS_ColorScore>
-6.097

> <ROCS_Overlap>
2185.934

> <ROCS_Rank>
479                 

$$$$
untitled-dbase-1081_5010
  -OEChem-11132311063D

 48 51  0     0  0  0  0  0  0999 V2000
    7.0783   12.8127   26.3757 C   0  0  0  0  0  0  0  0  0  0  0  0
    8.1834   12.9752   25.5342 C   0  0  0  0  0  0  0  0  0  0  0  0
    6.7304   10.5546   25.5587 C   0  0  0  0  0  0  0  0  0  0  0  0
    5.1618   10.4982   28.2396 C   0  0  0  0  0  0  0  0  0  0  0  0
    6.3563   11.6113   26.3882 C   0  0  0  0  0  0  0  0  0  0  0  0
    7.8274   10.7239   24.7276 C   0  0  0  0  0  0  0  0  0  0  0  0
    8.5488   11.9193   24.7120 C   0  0  0  0  0  0  0  0  0  0  0  0
    5.2247   11.4684   27.2613 C   0  0  0  0  0  0  0  0  0  0  0  0
    3.2475   11.9515   28.0781 C   0  0  0  0  0  0  0  0  0  0  0  0
   10.5306   12.8310   23.5064 C   0  0  0  0  0  0  0  0  0  0  0  0
    8.3910    9.7263   23.7696 C   0  0  0  0  0  0  0  0  0  0  0  0
    9.8308   14.6495   19.9209 C   0  0  0  0  0  0  0  0  0  0  0  0
   12.0680   15.6507   20.5009 C   0  0  0  0  0  0  0  0  0  0  0  0
    9.5709   10.4921   23.1614 C   0  0  0  0  0  0  0  0  0  0  0  0
   10.0014   13.6984   21.1096 C   0  0  0  0  0  0  0  0  0  0  0  0
   12.1548   14.6617   21.6677 C   0  0  0  0  0  0  0  0  0  0  0  0
   10.6248   15.9432   20.0939 C   0  0  0  0  0  0  0  0  0  0  0  0
    1.9427   12.6171   28.2816 C   0  0  0  0  0  0  0  0  0  0  0  0
   11.5646   12.4676   22.4670 C   0  0  0  0  0  0  0  0  0  0  0  0
    4.1278   12.3024   27.1670 N   0  0  0  0  0  0  0  0  0  0  0  0
    9.6087   11.8314   23.7855 N   0  0  0  0  0  0  0  0  0  0  0  0
   11.4209   13.4244   21.3698 N   0  0  0  0  0  0  0  0  0  0  0  0
   10.5641   13.9472   24.0249 O   0  0  0  0  0  0  0  0  0  0  0  0
    9.9993   16.7771   21.0665 O   0  0  0  0  0  0  0  0  0  0  0  0
    3.6740   10.6273   29.0829 S   0  0  0  0  0  0  0  0  0  0  0  0
    6.7879   13.6375   27.0236 H   0  0  0  0  0  0  0  0  0  0  0  0
    8.7185   13.9166   25.5513 H   0  0  0  0  0  0  0  0  0  0  0  0
    6.1824    9.6167   25.5560 H   0  0  0  0  0  0  0  0  0  0  0  0
    5.8893    9.7414   28.4985 H   0  0  0  0  0  0  0  0  0  0  0  0
    8.7307    8.8285   24.2948 H   0  0  0  0  0  0  0  0  0  0  0  0
    7.6554    9.4603   23.0044 H   0  0  0  0  0  0  0  0  0  0  0  0
   10.1396   14.1478   18.9912 H   0  0  0  0  0  0  0  0  0  0  0  0
    8.7635   14.8853   19.7798 H   0  0  0  0  0  0  0  0  0  0  0  0
   12.5762   16.5917   20.7683 H   0  0  0  0  0  0  0  0  0  0  0  0
   12.6248   15.2587   19.6362 H   0  0  0  0  0  0  0  0  0  0  0  0
   10.5208    9.9810   23.3535 H   0  0  0  0  0  0  0  0  0  0  0  0
    9.4582   10.6051   22.0775 H   0  0  0  0  0  0  0  0  0  0  0  0
    9.5510   14.1708   21.9867 H   0  0  0  0  0  0  0  0  0  0  0  0
    9.4566   12.7697   20.9141 H   0  0  0  0  0  0  0  0  0  0  0  0
   13.2055   14.4467   21.8855 H   0  0  0  0  0  0  0  0  0  0  0  0
   11.7218   15.1422   22.5494 H   0  0  0  0  0  0  0  0  0  0  0  0
   10.6215   16.5005   19.1350 H   0  0  0  0  0  0  0  0  0  0  0  0
    1.1597   12.1468   27.6663 H   0  0  0  0  0  0  0  0  0  0  0  0
    1.6177   12.5714   29.3340 H   0  0  0  0  0  0  0  0  0  0  0  0
    1.9816   13.6870   28.0186 H   0  0  0  0  0  0  0  0  0  0  0  0
   11.3665   11.4535   22.1359 H   0  0  0  0  0  0  0  0  0  0  0  0
   12.5444   12.5386   22.9281 H   0  0  0  0  0  0  0  0  0  0  0  0
    9.1060   16.9678   20.7381 H   0  0  0  0  0  0  0  0  0  0  0  0
  1  2  1  0  0  0  0
  1  5  2  0  0  0  0
  2  7  2  0  0  0  0
  3  5  1  0  0  0  0
  3  6  2  0  0  0  0
  4  8  2  0  0  0  0
  4 25  1  0  0  0  0
  5  8  1  0  0  0  0
  6  7  1  0  0  0  0
  6 11  1  0  0  0  0
  7 21  1  0  0  0  0
  8 20  1  0  0  0  0
  9 18  1  0  0  0  0
  9 20  2  0  0  0  0
  9 25  1  0  0  0  0
 10 19  1  0  0  0  0
 10 21  1  0  0  0  0
 10 23  2  0  0  0  0
 11 14  1  0  0  0  0
 12 15  1  0  0  0  0
 12 17  1  0  0  0  0
 13 16  1  0  0  0  0
 13 17  1  0  0  0  0
 14 21  1  0  0  0  0
 15 22  1  0  0  0  0
 16 22  1  0  0  0  0
 17 24  1  0  0  0  0
 19 22  1  0  0  0  0
  1 26  1  0  0  0  0
  2 27  1  0  0  0  0
  3 28  1  0  0  0  0
  4 29  1  0  0  0  0
 11 30  1  0  0  0  0
 11 31  1  0  0  0  0
 12 32  1  0  0  0  0
 12 33  1  0  0  0  0
 13 34  1  0  0  0  0
 13 35  1  0  0  0  0
 14 36  1  0  0  0  0
 14 37  1  0  0  0  0
 15 38  1  0  0  0  0
 15 39  1  0  0  0  0
 16 40  1  0  0  0  0
 16 41  1  0  0  0  0
 17 42  1  0  0  0  0
 18 43  1  0  0  0  0
 18 44  1  0  0  0  0
 18 45  1  0  0  0  0
 19 46  1  0  0  0  0
 19 47  1  0  0  0  0
 24 48  1  0  0  0  0
M  END
> <Catalog ID>
Z195643088

> <PlateID>
1041831-R-14

> <Well>
E02

> <MW (desalted)>
357.470

> <ClogP>
1.820

> <HBD>
1

> <TPSA>
56.670

> <RotBonds>
3

> <ROCS_ShapeQuery>
A71EV2A-x0451_0A_A71EV2A-x0310_0A_A71EV2A-x0416_0A_peptide

> <ROCS_TanimotoCombo>
0.513 

> <ROCS_ShapeTanimoto>
0.334 

> <ROCS_ColorTanimoto>
0.179 

> <ROCS_RefTversky>
0.302 

> <ROCS_RefColorTversky>
0.202 

> <ROCS_RefTverskyCombo>
0.504 

> <ROCS_FitTversky>
1.467 

> <ROCS_FitColorTversky>
0.609 

> <ROCS_FitTverskyCombo>
2.076 

> <ROCS_ColorScore>
-6.181

> <ROCS_Overlap>
2097.476

> <ROCS_Rank>
480                 

$$$$
untitled-dbase-2747_662
  -OEChem-11132311063D

 50 52  0     1  0  0  0  0  0999 V2000
    9.4095   10.1894   23.2799 C   0  0  0  0  0  0  0  0  0  0  0  0
    8.4454   12.1999   24.2101 C   0  0  0  0  0  0  0  0  0  0  0  0
    7.4602   10.0490   24.7003 C   0  0  0  0  0  0  0  0  0  0  0  0
    9.4165   11.5765   23.4265 C   0  0  0  0  0  0  0  0  0  0  0  0
    8.4313    9.4256   23.9167 C   0  0  0  0  0  0  0  0  0  0  0  0
    7.4672   11.4361   24.8470 C   0  0  0  0  0  0  0  0  0  0  0  0
   10.9493   13.5627   23.2030 C   0  0  0  0  0  0  0  0  0  0  0  0
   14.3573   15.3484   18.7000 C   0  0  0  0  0  0  0  0  0  0  0  0
   14.3504   16.8386   19.0299 C   0  0  0  0  0  0  0  0  0  0  0  0
   13.6146   14.5330   19.7592 C   0  0  0  0  0  0  0  0  0  0  0  0
   12.9342   17.3612   19.2441 C   0  0  0  0  0  0  0  0  0  0  0  0
   10.0315   14.8572   21.0266 C   0  0  0  0  0  0  0  0  0  0  0  0
   10.0765   16.3490   21.3476 C   0  0  0  0  0  0  0  0  0  0  0  0
   12.1795   15.0517   19.9537 C   0  0  2  0  0  0  0  0  0  0  0  0
   12.1838   16.5537   20.3060 C   0  0  2  0  0  0  0  0  0  0  0  0
    9.4461    7.4996   22.9594 C   0  0  0  0  0  0  0  0  0  0  0  0
    6.5847   13.4657   25.7175 C   0  0  0  0  0  0  0  0  0  0  0  0
   11.9880   14.0545   22.2136 C   0  0  0  0  0  0  0  0  0  0  0  0
   11.3710   14.2584   20.9045 N   0  0  1  0  0  0  0  0  0  0  0  0
   10.4089   12.3511   22.7801 N   0  0  0  0  0  0  0  0  0  0  0  0
   10.6731   14.1842   24.2241 O   0  0  0  0  0  0  0  0  0  0  0  0
   10.8414   17.0470   20.3653 O   0  0  0  0  0  0  0  0  0  0  0  0
    8.4243    8.0719   23.7742 O   0  0  0  0  0  0  0  0  0  0  0  0
    6.5191   12.0444   25.6110 O   0  0  0  0  0  0  0  0  0  0  0  0
   10.1646    9.6985   22.6702 H   0  0  0  0  0  0  0  0  0  0  0  0
    8.4461   13.2811   24.3269 H   0  0  0  0  0  0  0  0  0  0  0  0
    6.6975    9.4541   25.1965 H   0  0  0  0  0  0  0  0  0  0  0  0
   13.8856   15.1909   17.7246 H   0  0  0  0  0  0  0  0  0  0  0  0
   15.3892   14.9950   18.6204 H   0  0  0  0  0  0  0  0  0  0  0  0
   14.9451   17.0140   19.9355 H   0  0  0  0  0  0  0  0  0  0  0  0
   14.8328   17.3983   18.2197 H   0  0  0  0  0  0  0  0  0  0  0  0
   13.6127   13.4890   19.4348 H   0  0  0  0  0  0  0  0  0  0  0  0
   14.1638   14.5811   20.7056 H   0  0  0  0  0  0  0  0  0  0  0  0
   12.9656   18.4191   19.5372 H   0  0  0  0  0  0  0  0  0  0  0  0
   12.3768   17.3359   18.2966 H   0  0  0  0  0  0  0  0  0  0  0  0
    9.4599   14.3488   21.8250 H   0  0  0  0  0  0  0  0  0  0  0  0
    9.4649   14.7072   20.0869 H   0  0  0  0  0  0  0  0  0  0  0  0
    9.0628   16.7627   21.3359 H   0  0  0  0  0  0  0  0  0  0  0  0
   10.4976   16.5354   22.3433 H   0  0  0  0  0  0  0  0  0  0  0  0
   11.6691   14.9518   18.9380 H   0  0  0  0  0  0  0  0  0  0  0  0
   12.6653   16.7224   21.2752 H   0  0  0  0  0  0  0  0  0  0  0  0
    9.3247    6.4140   22.9303 H   0  0  0  0  0  0  0  0  0  0  0  0
   10.4264    7.7565   23.3688 H   0  0  0  0  0  0  0  0  0  0  0  0
    9.3598    7.9008   21.9469 H   0  0  0  0  0  0  0  0  0  0  0  0
    5.7716   13.8220   26.3547 H   0  0  0  0  0  0  0  0  0  0  0  0
    6.5038   13.9106   24.7225 H   0  0  0  0  0  0  0  0  0  0  0  0
    7.5426   13.7450   26.1626 H   0  0  0  0  0  0  0  0  0  0  0  0
   12.7941   13.3192   22.1275 H   0  0  0  0  0  0  0  0  0  0  0  0
   12.4076   14.9976   22.5775 H   0  0  0  0  0  0  0  0  0  0  0  0
   10.7595   11.9658   21.9057 H   0  0  0  0  0  0  0  0  0  0  0  0
  1  4  1  0  0  0  0
  1  5  2  0  0  0  0
  2  4  2  0  0  0  0
  2  6  1  0  0  0  0
  3  5  1  0  0  0  0
  3  6  2  0  0  0  0
  4 20  1  0  0  0  0
  5 23  1  0  0  0  0
  6 24  1  0  0  0  0
  7 18  1  0  0  0  0
  7 20  1  0  0  0  0
  7 21  2  0  0  0  0
  8  9  1  0  0  0  0
  8 10  1  0  0  0  0
  9 11  1  0  0  0  0
 10 14  1  0  0  0  0
 11 15  1  0  0  0  0
 12 13  1  0  0  0  0
 12 19  1  0  0  0  0
 13 22  1  0  0  0  0
 14 15  1  0  0  0  0
 14 19  1  0  0  0  0
 15 22  1  0  0  0  0
 16 23  1  0  0  0  0
 17 24  1  0  0  0  0
 18 19  1  0  0  0  0
  1 25  1  0  0  0  0
  2 26  1  0  0  0  0
  3 27  1  0  0  0  0
  8 28  1  0  0  0  0
  8 29  1  0  0  0  0
  9 30  1  0  0  0  0
  9 31  1  0  0  0  0
 10 32  1  0  0  0  0
 10 33  1  0  0  0  0
 11 34  1  0  0  0  0
 11 35  1  0  0  0  0
 12 36  1  0  0  0  0
 12 37  1  0  0  0  0
 13 38  1  0  0  0  0
 13 39  1  0  0  0  0
 14 40  1  0  0  0  0
 15 41  1  0  0  0  0
 16 42  1  0  0  0  0
 16 43  1  0  0  0  0
 16 44  1  0  0  0  0
 17 45  1  0  0  0  0
 17 46  1  0  0  0  0
 17 47  1  0  0  0  0
 18 48  1  0  0  0  0
 18 49  1  0  0  0  0
 20 50  1  0  0  0  0
M  END
> <Catalog ID>
Z840180112

> <PlateID>
1041831-R-35

> <Well>
C08

> <MW (desalted)>
334.410

> <ClogP>
2.824

> <HBD>
1

> <TPSA>
60.030

> <RotBonds>
5

> <ROCS_ShapeQuery>
A71EV2A-x0451_0A_A71EV2A-x0310_0A_A71EV2A-x0416_0A_peptide

> <ROCS_TanimotoCombo>
0.513 

> <ROCS_ShapeTanimoto>
0.358 

> <ROCS_ColorTanimoto>
0.155 

> <ROCS_RefTversky>
0.316 

> <ROCS_RefColorTversky>
0.179 

> <ROCS_RefTverskyCombo>
0.494 

> <ROCS_FitTversky>
1.596 

> <ROCS_FitColorTversky>
0.538 

> <ROCS_FitTverskyCombo>
2.134 

> <ROCS_ColorScore>
-5.458

> <ROCS_Overlap>
2193.801

> <ROCS_Rank>
481                 

$$$$
untitled-dbase-2269_8616
  -OEChem-11132311063D

 47 50  0     0  0  0  0  0  0999 V2000
    9.6738    6.4202   21.5315 C   0  0  0  0  0  0  0  0  0  0  0  0
    8.7668    7.3305   22.1249 C   0  0  0  0  0  0  0  0  0  0  0  0
    9.9856   10.7787   22.9656 C   0  0  0  0  0  0  0  0  0  0  0  0
    7.8828   12.8304   25.3440 C   0  0  0  0  0  0  0  0  0  0  0  0
   10.9161    7.0030   21.6251 C   0  0  0  0  0  0  0  0  0  0  0  0
    8.5668   11.9384   24.4943 C   0  0  0  0  0  0  0  0  0  0  0  0
    9.6639   11.9655   23.6243 C   0  0  0  0  0  0  0  0  0  0  0  0
    9.2128    9.6468   23.2026 C   0  0  0  0  0  0  0  0  0  0  0  0
    9.5197    8.4046   22.5390 C   0  0  0  0  0  0  0  0  0  0  0  0
    7.8820   10.7420   24.6391 C   0  0  0  0  0  0  0  0  0  0  0  0
   10.4370   13.1745   23.4110 C   0  0  0  0  0  0  0  0  0  0  0  0
   13.2781   16.0002   20.4879 C   0  0  0  0  0  0  0  0  0  0  0  0
   12.3299   15.1999   19.6461 C   0  0  0  0  0  0  0  0  0  0  0  0
   12.0918   15.3260   21.1299 C   0  0  0  0  0  0  0  0  0  0  0  0
    6.5258    8.8947   26.7799 C   0  0  0  0  0  0  0  0  0  0  0  0
    4.9950    9.5394   24.8701 C   0  0  0  0  0  0  0  0  0  0  0  0
   10.5156   12.8316   20.9281 C   0  0  0  0  0  0  0  0  0  0  0  0
   12.2913   14.1510   22.0256 C   0  0  0  0  0  0  0  0  0  0  0  0
    5.8901   10.0483   26.0016 C   0  0  0  0  0  0  0  0  0  0  0  0
    6.8530   12.2574   25.9758 N   0  0  0  0  0  0  0  0  0  0  0  0
    8.1447    9.5709   24.0332 N   0  0  0  0  0  0  0  0  0  0  0  0
    6.8776   10.9891   25.5277 N   0  0  0  0  0  0  0  0  0  0  0  0
   11.0590   13.3780   22.1636 N   0  0  0  0  0  0  0  0  0  0  0  0
   10.4967   13.9803   24.3513 O   0  0  0  0  0  0  0  0  0  0  0  0
   10.8309    8.2128   22.2381 O   0  0  0  0  0  0  0  0  0  0  0  0
    9.4497    5.4596   21.0907 H   0  0  0  0  0  0  0  0  0  0  0  0
    7.6979    7.2130   22.2345 H   0  0  0  0  0  0  0  0  0  0  0  0
   10.8278   10.7450   22.2792 H   0  0  0  0  0  0  0  0  0  0  0  0
    8.0884   13.8751   25.5302 H   0  0  0  0  0  0  0  0  0  0  0  0
   11.9079    6.7024   21.3204 H   0  0  0  0  0  0  0  0  0  0  0  0
   14.2650   15.5895   20.6623 H   0  0  0  0  0  0  0  0  0  0  0  0
   13.2525   17.0787   20.3904 H   0  0  0  0  0  0  0  0  0  0  0  0
   11.6648   15.7392   18.9830 H   0  0  0  0  0  0  0  0  0  0  0  0
   12.6788   14.2513   19.2573 H   0  0  0  0  0  0  0  0  0  0  0  0
   11.2724   15.9543   21.4566 H   0  0  0  0  0  0  0  0  0  0  0  0
    7.1883    8.2924   26.1493 H   0  0  0  0  0  0  0  0  0  0  0  0
    5.7534    8.2300   27.1813 H   0  0  0  0  0  0  0  0  0  0  0  0
    7.1175    9.2710   27.6217 H   0  0  0  0  0  0  0  0  0  0  0  0
    5.5796    8.9799   24.1315 H   0  0  0  0  0  0  0  0  0  0  0  0
    4.5135   10.3771   24.3544 H   0  0  0  0  0  0  0  0  0  0  0  0
    4.2046    8.8778   25.2403 H   0  0  0  0  0  0  0  0  0  0  0  0
    9.8214   13.5576   20.4796 H   0  0  0  0  0  0  0  0  0  0  0  0
   11.3367   12.6273   20.2253 H   0  0  0  0  0  0  0  0  0  0  0  0
    9.9782   11.8969   21.1458 H   0  0  0  0  0  0  0  0  0  0  0  0
   13.0746   13.5054   21.6019 H   0  0  0  0  0  0  0  0  0  0  0  0
   12.6058   14.5057   23.0183 H   0  0  0  0  0  0  0  0  0  0  0  0
    5.2468   10.5963   26.7022 H   0  0  0  0  0  0  0  0  0  0  0  0
  1  2  1  0  0  0  0
  1  5  2  0  0  0  0
  2  9  2  0  0  0  0
  3  7  1  0  0  0  0
  3  8  2  0  0  0  0
  4  6  1  0  0  0  0
  4 20  2  0  0  0  0
  5 25  1  0  0  0  0
  6  7  2  0  0  0  0
  6 10  1  0  0  0  0
  7 11  1  0  0  0  0
  8  9  1  0  0  0  0
  8 21  1  0  0  0  0
  9 25  1  0  0  0  0
 10 21  2  0  0  0  0
 10 22  1  0  0  0  0
 11 23  1  0  0  0  0
 11 24  2  0  0  0  0
 12 13  1  0  0  0  0
 12 14  1  0  0  0  0
 13 14  1  0  0  0  0
 14 18  1  0  0  0  0
 15 19  1  0  0  0  0
 16 19  1  0  0  0  0
 17 23  1  0  0  0  0
 18 23  1  0  0  0  0
 19 22  1  0  0  0  0
 20 22  1  0  0  0  0
  1 26  1  0  0  0  0
  2 27  1  0  0  0  0
  3 28  1  0  0  0  0
  4 29  1  0  0  0  0
  5 30  1  0  0  0  0
 12 31  1  0  0  0  0
 12 32  1  0  0  0  0
 13 33  1  0  0  0  0
 13 34  1  0  0  0  0
 14 35  1  0  0  0  0
 15 36  1  0  0  0  0
 15 37  1  0  0  0  0
 15 38  1  0  0  0  0
 16 39  1  0  0  0  0
 16 40  1  0  0  0  0
 16 41  1  0  0  0  0
 17 42  1  0  0  0  0
 17 43  1  0  0  0  0
 17 44  1  0  0  0  0
 18 45  1  0  0  0  0
 18 46  1  0  0  0  0
 19 47  1  0  0  0  0
M  END
> <Catalog ID>
Z599757528

> <PlateID>
1041831-R-29

> <Well>
C10

> <MW (desalted)>
338.404

> <ClogP>
2.616

> <HBD>
0

> <TPSA>
64.160

> <RotBonds>
5

> <ROCS_ShapeQuery>
A71EV2A-x0451_0A_A71EV2A-x0310_0A_A71EV2A-x0416_0A_peptide

> <ROCS_TanimotoCombo>
0.513 

> <ROCS_ShapeTanimoto>
0.361 

> <ROCS_ColorTanimoto>
0.152 

> <ROCS_RefTversky>
0.321 

> <ROCS_RefColorTversky>
0.172 

> <ROCS_RefTverskyCombo>
0.492 

> <ROCS_FitTversky>
1.526 

> <ROCS_FitColorTversky>
0.570 

> <ROCS_FitTverskyCombo>
2.095 

> <ROCS_ColorScore>
-5.244

> <ROCS_Overlap>
2229.960

> <ROCS_Rank>
482                 

$$$$
untitled-dbase-751_6660
  -OEChem-11132311063D

 47 49  0     1  0  0  0  0  0999 V2000
    7.7535   12.6239   24.3275 C   0  0  0  0  0  0  0  0  0  0  0  0
    6.7902   12.6974   25.3403 C   0  0  0  0  0  0  0  0  0  0  0  0
    7.0220   10.3240   25.8066 C   0  0  0  0  0  0  0  0  0  0  0  0
    9.5465    9.6051   23.3113 C   0  0  0  0  0  0  0  0  0  0  0  0
    8.3623   11.3846   24.0468 C   0  0  0  0  0  0  0  0  0  0  0  0
    9.3491   10.9528   23.1168 C   0  0  0  0  0  0  0  0  0  0  0  0
    7.9833   10.2655   24.7913 C   0  0  0  0  0  0  0  0  0  0  0  0
    6.4317   11.5640   26.0672 C   0  0  0  0  0  0  0  0  0  0  0  0
   15.2006   12.8081   27.0928 C   0  0  0  0  0  0  0  0  0  0  0  0
   12.1264   12.5061   23.2869 C   0  0  0  0  0  0  0  0  0  0  0  0
   11.3954   15.3191   22.1712 C   0  0  0  0  0  0  0  0  0  0  0  0
   11.3868   13.4000   25.5321 C   0  0  0  0  0  0  0  0  0  0  0  0
   13.5983   12.3170   25.2656 C   0  0  0  0  0  0  0  0  0  0  0  0
   11.7161   13.1253   26.9927 C   0  0  0  0  0  0  0  0  0  0  0  0
   14.0190   13.3168   26.3353 C   0  0  1  0  0  0  0  0  0  0  0  0
   11.7637   16.2165   21.0366 C   0  0  0  0  0  0  0  0  0  0  0  0
   10.0574   11.8095   22.0963 C   0  0  0  0  0  0  0  0  0  0  0  0
   10.7996   12.9731   22.7401 C   0  0  2  0  0  0  0  0  0  0  0  0
    8.7182    9.1996   24.3232 N   0  0  0  0  0  0  0  0  0  0  0  0
   12.3462   12.7400   24.6430 N   0  0  0  0  0  0  0  0  0  0  0  0
   11.1636   14.0001   21.8072 N   0  0  0  0  0  0  0  0  0  0  0  0
   15.1447   12.1083   28.0931 O   0  0  0  0  0  0  0  0  0  0  0  0
   12.9346   11.9505   22.5396 O   0  0  0  0  0  0  0  0  0  0  0  0
   11.3239   15.7776   23.3054 O   0  0  0  0  0  0  0  0  0  0  0  0
   13.0323   13.5537   27.3370 O   0  0  0  0  0  0  0  0  0  0  0  0
   16.3543   13.2310   26.5208 O   0  0  0  0  0  0  0  0  0  0  0  0
    5.5063   11.6631   27.0316 F   0  0  0  0  0  0  0  0  0  0  0  0
    8.0214   13.5165   23.7693 H   0  0  0  0  0  0  0  0  0  0  0  0
    6.3178   13.6508   25.5615 H   0  0  0  0  0  0  0  0  0  0  0  0
    6.7423    9.4424   26.3733 H   0  0  0  0  0  0  0  0  0  0  0  0
   10.2013    8.8974   22.8221 H   0  0  0  0  0  0  0  0  0  0  0  0
   10.4024   12.9832   25.2838 H   0  0  0  0  0  0  0  0  0  0  0  0
   11.3515   14.4783   25.3438 H   0  0  0  0  0  0  0  0  0  0  0  0
   14.4027   12.1870   24.5369 H   0  0  0  0  0  0  0  0  0  0  0  0
   13.4023   11.3316   25.7090 H   0  0  0  0  0  0  0  0  0  0  0  0
   10.9858   13.6089   27.6646 H   0  0  0  0  0  0  0  0  0  0  0  0
   11.6573   12.0433   27.1898 H   0  0  0  0  0  0  0  0  0  0  0  0
   14.3204   14.2898   25.8818 H   0  0  0  0  0  0  0  0  0  0  0  0
   10.8832   16.6836   20.5669 H   0  0  0  0  0  0  0  0  0  0  0  0
   12.4035   17.0553   21.3545 H   0  0  0  0  0  0  0  0  0  0  0  0
   12.3098   15.7325   20.2111 H   0  0  0  0  0  0  0  0  0  0  0  0
   10.7573   11.1760   21.5348 H   0  0  0  0  0  0  0  0  0  0  0  0
    9.3340   12.1708   21.3526 H   0  0  0  0  0  0  0  0  0  0  0  0
   10.2412   13.4323   23.5562 H   0  0  0  0  0  0  0  0  0  0  0  0
    8.6552    8.2546   24.6760 H   0  0  0  0  0  0  0  0  0  0  0  0
   11.2571   13.7473   20.8228 H   0  0  0  0  0  0  0  0  0  0  0  0
   16.1888   13.7824   25.7265 H   0  0  0  0  0  0  0  0  0  0  0  0
  1  2  1  0  0  0  0
  1  5  2  0  0  0  0
  2  8  2  0  0  0  0
  3  7  2  0  0  0  0
  3  8  1  0  0  0  0
  4  6  2  0  0  0  0
  4 19  1  0  0  0  0
  5  6  1  0  0  0  0
  5  7  1  0  0  0  0
  6 17  1  0  0  0  0
  7 19  1  0  0  0  0
  8 27  1  0  0  0  0
  9 15  1  0  0  0  0
  9 22  2  0  0  0  0
  9 26  1  0  0  0  0
 10 18  1  0  0  0  0
 10 20  1  0  0  0  0
 10 23  2  0  0  0  0
 11 16  1  0  0  0  0
 11 21  1  0  0  0  0
 11 24  2  0  0  0  0
 12 14  1  0  0  0  0
 12 20  1  0  0  0  0
 13 15  1  0  0  0  0
 13 20  1  0  0  0  0
 14 25  1  0  0  0  0
 15 25  1  0  0  0  0
 17 18  1  0  0  0  0
 18 21  1  0  0  0  0
  1 28  1  0  0  0  0
  2 29  1  0  0  0  0
  3 30  1  0  0  0  0
  4 31  1  0  0  0  0
 12 32  1  0  0  0  0
 12 33  1  0  0  0  0
 13 34  1  0  0  0  0
 13 35  1  0  0  0  0
 14 36  1  0  0  0  0
 14 37  1  0  0  0  0
 15 38  1  0  0  0  0
 16 39  1  0  0  0  0
 16 40  1  0  0  0  0
 16 41  1  0  0  0  0
 17 42  1  0  0  0  0
 17 43  1  0  0  0  0
 18 44  1  0  0  0  0
 19 45  1  0  0  0  0
 21 46  1  0  0  0  0
 26 47  1  0  0  0  0
M  END
> <Catalog ID>
Z1445266623

> <PlateID>
1041831-R-10

> <Well>
D02

> <MW (desalted)>
377.367

> <ClogP>
0.595

> <HBD>
3

> <TPSA>
111.730

> <RotBonds>
5

> <ROCS_ShapeQuery>
A71EV2A-x0451_0A_A71EV2A-x0310_0A_A71EV2A-x0416_0A_peptide

> <ROCS_TanimotoCombo>
0.513 

> <ROCS_ShapeTanimoto>
0.372 

> <ROCS_ColorTanimoto>
0.141 

> <ROCS_RefTversky>
0.331 

> <ROCS_RefColorTversky>
0.172 

> <ROCS_RefTverskyCombo>
0.502 

> <ROCS_FitTversky>
1.505 

> <ROCS_FitColorTversky>
0.437 

> <ROCS_FitTverskyCombo>
1.942 

> <ROCS_ColorScore>
-5.271

> <ROCS_Overlap>
2300.196

> <ROCS_Rank>
483                 

$$$$
untitled-dbase-3258_880
  -OEChem-11132311063D

 56 60  0     0  0  0  0  0  0999 V2000
   13.8378   11.6403   25.2954 C   0  0  0  0  0  0  0  0  0  0  0  0
   13.7969   10.4489   24.5711 C   0  0  0  0  0  0  0  0  0  0  0  0
   13.0714   12.7317   24.8866 C   0  0  0  0  0  0  0  0  0  0  0  0
   12.9898   10.3490   23.4379 C   0  0  0  0  0  0  0  0  0  0  0  0
    9.1675    9.8255   24.1492 C   0  0  0  0  0  0  0  0  0  0  0  0
   12.2643   12.6318   23.7534 C   0  0  0  0  0  0  0  0  0  0  0  0
   12.2234   11.4405   23.0290 C   0  0  0  0  0  0  0  0  0  0  0  0
    9.4728   10.6108   23.0634 C   0  0  0  0  0  0  0  0  0  0  0  0
    8.0338   11.7348   24.1801 C   0  0  0  0  0  0  0  0  0  0  0  0
    6.7291   11.0825   26.5802 C   0  0  0  0  0  0  0  0  0  0  0  0
    6.4790   12.3392   25.8933 C   0  0  0  0  0  0  0  0  0  0  0  0
    7.6043   10.2132   26.0545 C   0  0  0  0  0  0  0  0  0  0  0  0
    7.0955   12.6767   24.7350 C   0  0  0  0  0  0  0  0  0  0  0  0
   11.4622   13.7979   23.3387 C   0  0  0  0  0  0  0  0  0  0  0  0
   14.3245   16.4907   18.5680 C   0  0  0  0  0  0  0  0  0  0  0  0
   13.3132   15.4116   18.1861 C   0  0  0  0  0  0  0  0  0  0  0  0
   14.6369   16.4589   20.0625 C   0  0  0  0  0  0  0  0  0  0  0  0
   12.0361   15.5250   19.0158 C   0  0  0  0  0  0  0  0  0  0  0  0
   13.3666   16.5666   20.9044 C   0  0  0  0  0  0  0  0  0  0  0  0
   11.1082   15.4448   21.4140 C   0  0  0  0  0  0  0  0  0  0  0  0
   12.6976   14.0519   21.0616 C   0  0  0  0  0  0  0  0  0  0  0  0
   12.3677   15.4665   20.5106 C   0  0  0  0  0  0  0  0  0  0  0  0
    6.7847   13.9972   24.0798 C   0  0  0  0  0  0  0  0  0  0  0  0
   10.4293   10.3166   21.9454 C   0  0  0  0  0  0  0  0  0  0  0  0
    8.7703   11.7880   23.0873 N   0  0  0  0  0  0  0  0  0  0  0  0
    8.2455   10.5430   24.8672 N   0  0  0  0  0  0  0  0  0  0  0  0
   11.7069   14.3081   22.0905 N   0  0  0  0  0  0  0  0  0  0  0  0
   10.6425   14.2552   24.1312 O   0  0  0  0  0  0  0  0  0  0  0  0
   11.4394   11.3227   21.9203 O   0  0  0  0  0  0  0  0  0  0  0  0
   14.4666   11.7177   26.1779 H   0  0  0  0  0  0  0  0  0  0  0  0
   14.3943    9.5997   24.8896 H   0  0  0  0  0  0  0  0  0  0  0  0
   13.1109   13.6550   25.4590 H   0  0  0  0  0  0  0  0  0  0  0  0
   12.9624    9.4180   22.8782 H   0  0  0  0  0  0  0  0  0  0  0  0
    9.5135    8.8506   24.4653 H   0  0  0  0  0  0  0  0  0  0  0  0
    6.2023   10.8753   27.5037 H   0  0  0  0  0  0  0  0  0  0  0  0
    5.7610   13.0056   26.3623 H   0  0  0  0  0  0  0  0  0  0  0  0
    7.8370    9.2603   26.5139 H   0  0  0  0  0  0  0  0  0  0  0  0
   15.2477   16.3485   17.9952 H   0  0  0  0  0  0  0  0  0  0  0  0
   13.9276   17.4768   18.2972 H   0  0  0  0  0  0  0  0  0  0  0  0
   13.0685   15.4976   17.1221 H   0  0  0  0  0  0  0  0  0  0  0  0
   13.7667   14.4247   18.3325 H   0  0  0  0  0  0  0  0  0  0  0  0
   15.1641   15.5269   20.3031 H   0  0  0  0  0  0  0  0  0  0  0  0
   15.3144   17.2835   20.3138 H   0  0  0  0  0  0  0  0  0  0  0  0
   11.5333   16.4718   18.7816 H   0  0  0  0  0  0  0  0  0  0  0  0
   11.3463   14.7214   18.7314 H   0  0  0  0  0  0  0  0  0  0  0  0
   13.6278   16.4943   21.9670 H   0  0  0  0  0  0  0  0  0  0  0  0
   12.9099   17.5533   20.7555 H   0  0  0  0  0  0  0  0  0  0  0  0
   10.9756   16.2997   22.0845 H   0  0  0  0  0  0  0  0  0  0  0  0
   10.1620   15.2131   20.9173 H   0  0  0  0  0  0  0  0  0  0  0  0
   12.4499   13.2125   20.4068 H   0  0  0  0  0  0  0  0  0  0  0  0
   13.7013   13.9174   21.4765 H   0  0  0  0  0  0  0  0  0  0  0  0
    5.9535   13.8676   23.3938 H   0  0  0  0  0  0  0  0  0  0  0  0
    7.6606   14.3419   23.5385 H   0  0  0  0  0  0  0  0  0  0  0  0
    6.5235   14.7220   24.8448 H   0  0  0  0  0  0  0  0  0  0  0  0
   10.9029    9.3385   22.0822 H   0  0  0  0  0  0  0  0  0  0  0  0
    9.9084   10.3064   20.9820 H   0  0  0  0  0  0  0  0  0  0  0  0
  1  2  2  0  0  0  0
  1  3  1  0  0  0  0
  2  4  1  0  0  0  0
  3  6  2  0  0  0  0
  4  7  2  0  0  0  0
  5  8  2  0  0  0  0
  5 26  1  0  0  0  0
  6  7  1  0  0  0  0
  6 14  1  0  0  0  0
  7 29  1  0  0  0  0
  8 24  1  0  0  0  0
  8 25  1  0  0  0  0
  9 13  1  0  0  0  0
  9 25  2  0  0  0  0
  9 26  1  0  0  0  0
 10 11  1  0  0  0  0
 10 12  2  0  0  0  0
 11 13  2  0  0  0  0
 12 26  1  0  0  0  0
 13 23  1  0  0  0  0
 14 27  1  0  0  0  0
 14 28  2  0  0  0  0
 15 16  1  0  0  0  0
 15 17  1  0  0  0  0
 16 18  1  0  0  0  0
 17 19  1  0  0  0  0
 18 22  1  0  0  0  0
 19 22  1  0  0  0  0
 20 22  1  0  0  0  0
 20 27  1  0  0  0  0
 21 22  1  0  0  0  0
 21 27  1  0  0  0  0
 24 29  1  0  0  0  0
  1 30  1  0  0  0  0
  2 31  1  0  0  0  0
  3 32  1  0  0  0  0
  4 33  1  0  0  0  0
  5 34  1  0  0  0  0
 10 35  1  0  0  0  0
 11 36  1  0  0  0  0
 12 37  1  0  0  0  0
 15 38  1  0  0  0  0
 15 39  1  0  0  0  0
 16 40  1  0  0  0  0
 16 41  1  0  0  0  0
 17 42  1  0  0  0  0
 17 43  1  0  0  0  0
 18 44  1  0  0  0  0
 18 45  1  0  0  0  0
 19 46  1  0  0  0  0
 19 47  1  0  0  0  0
 20 48  1  0  0  0  0
 20 49  1  0  0  0  0
 21 50  1  0  0  0  0
 21 51  1  0  0  0  0
 23 52  1  0  0  0  0
 23 53  1  0  0  0  0
 23 54  1  0  0  0  0
 24 55  1  0  0  0  0
 24 56  1  0  0  0  0
M  END
> <Catalog ID>
Z1633439405

> <PlateID>
1041831-R-41

> <Well>
F09

> <MW (desalted)>
389.490

> <ClogP>
4.424

> <HBD>
0

> <TPSA>
46.840

> <RotBonds>
4

> <ROCS_ShapeQuery>
A71EV2A-x0451_0A_A71EV2A-x0310_0A_A71EV2A-x0416_0A_peptide

> <ROCS_TanimotoCombo>
0.512 

> <ROCS_ShapeTanimoto>
0.365 

> <ROCS_ColorTanimoto>
0.147 

> <ROCS_RefTversky>
0.330 

> <ROCS_RefColorTversky>
0.171 

> <ROCS_RefTverskyCombo>
0.501 

> <ROCS_FitTversky>
1.407 

> <ROCS_FitColorTversky>
0.515 

> <ROCS_FitTverskyCombo>
1.922 

> <ROCS_ColorScore>
-5.229

> <ROCS_Overlap>
2299.880

> <ROCS_Rank>
484                 

$$$$
untitled-dbase-2891_1199
  -OEChem-11132311063D

 49 51  0     1  0  0  0  0  0999 V2000
   10.4261   11.3518   22.9768 C   0  0  0  0  0  0  0  0  0  0  0  0
    9.6241   10.2105   23.0517 C   0  0  0  0  0  0  0  0  0  0  0  0
    8.9630   12.5336   24.5230 C   0  0  0  0  0  0  0  0  0  0  0  0
   10.0975   12.5067   23.7083 C   0  0  0  0  0  0  0  0  0  0  0  0
    8.5096   10.2631   23.8634 C   0  0  0  0  0  0  0  0  0  0  0  0
    8.1880   11.3935   24.5794 C   0  0  0  0  0  0  0  0  0  0  0  0
   12.1376   15.2458   22.0196 C   0  0  0  0  0  0  0  0  0  0  0  0
   13.9165   13.1620   23.0656 C   0  0  0  0  0  0  0  0  0  0  0  0
   13.8696   16.5246   20.8011 C   0  0  0  0  0  0  0  0  0  0  0  0
   12.7733   14.6620   19.6269 C   0  0  0  0  0  0  0  0  0  0  0  0
   13.7184   17.3518   19.5330 C   0  0  0  0  0  0  0  0  0  0  0  0
    6.6972    9.8775   24.9807 C   0  0  0  0  0  0  0  0  0  0  0  0
   12.6658   15.5660   18.3962 C   0  0  2  0  0  0  0  0  0  0  0  0
   15.0678   12.2558   22.7797 C   0  0  0  0  0  0  0  0  0  0  0  0
   12.6693   15.6256   15.8975 C   0  0  0  0  0  0  0  0  0  0  0  0
   10.9785   13.7279   23.6105 C   0  0  0  0  0  0  0  0  0  0  0  0
   12.7346   14.7541   17.1109 C   0  0  0  0  0  0  0  0  0  0  0  0
   11.6640   13.8337   22.2547 C   0  0  2  0  0  0  0  0  0  0  0  0
   12.8530   15.4745   20.8462 N   0  0  0  0  0  0  0  0  0  0  0  0
   12.8664   13.0568   22.1643 N   0  0  0  0  0  0  0  0  0  0  0  0
   11.8760   16.1180   22.8517 O   0  0  0  0  0  0  0  0  0  0  0  0
   13.9627   13.9100   24.0351 O   0  0  0  0  0  0  0  0  0  0  0  0
    7.6172    9.2549   24.0608 O   0  0  0  0  0  0  0  0  0  0  0  0
    7.0538   11.2346   25.3145 O   0  0  0  0  0  0  0  0  0  0  0  0
   13.7513   16.5032   18.3826 O   0  0  0  0  0  0  0  0  0  0  0  0
   11.3118   11.3395   22.3462 H   0  0  0  0  0  0  0  0  0  0  0  0
    9.8745    9.3178   22.4902 H   0  0  0  0  0  0  0  0  0  0  0  0
    8.6988   13.4176   25.0935 H   0  0  0  0  0  0  0  0  0  0  0  0
   14.8414   16.0171   20.8085 H   0  0  0  0  0  0  0  0  0  0  0  0
   13.8153   17.1664   21.6854 H   0  0  0  0  0  0  0  0  0  0  0  0
   11.9349   13.9635   19.6544 H   0  0  0  0  0  0  0  0  0  0  0  0
   13.6985   14.0734   19.5935 H   0  0  0  0  0  0  0  0  0  0  0  0
   12.7885   17.9326   19.5378 H   0  0  0  0  0  0  0  0  0  0  0  0
   14.5503   18.0578   19.4476 H   0  0  0  0  0  0  0  0  0  0  0  0
    5.6980    9.8786   24.5299 H   0  0  0  0  0  0  0  0  0  0  0  0
    6.6679    9.2855   25.9024 H   0  0  0  0  0  0  0  0  0  0  0  0
   11.7174   16.1204   18.4116 H   0  0  0  0  0  0  0  0  0  0  0  0
   15.8168   12.7228   22.1201 H   0  0  0  0  0  0  0  0  0  0  0  0
   15.6182   11.9746   23.6918 H   0  0  0  0  0  0  0  0  0  0  0  0
   14.8075   11.3023   22.2930 H   0  0  0  0  0  0  0  0  0  0  0  0
   11.7387   16.2052   15.9066 H   0  0  0  0  0  0  0  0  0  0  0  0
   12.6846   15.0223   14.9836 H   0  0  0  0  0  0  0  0  0  0  0  0
   13.5078   16.3298   15.8787 H   0  0  0  0  0  0  0  0  0  0  0  0
   10.3621   14.6181   23.7954 H   0  0  0  0  0  0  0  0  0  0  0  0
   11.7183   13.7147   24.4226 H   0  0  0  0  0  0  0  0  0  0  0  0
   13.6658   14.1787   17.0953 H   0  0  0  0  0  0  0  0  0  0  0  0
   11.9060   14.0389   17.0894 H   0  0  0  0  0  0  0  0  0  0  0  0
   11.0114   13.5545   21.4271 H   0  0  0  0  0  0  0  0  0  0  0  0
   12.9544   12.3909   21.3959 H   0  0  0  0  0  0  0  0  0  0  0  0
  1  2  1  0  0  0  0
  1  4  2  0  0  0  0
  2  5  2  0  0  0  0
  3  4  1  0  0  0  0
  3  6  2  0  0  0  0
  4 16  1  0  0  0  0
  5  6  1  0  0  0  0
  5 23  1  0  0  0  0
  6 24  1  0  0  0  0
  7 18  1  0  0  0  0
  7 19  1  0  0  0  0
  7 21  2  0  0  0  0
  8 14  1  0  0  0  0
  8 20  1  0  0  0  0
  8 22  2  0  0  0  0
  9 11  1  0  0  0  0
  9 19  1  0  0  0  0
 10 13  1  0  0  0  0
 10 19  1  0  0  0  0
 11 25  1  0  0  0  0
 12 23  1  0  0  0  0
 12 24  1  0  0  0  0
 13 17  1  0  0  0  0
 13 25  1  0  0  0  0
 15 17  1  0  0  0  0
 16 18  1  0  0  0  0
 18 20  1  0  0  0  0
  1 26  1  0  0  0  0
  2 27  1  0  0  0  0
  3 28  1  0  0  0  0
  9 29  1  0  0  0  0
  9 30  1  0  0  0  0
 10 31  1  0  0  0  0
 10 32  1  0  0  0  0
 11 33  1  0  0  0  0
 11 34  1  0  0  0  0
 12 35  1  0  0  0  0
 12 36  1  0  0  0  0
 13 37  1  0  0  0  0
 14 38  1  0  0  0  0
 14 39  1  0  0  0  0
 14 40  1  0  0  0  0
 15 41  1  0  0  0  0
 15 42  1  0  0  0  0
 15 43  1  0  0  0  0
 16 44  1  0  0  0  0
 16 45  1  0  0  0  0
 17 46  1  0  0  0  0
 17 47  1  0  0  0  0
 18 48  1  0  0  0  0
 20 49  1  0  0  0  0
M  END
> <Catalog ID>
Z998372024

> <PlateID>
1041831-R-37

> <Well>
B02

> <MW (desalted)>
348.394

> <ClogP>
1.645

> <HBD>
1

> <TPSA>
77.100

> <RotBonds>
5

> <ROCS_ShapeQuery>
A71EV2A-x0451_0A_A71EV2A-x0310_0A_A71EV2A-x0416_0A_peptide

> <ROCS_TanimotoCombo>
0.512 

> <ROCS_ShapeTanimoto>
0.337 

> <ROCS_ColorTanimoto>
0.176 

> <ROCS_RefTversky>
0.304 

> <ROCS_RefColorTversky>
0.204 

> <ROCS_RefTverskyCombo>
0.507 

> <ROCS_FitTversky>
1.476 

> <ROCS_FitColorTversky>
0.562 

> <ROCS_FitTverskyCombo>
2.038 

> <ROCS_ColorScore>
-6.242

> <ROCS_Overlap>
2110.935

> <ROCS_Rank>
485                 

$$$$
untitled-dbase-2198_241
  -OEChem-11132311063D

 42 45  0     1  0  0  0  0  0999 V2000
   13.4819   16.5965   18.9222 C   0  0  0  0  0  0  0  0  0  0  0  0
   14.2521   15.6167   19.5561 C   0  0  0  0  0  0  0  0  0  0  0  0
   12.1089   16.7135   19.1755 C   0  0  0  0  0  0  0  0  0  0  0  0
   13.6823   14.7185   20.4653 C   0  0  0  0  0  0  0  0  0  0  0  0
   11.5254   15.8192   20.0848 C   0  0  0  0  0  0  0  0  0  0  0  0
   12.3157   14.8572   20.6987 C   0  0  0  0  0  0  0  0  0  0  0  0
   10.7387   13.0866   23.5425 C   0  0  0  0  0  0  0  0  0  0  0  0
    7.0706   12.4510   26.2130 C   0  0  0  0  0  0  0  0  0  0  0  0
    6.1908   11.2906   25.7587 C   0  0  0  0  0  0  0  0  0  0  0  0
    8.5039   12.3130   25.7018 C   0  0  0  0  0  0  0  0  0  0  0  0
    6.2228   11.1210   24.2399 C   0  0  0  0  0  0  0  0  0  0  0  0
   10.2859   10.6132   23.2688 C   0  0  0  0  0  0  0  0  0  0  0  0
    9.5682    9.5598   24.0983 C   0  0  0  0  0  0  0  0  0  0  0  0
    8.5377   12.1425   24.1725 C   0  0  2  0  0  0  0  0  0  0  0  0
    7.6516   10.9747   23.7087 C   0  0  1  0  0  0  0  0  0  0  0  0
   11.6956   13.0683   22.3766 C   0  0  0  0  0  0  0  0  0  0  0  0
   10.2336   15.6938   20.5231 N   0  0  0  0  0  0  0  0  0  0  0  0
   10.1886   14.6874   21.3893 N   0  0  0  0  0  0  0  0  0  0  0  0
   11.4312   14.1878   21.4941 N   0  0  0  0  0  0  0  0  0  0  0  0
    9.9157   11.9675   23.6884 N   0  0  0  0  0  0  0  0  0  0  0  0
   10.7226   14.0594   24.3008 O   0  0  0  0  0  0  0  0  0  0  0  0
    8.1512    9.7070   24.1435 O   0  0  0  0  0  0  0  0  0  0  0  0
   13.9552   17.2791   18.2210 H   0  0  0  0  0  0  0  0  0  0  0  0
   15.3155   15.5509   19.3388 H   0  0  0  0  0  0  0  0  0  0  0  0
   11.5190   17.4768   18.6788 H   0  0  0  0  0  0  0  0  0  0  0  0
   14.2780   13.9586   20.9575 H   0  0  0  0  0  0  0  0  0  0  0  0
    6.6436   13.3984   25.8553 H   0  0  0  0  0  0  0  0  0  0  0  0
    7.0755   12.5018   27.3097 H   0  0  0  0  0  0  0  0  0  0  0  0
    6.5255   10.3636   26.2422 H   0  0  0  0  0  0  0  0  0  0  0  0
    5.1582   11.4626   26.0859 H   0  0  0  0  0  0  0  0  0  0  0  0
    9.0750   13.2007   25.9928 H   0  0  0  0  0  0  0  0  0  0  0  0
    8.9674   11.4536   26.1972 H   0  0  0  0  0  0  0  0  0  0  0  0
    5.6344   10.2385   23.9735 H   0  0  0  0  0  0  0  0  0  0  0  0
    5.7513   11.9911   23.7736 H   0  0  0  0  0  0  0  0  0  0  0  0
   11.3679   10.5294   23.4133 H   0  0  0  0  0  0  0  0  0  0  0  0
   10.0804   10.4446   22.2111 H   0  0  0  0  0  0  0  0  0  0  0  0
    9.8164    8.5364   23.7391 H   0  0  0  0  0  0  0  0  0  0  0  0
    9.9361    9.5995   25.1442 H   0  0  0  0  0  0  0  0  0  0  0  0
    8.1265   13.0630   23.7317 H   0  0  0  0  0  0  0  0  0  0  0  0
    7.5870   10.9641   22.6069 H   0  0  0  0  0  0  0  0  0  0  0  0
   11.5649   12.1368   21.8308 H   0  0  0  0  0  0  0  0  0  0  0  0
   12.7124   13.1376   22.7564 H   0  0  0  0  0  0  0  0  0  0  0  0
  1  2  2  0  0  0  0
  1  3  1  0  0  0  0
  2  4  1  0  0  0  0
  3  5  2  0  0  0  0
  4  6  2  0  0  0  0
  5  6  1  0  0  0  0
  5 17  1  0  0  0  0
  6 19  1  0  0  0  0
  7 16  1  0  0  0  0
  7 20  1  0  0  0  0
  7 21  2  0  0  0  0
  8  9  1  0  0  0  0
  8 10  1  0  0  0  0
  9 11  1  0  0  0  0
 10 14  1  0  0  0  0
 11 15  1  0  0  0  0
 12 13  1  0  0  0  0
 12 20  1  0  0  0  0
 13 22  1  0  0  0  0
 14 15  1  0  0  0  0
 14 20  1  0  0  0  0
 15 22  1  0  0  0  0
 16 19  1  0  0  0  0
 17 18  2  0  0  0  0
 18 19  1  0  0  0  0
  1 23  1  0  0  0  0
  2 24  1  0  0  0  0
  3 25  1  0  0  0  0
  4 26  1  0  0  0  0
  8 27  1  0  0  0  0
  8 28  1  0  0  0  0
  9 29  1  0  0  0  0
  9 30  1  0  0  0  0
 10 31  1  0  0  0  0
 10 32  1  0  0  0  0
 11 33  1  0  0  0  0
 11 34  1  0  0  0  0
 12 35  1  0  0  0  0
 12 36  1  0  0  0  0
 13 37  1  0  0  0  0
 13 38  1  0  0  0  0
 14 39  1  0  0  0  0
 15 40  1  0  0  0  0
 16 41  1  0  0  0  0
 16 42  1  0  0  0  0
M  END
> <Catalog ID>
Z511586788

> <PlateID>
1041831-R-28

> <Well>
D09

> <MW (desalted)>
300.356

> <ClogP>
2.290

> <HBD>
0

> <TPSA>
60.250

> <RotBonds>
2

> <ROCS_ShapeQuery>
A71EV2A-x0451_0A_A71EV2A-x0310_0A_A71EV2A-x0416_0A_peptide

> <ROCS_TanimotoCombo>
0.512 

> <ROCS_ShapeTanimoto>
0.338 

> <ROCS_ColorTanimoto>
0.175 

> <ROCS_RefTversky>
0.301 

> <ROCS_RefColorTversky>
0.195 

> <ROCS_RefTverskyCombo>
0.496 

> <ROCS_FitTversky>
1.573 

> <ROCS_FitColorTversky>
0.625 

> <ROCS_FitTverskyCombo>
2.198 

> <ROCS_ColorScore>
-5.965

> <ROCS_Overlap>
2088.643

> <ROCS_Rank>
486                 

$$$$
untitled-dbase-2005_738
  -OEChem-11132311063D

 38 40  0     1  0  0  0  0  0999 V2000
    6.8958   12.6028   25.8624 C   0  0  0  0  0  0  0  0  0  0  0  0
    6.3908   11.3387   26.1601 C   0  0  0  0  0  0  0  0  0  0  0  0
    7.9786   12.7541   24.9885 C   0  0  0  0  0  0  0  0  0  0  0  0
    6.9494   10.1882   25.5960 C   0  0  0  0  0  0  0  0  0  0  0  0
    9.7410   10.0370   23.2938 C   0  0  0  0  0  0  0  0  0  0  0  0
   13.4034   16.3452   19.0258 C   0  0  0  0  0  0  0  0  0  0  0  0
    8.5583   11.6086   24.4078 C   0  0  0  0  0  0  0  0  0  0  0  0
    9.6362   11.3926   23.5042 C   0  0  0  0  0  0  0  0  0  0  0  0
    8.0314   10.3546   24.7243 C   0  0  0  0  0  0  0  0  0  0  0  0
   12.8626   15.0544   20.9253 C   0  0  0  0  0  0  0  0  0  0  0  0
   10.3686   15.1138   24.3611 C   0  0  0  0  0  0  0  0  0  0  0  0
   12.6687   13.7309   23.0597 C   0  0  0  0  0  0  0  0  0  0  0  0
    9.8690   15.9593   25.4853 C   0  0  0  0  0  0  0  0  0  0  0  0
   10.4957   12.4287   22.8965 C   0  0  0  0  0  0  0  0  0  0  0  0
   11.5751   13.0021   23.8437 C   0  0  2  0  0  0  0  0  0  0  0  0
   14.4369   16.2006   19.8276 N   0  0  0  0  0  0  0  0  0  0  0  0
   14.1199   15.4426   20.9413 N   0  0  0  0  0  0  0  0  0  0  0  0
    8.7687    9.4193   24.0337 N   0  0  0  0  0  0  0  0  0  0  0  0
   12.1696   14.2716   21.8783 N   0  0  0  0  0  0  0  0  0  0  0  0
   11.0167   13.9608   24.7660 N   0  0  0  0  0  0  0  0  0  0  0  0
   10.1820   15.4741   23.2048 O   0  0  0  0  0  0  0  0  0  0  0  0
   13.8120   13.8344   23.4963 O   0  0  0  0  0  0  0  0  0  0  0  0
   11.9662   15.5763   19.5595 S   0  0  0  0  0  0  0  0  0  0  0  0
    6.4443   13.4826   26.3129 H   0  0  0  0  0  0  0  0  0  0  0  0
    5.5492   11.2444   26.8415 H   0  0  0  0  0  0  0  0  0  0  0  0
    8.3602   13.7465   24.7658 H   0  0  0  0  0  0  0  0  0  0  0  0
    6.5563    9.2045   25.8292 H   0  0  0  0  0  0  0  0  0  0  0  0
   10.4185    9.4559   22.6834 H   0  0  0  0  0  0  0  0  0  0  0  0
   13.4539   16.9051   18.1026 H   0  0  0  0  0  0  0  0  0  0  0  0
   10.6136   16.7006   25.8171 H   0  0  0  0  0  0  0  0  0  0  0  0
    8.9786   16.5457   25.2068 H   0  0  0  0  0  0  0  0  0  0  0  0
    9.5809   15.4103   26.3960 H   0  0  0  0  0  0  0  0  0  0  0  0
    9.8693   13.2672   22.5300 H   0  0  0  0  0  0  0  0  0  0  0  0
   10.9939   12.0497   21.9804 H   0  0  0  0  0  0  0  0  0  0  0  0
   12.0159   12.2087   24.4577 H   0  0  0  0  0  0  0  0  0  0  0  0
    8.6140    8.4212   24.0687 H   0  0  0  0  0  0  0  0  0  0  0  0
   11.1883   14.1045   21.6669 H   0  0  0  0  0  0  0  0  0  0  0  0
   11.1039   13.7800   25.7628 H   0  0  0  0  0  0  0  0  0  0  0  0
  1  2  2  0  0  0  0
  1  3  1  0  0  0  0
  2  4  1  0  0  0  0
  3  7  2  0  0  0  0
  4  9  2  0  0  0  0
  5  8  2  0  0  0  0
  5 18  1  0  0  0  0
  6 16  2  0  0  0  0
  6 23  1  0  0  0  0
  7  8  1  0  0  0  0
  7  9  1  0  0  0  0
  8 14  1  0  0  0  0
  9 18  1  0  0  0  0
 10 17  2  0  0  0  0
 10 19  1  0  0  0  0
 10 23  1  0  0  0  0
 11 13  1  0  0  0  0
 11 20  1  0  0  0  0
 11 21  2  0  0  0  0
 12 15  1  0  0  0  0
 12 19  1  0  0  0  0
 12 22  2  0  0  0  0
 14 15  1  0  0  0  0
 15 20  1  0  0  0  0
 16 17  1  0  0  0  0
  1 24  1  0  0  0  0
  2 25  1  0  0  0  0
  3 26  1  0  0  0  0
  4 27  1  0  0  0  0
  5 28  1  0  0  0  0
  6 29  1  0  0  0  0
 13 30  1  0  0  0  0
 13 31  1  0  0  0  0
 13 32  1  0  0  0  0
 14 33  1  0  0  0  0
 14 34  1  0  0  0  0
 15 35  1  0  0  0  0
 18 36  1  0  0  0  0
 19 37  1  0  0  0  0
 20 38  1  0  0  0  0
M  END
> <Catalog ID>
Z245481036

> <PlateID>
1041831-R-26

> <Well>
A06

> <MW (desalted)>
329.377

> <ClogP>
0.446

> <HBD>
3

> <TPSA>
99.770

> <RotBonds>
5

> <ROCS_ShapeQuery>
A71EV2A-x0451_0A_A71EV2A-x0310_0A_A71EV2A-x0416_0A_peptide

> <ROCS_TanimotoCombo>
0.512 

> <ROCS_ShapeTanimoto>
0.355 

> <ROCS_ColorTanimoto>
0.157 

> <ROCS_RefTversky>
0.313 

> <ROCS_RefColorTversky>
0.186 

> <ROCS_RefTverskyCombo>
0.499 

> <ROCS_FitTversky>
1.617 

> <ROCS_FitColorTversky>
0.501 

> <ROCS_FitTverskyCombo>
2.119 

> <ROCS_ColorScore>
-5.707

> <ROCS_Overlap>
2173.128

> <ROCS_Rank>
487                 

$$$$
untitled-dbase-2352_142
  -OEChem-11132311063D

 52 56  0     1  0  0  0  0  0999 V2000
    6.6713   12.4773   25.8924 C   0  0  0  0  0  0  0  0  0  0  0  0
    9.1080    9.5078   23.4229 C   0  0  0  0  0  0  0  0  0  0  0  0
    6.7041   11.1315   25.6061 C   0  0  0  0  0  0  0  0  0  0  0  0
    7.7662   10.7936   24.7150 C   0  0  0  0  0  0  0  0  0  0  0  0
    8.5149   11.9116   24.3497 C   0  0  0  0  0  0  0  0  0  0  0  0
    9.5905   11.7547   23.4833 C   0  0  0  0  0  0  0  0  0  0  0  0
   14.3508   17.1672   19.2250 C   0  0  0  0  0  0  0  0  0  0  0  0
   14.8427   15.7282   19.0523 C   0  0  0  0  0  0  0  0  0  0  0  0
   12.1991   16.8144   20.5459 C   0  0  0  0  0  0  0  0  0  0  0  0
   13.0179   14.4182   20.2582 C   0  0  0  0  0  0  0  0  0  0  0  0
   11.7838   12.6898   22.7606 C   0  0  0  0  0  0  0  0  0  0  0  0
    9.7831   14.1810   22.9693 C   0  0  0  0  0  0  0  0  0  0  0  0
   12.5346   13.9952   23.0442 C   0  0  0  0  0  0  0  0  0  0  0  0
   10.5847   15.0057   21.9583 C   0  0  0  0  0  0  0  0  0  0  0  0
   12.8231   17.0641   19.1561 C   0  0  2  0  0  0  0  0  0  0  0  0
   13.5634   14.8986   18.8962 C   0  0  1  0  0  0  0  0  0  0  0  0
   12.7966   15.5800   21.2428 C   0  0  0  0  0  0  0  0  0  0  0  0
    5.7417   10.1511   26.1643 C   0  0  0  0  0  0  0  0  0  0  0  0
   12.7167   16.0706   16.9246 C   0  0  0  0  0  0  0  0  0  0  0  0
    8.0514    9.5473   24.2519 N   0  0  0  0  0  0  0  0  0  0  0  0
    9.8871   10.5264   23.0148 N   0  0  0  0  0  0  0  0  0  0  0  0
   10.3650   12.8422   23.0921 N   0  0  0  0  0  0  0  0  0  0  0  0
   11.9848   15.1721   22.3624 N   0  0  0  0  0  0  0  0  0  0  0  0
   12.5701   15.8482   18.3609 N   0  0  0  0  0  0  0  0  0  0  0  0
    7.9137   13.3366   25.0934 S   0  0  0  0  0  0  0  0  0  0  0  0
    5.9765   13.0014   26.5340 H   0  0  0  0  0  0  0  0  0  0  0  0
    9.3667    8.5299   23.0324 H   0  0  0  0  0  0  0  0  0  0  0  0
   14.7045   17.6101   20.1616 H   0  0  0  0  0  0  0  0  0  0  0  0
   14.7333   17.7843   18.4037 H   0  0  0  0  0  0  0  0  0  0  0  0
   15.4601   15.6602   18.1485 H   0  0  0  0  0  0  0  0  0  0  0  0
   15.4587   15.4029   19.8967 H   0  0  0  0  0  0  0  0  0  0  0  0
   12.3392   17.6988   21.1805 H   0  0  0  0  0  0  0  0  0  0  0  0
   11.1142   16.6871   20.4233 H   0  0  0  0  0  0  0  0  0  0  0  0
   12.0716   13.8857   20.0874 H   0  0  0  0  0  0  0  0  0  0  0  0
   13.7095   13.6891   20.6993 H   0  0  0  0  0  0  0  0  0  0  0  0
   11.9015   12.4378   21.7011 H   0  0  0  0  0  0  0  0  0  0  0  0
   12.2194   11.8749   23.3506 H   0  0  0  0  0  0  0  0  0  0  0  0
    9.7874   14.6807   23.9443 H   0  0  0  0  0  0  0  0  0  0  0  0
    8.7453   14.1147   22.6277 H   0  0  0  0  0  0  0  0  0  0  0  0
   12.5156   14.1624   24.1423 H   0  0  0  0  0  0  0  0  0  0  0  0
   13.6102   13.8610   22.7896 H   0  0  0  0  0  0  0  0  0  0  0  0
   10.5140   14.5363   20.9618 H   0  0  0  0  0  0  0  0  0  0  0  0
   10.1042   15.9936   21.8713 H   0  0  0  0  0  0  0  0  0  0  0  0
   12.3690   17.9605   18.7189 H   0  0  0  0  0  0  0  0  0  0  0  0
   13.7134   14.0286   18.2469 H   0  0  0  0  0  0  0  0  0  0  0  0
   13.7827   15.8696   21.6449 H   0  0  0  0  0  0  0  0  0  0  0  0
    4.8645   10.0484   25.5087 H   0  0  0  0  0  0  0  0  0  0  0  0
    6.1971    9.1559   26.2826 H   0  0  0  0  0  0  0  0  0  0  0  0
    5.3879   10.4513   27.1627 H   0  0  0  0  0  0  0  0  0  0  0  0
   12.5168   15.1328   16.3855 H   0  0  0  0  0  0  0  0  0  0  0  0
   12.0021   16.8405   16.5981 H   0  0  0  0  0  0  0  0  0  0  0  0
   13.7416   16.4063   16.7084 H   0  0  0  0  0  0  0  0  0  0  0  0
  1  3  2  0  0  0  0
  1 25  1  0  0  0  0
  2 20  1  0  0  0  0
  2 21  2  0  0  0  0
  3  4  1  0  0  0  0
  3 18  1  0  0  0  0
  4  5  1  0  0  0  0
  4 20  2  0  0  0  0
  5  6  2  0  0  0  0
  5 25  1  0  0  0  0
  6 21  1  0  0  0  0
  6 22  1  0  0  0  0
  7  8  1  0  0  0  0
  7 15  1  0  0  0  0
  8 16  1  0  0  0  0
  9 15  1  0  0  0  0
  9 17  1  0  0  0  0
 10 16  1  0  0  0  0
 10 17  1  0  0  0  0
 11 13  1  0  0  0  0
 11 22  1  0  0  0  0
 12 14  1  0  0  0  0
 12 22  1  0  0  0  0
 13 23  1  0  0  0  0
 14 23  1  0  0  0  0
 15 24  1  0  0  0  0
 16 24  1  0  0  0  0
 17 23  1  0  0  0  0
 19 24  1  0  0  0  0
  1 26  1  0  0  0  0
  2 27  1  0  0  0  0
  7 28  1  0  0  0  0
  7 29  1  0  0  0  0
  8 30  1  0  0  0  0
  8 31  1  0  0  0  0
  9 32  1  0  0  0  0
  9 33  1  0  0  0  0
 10 34  1  0  0  0  0
 10 35  1  0  0  0  0
 11 36  1  0  0  0  0
 11 37  1  0  0  0  0
 12 38  1  0  0  0  0
 12 39  1  0  0  0  0
 13 40  1  0  0  0  0
 13 41  1  0  0  0  0
 14 42  1  0  0  0  0
 14 43  1  0  0  0  0
 15 44  1  0  0  0  0
 16 45  1  0  0  0  0
 17 46  1  0  0  0  0
 18 47  1  0  0  0  0
 18 48  1  0  0  0  0
 18 49  1  0  0  0  0
 19 50  1  0  0  0  0
 19 51  1  0  0  0  0
 19 52  1  0  0  0  0
M  END
> <Catalog ID>
Z1957953632

> <PlateID>
1041831-R-30

> <Well>
D03

> <MW (desalted)>
357.516

> <ClogP>
2.647

> <HBD>
0

> <TPSA>
35.500

> <RotBonds>
2

> <ROCS_ShapeQuery>
A71EV2A-x0451_0A_A71EV2A-x0310_0A_A71EV2A-x0416_0A_peptide

> <ROCS_TanimotoCombo>
0.512 

> <ROCS_ShapeTanimoto>
0.369 

> <ROCS_ColorTanimoto>
0.143 

> <ROCS_RefTversky>
0.326 

> <ROCS_RefColorTversky>
0.181 

> <ROCS_RefTverskyCombo>
0.507 

> <ROCS_FitTversky>
1.565 

> <ROCS_FitColorTversky>
0.404 

> <ROCS_FitTverskyCombo>
1.969 

> <ROCS_ColorScore>
-5.573

> <ROCS_Overlap>
2266.138

> <ROCS_Rank>
488                 

$$$$
untitled-dbase-1251_461
  -OEChem-11132311063D

 39 41  0     0  0  0  0  0  0999 V2000
   13.5460   15.8891   18.3659 C   0  0  0  0  0  0  0  0  0  0  0  0
   14.5067   15.3440   19.2176 C   0  0  0  0  0  0  0  0  0  0  0  0
   12.2481   16.1080   18.8277 C   0  0  0  0  0  0  0  0  0  0  0  0
   14.1695   15.0176   20.5312 C   0  0  0  0  0  0  0  0  0  0  0  0
    9.1676   12.3075   23.9142 C   0  0  0  0  0  0  0  0  0  0  0  0
   11.9109   15.7817   20.1413 C   0  0  0  0  0  0  0  0  0  0  0  0
   12.8716   15.2365   20.9930 C   0  0  0  0  0  0  0  0  0  0  0  0
    9.5333   11.2521   23.1121 C   0  0  0  0  0  0  0  0  0  0  0  0
    7.9623   10.4950   24.3481 C   0  0  0  0  0  0  0  0  0  0  0  0
    6.9494    9.7769   25.0494 C   0  0  0  0  0  0  0  0  0  0  0  0
    6.2383   10.3953   26.0119 C   0  0  0  0  0  0  0  0  0  0  0  0
    6.4765   11.7874   26.3588 C   0  0  0  0  0  0  0  0  0  0  0  0
    7.4285   12.4704   25.7025 C   0  0  0  0  0  0  0  0  0  0  0  0
   10.5725   11.2197   22.0718 C   0  0  0  0  0  0  0  0  0  0  0  0
   11.7576   12.1719   22.3301 C   0  0  0  0  0  0  0  0  0  0  0  0
   10.5119   16.0270   20.6041 C   0  0  0  0  0  0  0  0  0  0  0  0
    8.7850   10.1349   23.3841 N   0  0  0  0  0  0  0  0  0  0  0  0
    8.1596   11.8252   24.7091 N   0  0  0  0  0  0  0  0  0  0  0  0
   11.3369   13.5439   22.4275 N   0  0  0  0  0  0  0  0  0  0  0  0
   13.6698   14.2522   23.2743 O   0  0  0  0  0  0  0  0  0  0  0  0
   11.8276   15.9639   23.2523 O   0  0  0  0  0  0  0  0  0  0  0  0
    9.7055   16.5627   19.6418 F   0  0  0  0  0  0  0  0  0  0  0  0
    9.8703   14.8966   21.0207 F   0  0  0  0  0  0  0  0  0  0  0  0
   10.4539   16.8925   21.6567 F   0  0  0  0  0  0  0  0  0  0  0  0
   12.4785   14.8096   22.6628 S   0  0  0  0  0  0  0  0  0  0  0  0
   13.8090   16.1424   17.3429 H   0  0  0  0  0  0  0  0  0  0  0  0
   15.5169   15.1727   18.8575 H   0  0  0  0  0  0  0  0  0  0  0  0
   11.5073   16.5332   18.1559 H   0  0  0  0  0  0  0  0  0  0  0  0
   14.9273   14.5929   21.1847 H   0  0  0  0  0  0  0  0  0  0  0  0
    9.5241   13.3261   23.9881 H   0  0  0  0  0  0  0  0  0  0  0  0
    6.7630    8.7384   24.7995 H   0  0  0  0  0  0  0  0  0  0  0  0
    5.4641    9.8659   26.5565 H   0  0  0  0  0  0  0  0  0  0  0  0
    5.8801   12.2433   27.1396 H   0  0  0  0  0  0  0  0  0  0  0  0
    7.6576   13.5086   25.9102 H   0  0  0  0  0  0  0  0  0  0  0  0
   10.1392   11.4847   21.0847 H   0  0  0  0  0  0  0  0  0  0  0  0
   10.9741   10.1941   21.9264 H   0  0  0  0  0  0  0  0  0  0  0  0
   12.2631   11.9293   23.2701 H   0  0  0  0  0  0  0  0  0  0  0  0
   12.4926   12.1085   21.5209 H   0  0  0  0  0  0  0  0  0  0  0  0
   10.4395   13.8068   21.9688 H   0  0  0  0  0  0  0  0  0  0  0  0
  1  2  2  0  0  0  0
  1  3  1  0  0  0  0
  2  4  1  0  0  0  0
  3  6  2  0  0  0  0
  4  7  2  0  0  0  0
  5  8  2  0  0  0  0
  5 18  1  0  0  0  0
  6  7  1  0  0  0  0
  6 16  1  0  0  0  0
  7 25  1  0  0  0  0
  8 14  1  0  0  0  0
  8 17  1  0  0  0  0
  9 10  1  0  0  0  0
  9 17  2  0  0  0  0
  9 18  1  0  0  0  0
 10 11  2  0  0  0  0
 11 12  1  0  0  0  0
 12 13  2  0  0  0  0
 13 18  1  0  0  0  0
 14 15  1  0  0  0  0
 15 19  1  0  0  0  0
 16 22  1  0  0  0  0
 16 23  1  0  0  0  0
 16 24  1  0  0  0  0
 19 25  1  0  0  0  0
 20 25  2  0  0  0  0
 21 25  2  0  0  0  0
  1 26  1  0  0  0  0
  2 27  1  0  0  0  0
  3 28  1  0  0  0  0
  4 29  1  0  0  0  0
  5 30  1  0  0  0  0
 10 31  1  0  0  0  0
 11 32  1  0  0  0  0
 12 33  1  0  0  0  0
 13 34  1  0  0  0  0
 14 35  1  0  0  0  0
 14 36  1  0  0  0  0
 15 37  1  0  0  0  0
 15 38  1  0  0  0  0
 19 39  1  0  0  0  0
M  END
> <Catalog ID>
Z237522472

> <PlateID>
1041831-R-16

> <Well>
F02

> <MW (desalted)>
369.361

> <ClogP>
2.965

> <HBD>
1

> <TPSA>
63.470

> <RotBonds>
5

> <ROCS_ShapeQuery>
A71EV2A-x0451_0A_A71EV2A-x0310_0A_A71EV2A-x0416_0A_peptide

> <ROCS_TanimotoCombo>
0.512 

> <ROCS_ShapeTanimoto>
0.335 

> <ROCS_ColorTanimoto>
0.177 

> <ROCS_RefTversky>
0.303 

> <ROCS_RefColorTversky>
0.196 

> <ROCS_RefTverskyCombo>
0.499 

> <ROCS_FitTversky>
1.456 

> <ROCS_FitColorTversky>
0.650 

> <ROCS_FitTverskyCombo>
2.106 

> <ROCS_ColorScore>
-5.989

> <ROCS_Overlap>
2106.489

> <ROCS_Rank>
489                 

$$$$
untitled-dbase-276_604
  -OEChem-11132311063D

 47 50  0     0  0  0  0  0  0999 V2000
    3.9869   12.4735   28.6715 C   0  0  0  0  0  0  0  0  0  0  0  0
    4.8432   13.5239   28.3411 C   0  0  0  0  0  0  0  0  0  0  0  0
    4.1526   11.2242   28.0735 C   0  0  0  0  0  0  0  0  0  0  0  0
    5.8650   13.3251   27.4127 C   0  0  0  0  0  0  0  0  0  0  0  0
    5.1744   11.0254   27.1451 C   0  0  0  0  0  0  0  0  0  0  0  0
   10.0821    9.2954   23.7174 C   0  0  0  0  0  0  0  0  0  0  0  0
   10.1586    8.2792   22.7353 C   0  0  0  0  0  0  0  0  0  0  0  0
    7.9510   12.8193   25.4812 C   0  0  0  0  0  0  0  0  0  0  0  0
    8.7643   12.1924   24.5691 C   0  0  0  0  0  0  0  0  0  0  0  0
    6.0307   12.0758   26.8147 C   0  0  0  0  0  0  0  0  0  0  0  0
    8.2674   10.8771   24.5001 C   0  0  0  0  0  0  0  0  0  0  0  0
    8.8013    9.7929   23.6533 C   0  0  0  0  0  0  0  0  0  0  0  0
    8.9191    8.2279   22.1412 C   0  0  0  0  0  0  0  0  0  0  0  0
    9.9004   12.8256   23.8510 C   0  0  0  0  0  0  0  0  0  0  0  0
   12.6037   12.5853   22.4719 C   0  0  0  0  0  0  0  0  0  0  0  0
   11.0749   14.2960   21.4540 C   0  0  0  0  0  0  0  0  0  0  0  0
   13.7336   13.2234   21.6738 C   0  0  0  0  0  0  0  0  0  0  0  0
   12.2900   14.8371   20.7115 C   0  0  0  0  0  0  0  0  0  0  0  0
   11.2590   12.8133   21.7808 C   0  0  0  0  0  0  0  0  0  0  0  0
    8.3527    7.4017   21.0659 C   0  0  0  0  0  0  0  0  0  0  0  0
    7.2197   10.6789   25.3045 N   0  0  0  0  0  0  0  0  0  0  0  0
    7.0516   11.8780   25.8876 N   0  0  0  0  0  0  0  0  0  0  0  0
   10.1734   12.3201   22.5911 N   0  0  0  0  0  0  0  0  0  0  0  0
   10.5330   13.7228   24.4018 O   0  0  0  0  0  0  0  0  0  0  0  0
    8.0859    9.1475   22.6951 O   0  0  0  0  0  0  0  0  0  0  0  0
   13.4829   14.6127   21.4626 O   0  0  0  0  0  0  0  0  0  0  0  0
    3.1923   12.6273   29.3956 H   0  0  0  0  0  0  0  0  0  0  0  0
    4.7152   14.4963   28.8076 H   0  0  0  0  0  0  0  0  0  0  0  0
    3.4863   10.4064   28.3324 H   0  0  0  0  0  0  0  0  0  0  0  0
    6.5260   14.1521   27.1647 H   0  0  0  0  0  0  0  0  0  0  0  0
    5.2928   10.0464   26.6871 H   0  0  0  0  0  0  0  0  0  0  0  0
   10.8689    9.6172   24.3854 H   0  0  0  0  0  0  0  0  0  0  0  0
   11.0119    7.6615   22.4935 H   0  0  0  0  0  0  0  0  0  0  0  0
    7.9392   13.8319   25.8632 H   0  0  0  0  0  0  0  0  0  0  0  0
   12.7791   11.5063   22.5208 H   0  0  0  0  0  0  0  0  0  0  0  0
   12.5937   12.9619   23.4968 H   0  0  0  0  0  0  0  0  0  0  0  0
   10.8792   14.8812   22.3535 H   0  0  0  0  0  0  0  0  0  0  0  0
   10.2015   14.3903   20.8031 H   0  0  0  0  0  0  0  0  0  0  0  0
   14.7026   13.0981   22.1721 H   0  0  0  0  0  0  0  0  0  0  0  0
   13.8078   12.7468   20.6907 H   0  0  0  0  0  0  0  0  0  0  0  0
   12.3993   14.3211   19.7526 H   0  0  0  0  0  0  0  0  0  0  0  0
   12.1890   15.9075   20.4994 H   0  0  0  0  0  0  0  0  0  0  0  0
   11.2254   12.2280   20.8495 H   0  0  0  0  0  0  0  0  0  0  0  0
    7.8931    6.4797   21.4646 H   0  0  0  0  0  0  0  0  0  0  0  0
    7.5738    7.9363   20.4911 H   0  0  0  0  0  0  0  0  0  0  0  0
    9.1147    7.0964   20.3248 H   0  0  0  0  0  0  0  0  0  0  0  0
    9.6469   11.5345   22.2254 H   0  0  0  0  0  0  0  0  0  0  0  0
  1  2  2  0  0  0  0
  1  3  1  0  0  0  0
  2  4  1  0  0  0  0
  3  5  2  0  0  0  0
  4 10  2  0  0  0  0
  5 10  1  0  0  0  0
  6  7  1  0  0  0  0
  6 12  2  0  0  0  0
  7 13  2  0  0  0  0
  8  9  2  0  0  0  0
  8 22  1  0  0  0  0
  9 11  1  0  0  0  0
  9 14  1  0  0  0  0
 10 22  1  0  0  0  0
 11 12  1  0  0  0  0
 11 21  2  0  0  0  0
 12 25  1  0  0  0  0
 13 20  1  0  0  0  0
 13 25  1  0  0  0  0
 14 23  1  0  0  0  0
 14 24  2  0  0  0  0
 15 17  1  0  0  0  0
 15 19  1  0  0  0  0
 16 18  1  0  0  0  0
 16 19  1  0  0  0  0
 17 26  1  0  0  0  0
 18 26  1  0  0  0  0
 19 23  1  0  0  0  0
 21 22  1  0  0  0  0
  1 27  1  0  0  0  0
  2 28  1  0  0  0  0
  3 29  1  0  0  0  0
  4 30  1  0  0  0  0
  5 31  1  0  0  0  0
  6 32  1  0  0  0  0
  7 33  1  0  0  0  0
  8 34  1  0  0  0  0
 15 35  1  0  0  0  0
 15 36  1  0  0  0  0
 16 37  1  0  0  0  0
 16 38  1  0  0  0  0
 17 39  1  0  0  0  0
 17 40  1  0  0  0  0
 18 41  1  0  0  0  0
 18 42  1  0  0  0  0
 19 43  1  0  0  0  0
 20 44  1  0  0  0  0
 20 45  1  0  0  0  0
 20 46  1  0  0  0  0
 23 47  1  0  0  0  0
M  END
> <Catalog ID>
Z738556796

> <PlateID>
1041831-R-04

> <Well>
D07

> <MW (desalted)>
351.399

> <ClogP>
2.495

> <HBD>
1

> <TPSA>
69.290

> <RotBonds>
4

> <ROCS_ShapeQuery>
A71EV2A-x0451_0A_A71EV2A-x0310_0A_A71EV2A-x0416_0A_peptide

> <ROCS_TanimotoCombo>
0.512 

> <ROCS_ShapeTanimoto>
0.353 

> <ROCS_ColorTanimoto>
0.159 

> <ROCS_RefTversky>
0.318 

> <ROCS_RefColorTversky>
0.182 

> <ROCS_RefTverskyCombo>
0.500 

> <ROCS_FitTversky>
1.467 

> <ROCS_FitColorTversky>
0.550 

> <ROCS_FitTverskyCombo>
2.017 

> <ROCS_ColorScore>
-5.578

> <ROCS_Overlap>
2209.820

> <ROCS_Rank>
490                 

$$$$
untitled-dbase-2452_1009
  -OEChem-11132311063D

 47 50  0     1  0  0  0  0  0999 V2000
   14.3692   16.3822   18.7802 C   0  0  0  0  0  0  0  0  0  0  0  0
   14.3268   16.2004   20.1642 C   0  0  0  0  0  0  0  0  0  0  0  0
   11.9732   15.5907   20.0584 C   0  0  0  0  0  0  0  0  0  0  0  0
   13.2135   16.1526   18.0528 C   0  0  0  0  0  0  0  0  0  0  0  0
   12.0277   15.7612   18.6855 C   0  0  0  0  0  0  0  0  0  0  0  0
   13.1375   15.8074   20.7987 C   0  0  0  0  0  0  0  0  0  0  0  0
   11.3960   13.3303   24.0094 C   0  0  0  0  0  0  0  0  0  0  0  0
   13.0034   16.3153   16.5806 C   0  0  0  0  0  0  0  0  0  0  0  0
   10.9144   15.6274   17.6951 C   0  0  0  0  0  0  0  0  0  0  0  0
   11.6988   15.5300   16.3779 C   0  0  0  0  0  0  0  0  0  0  0  0
    6.9235   10.5748   23.8478 C   0  0  0  0  0  0  0  0  0  0  0  0
    7.2237   11.9525   24.4406 C   0  0  0  0  0  0  0  0  0  0  0  0
    9.1804   10.5401   22.7348 C   0  0  0  0  0  0  0  0  0  0  0  0
    9.4591   11.9396   23.2971 C   0  0  1  0  0  0  0  0  0  0  0  0
    8.3067    9.9271   23.8293 C   0  0  1  0  0  0  0  0  0  0  0  0
    8.7372   11.8881   24.6480 C   0  0  2  0  0  0  0  0  0  0  0  0
   12.9160   13.3090   24.0292 C   0  0  0  0  0  0  0  0  0  0  0  0
   13.5491   13.8910   22.7764 C   0  0  0  0  0  0  0  0  0  0  0  0
   10.8767   12.1690   23.4554 N   0  0  0  0  0  0  0  0  0  0  0  0
   10.7298   14.2763   24.4203 O   0  0  0  0  0  0  0  0  0  0  0  0
   14.1744   16.4169   23.0982 O   0  0  0  0  0  0  0  0  0  0  0  0
   11.7447   15.7578   23.0068 O   0  0  0  0  0  0  0  0  0  0  0  0
    8.9032   10.4981   25.0170 O   0  0  0  0  0  0  0  0  0  0  0  0
   13.1123   15.5975   22.5330 S   0  0  0  0  0  0  0  0  0  0  0  0
   15.2859   16.6968   18.2934 H   0  0  0  0  0  0  0  0  0  0  0  0
   15.2268   16.3732   20.7491 H   0  0  0  0  0  0  0  0  0  0  0  0
   11.0464   15.2984   20.5418 H   0  0  0  0  0  0  0  0  0  0  0  0
   12.8708   17.3736   16.3335 H   0  0  0  0  0  0  0  0  0  0  0  0
   13.8203   15.8909   15.9905 H   0  0  0  0  0  0  0  0  0  0  0  0
   10.3068   14.7338   17.8642 H   0  0  0  0  0  0  0  0  0  0  0  0
   10.2829   16.5215   17.7148 H   0  0  0  0  0  0  0  0  0  0  0  0
   11.1222   15.8913   15.5204 H   0  0  0  0  0  0  0  0  0  0  0  0
   11.9415   14.4759   16.1827 H   0  0  0  0  0  0  0  0  0  0  0  0
    6.2498   10.0280   24.5171 H   0  0  0  0  0  0  0  0  0  0  0  0
    6.4611   10.6247   22.8577 H   0  0  0  0  0  0  0  0  0  0  0  0
    6.9133   12.7764   23.7916 H   0  0  0  0  0  0  0  0  0  0  0  0
    6.7076   12.0560   25.4019 H   0  0  0  0  0  0  0  0  0  0  0  0
    8.6835   10.5664   21.7601 H   0  0  0  0  0  0  0  0  0  0  0  0
   10.1077    9.9646   22.6282 H   0  0  0  0  0  0  0  0  0  0  0  0
    9.0773   12.7363   22.6509 H   0  0  0  0  0  0  0  0  0  0  0  0
    8.2994    8.8352   23.8476 H   0  0  0  0  0  0  0  0  0  0  0  0
    9.1133   12.5744   25.4109 H   0  0  0  0  0  0  0  0  0  0  0  0
   13.2683   13.8434   24.9194 H   0  0  0  0  0  0  0  0  0  0  0  0
   13.2189   12.2594   24.1267 H   0  0  0  0  0  0  0  0  0  0  0  0
   13.2566   13.3496   21.8722 H   0  0  0  0  0  0  0  0  0  0  0  0
   14.6403   13.8675   22.8589 H   0  0  0  0  0  0  0  0  0  0  0  0
   11.5222   11.4477   23.1472 H   0  0  0  0  0  0  0  0  0  0  0  0
  1  2  1  0  0  0  0
  1  4  2  0  0  0  0
  2  6  2  0  0  0  0
  3  5  2  0  0  0  0
  3  6  1  0  0  0  0
  4  5  1  0  0  0  0
  4  8  1  0  0  0  0
  5  9  1  0  0  0  0
  6 24  1  0  0  0  0
  7 17  1  0  0  0  0
  7 19  1  0  0  0  0
  7 20  2  0  0  0  0
  8 10  1  0  0  0  0
  9 10  1  0  0  0  0
 11 12  1  0  0  0  0
 11 15  1  0  0  0  0
 12 16  1  0  0  0  0
 13 14  1  0  0  0  0
 13 15  1  0  0  0  0
 14 16  1  0  0  0  0
 14 19  1  0  0  0  0
 15 23  1  0  0  0  0
 16 23  1  0  0  0  0
 17 18  1  0  0  0  0
 18 24  1  0  0  0  0
 21 24  2  0  0  0  0
 22 24  2  0  0  0  0
  1 25  1  0  0  0  0
  2 26  1  0  0  0  0
  3 27  1  0  0  0  0
  8 28  1  0  0  0  0
  8 29  1  0  0  0  0
  9 30  1  0  0  0  0
  9 31  1  0  0  0  0
 10 32  1  0  0  0  0
 10 33  1  0  0  0  0
 11 34  1  0  0  0  0
 11 35  1  0  0  0  0
 12 36  1  0  0  0  0
 12 37  1  0  0  0  0
 13 38  1  0  0  0  0
 13 39  1  0  0  0  0
 14 40  1  0  0  0  0
 15 41  1  0  0  0  0
 16 42  1  0  0  0  0
 17 43  1  0  0  0  0
 17 44  1  0  0  0  0
 18 45  1  0  0  0  0
 18 46  1  0  0  0  0
 19 47  1  0  0  0  0
M  END
> <Catalog ID>
Z1414497683

> <PlateID>
1041831-R-31

> <Well>
F03

> <MW (desalted)>
349.445

> <ClogP>
1.554

> <HBD>
1

> <TPSA>
72.470

> <RotBonds>
5

> <ROCS_ShapeQuery>
A71EV2A-x0451_0A_A71EV2A-x0310_0A_A71EV2A-x0416_0A_peptide

> <ROCS_TanimotoCombo>
0.512 

> <ROCS_ShapeTanimoto>
0.285 

> <ROCS_ColorTanimoto>
0.228 

> <ROCS_RefTversky>
0.265 

> <ROCS_RefColorTversky>
0.271 

> <ROCS_RefTverskyCombo>
0.537 

> <ROCS_FitTversky>
1.340 

> <ROCS_FitColorTversky>
0.585 

> <ROCS_FitTverskyCombo>
1.925 

> <ROCS_ColorScore>
-8.359

> <ROCS_Overlap>
1844.627

> <ROCS_Rank>
491                 

$$$$
untitled-dbase-1023_9902
  -OEChem-11132311063D

 52 54  0     1  0  0  0  0  0999 V2000
    3.4132   11.8474   29.3223 C   0  0  0  0  0  0  0  0  0  0  0  0
    3.2133   12.5827   28.1540 C   0  0  0  0  0  0  0  0  0  0  0  0
    4.6646   11.2936   29.5923 C   0  0  0  0  0  0  0  0  0  0  0  0
    4.2648   12.7642   27.2557 C   0  0  0  0  0  0  0  0  0  0  0  0
    5.7161   11.4751   28.6940 C   0  0  0  0  0  0  0  0  0  0  0  0
    5.5163   12.2104   27.5256 C   0  0  0  0  0  0  0  0  0  0  0  0
   11.7058   16.0823   19.0828 C   0  0  0  0  0  0  0  0  0  0  0  0
   11.5887   15.3211   20.3170 C   0  0  0  0  0  0  0  0  0  0  0  0
   12.6837   14.7778   20.8915 C   0  0  0  0  0  0  0  0  0  0  0  0
   12.8957   16.2676   18.4950 C   0  0  0  0  0  0  0  0  0  0  0  0
   14.0263   14.9923   20.2341 C   0  0  0  0  0  0  0  0  0  0  0  0
    8.5161   10.4685   23.9295 C   0  0  0  0  0  0  0  0  0  0  0  0
   10.5634   13.4194   23.2661 C   0  0  0  0  0  0  0  0  0  0  0  0
    9.6581   11.1014   23.1725 C   0  0  0  0  0  0  0  0  0  0  0  0
    8.4210   12.7912   24.3583 C   0  0  0  0  0  0  0  0  0  0  0  0
    9.3071   12.5847   23.1456 C   0  0  1  0  0  0  0  0  0  0  0  0
   10.1838   15.2287   20.8453 C   0  0  0  0  0  0  0  0  0  0  0  0
   13.0838   17.0376   17.2273 C   0  0  0  0  0  0  0  0  0  0  0  0
    6.6542   12.4061   26.5541 C   0  0  0  0  0  0  0  0  0  0  0  0
   12.7173   13.9467   22.1413 C   0  0  0  0  0  0  0  0  0  0  0  0
    6.7288   11.3086   25.4954 C   0  0  0  0  0  0  0  0  0  0  0  0
   14.0246   15.7317   19.0662 N   0  0  0  0  0  0  0  0  0  0  0  0
    7.8384   11.4903   24.5843 N   0  0  0  0  0  0  0  0  0  0  0  0
   11.4665   13.2518   22.2249 N   0  0  0  0  0  0  0  0  0  0  0  0
   15.0543   14.5280   20.7247 O   0  0  0  0  0  0  0  0  0  0  0  0
    8.2893    9.2680   23.9644 O   0  0  0  0  0  0  0  0  0  0  0  0
   10.7049   14.1624   24.2302 O   0  0  0  0  0  0  0  0  0  0  0  0
    2.5947   11.7073   30.0223 H   0  0  0  0  0  0  0  0  0  0  0  0
    2.2392   13.0150   27.9441 H   0  0  0  0  0  0  0  0  0  0  0  0
    4.8209   10.7220   30.5023 H   0  0  0  0  0  0  0  0  0  0  0  0
    4.0998   13.3385   26.3478 H   0  0  0  0  0  0  0  0  0  0  0  0
    6.6877   11.0398   28.9126 H   0  0  0  0  0  0  0  0  0  0  0  0
   10.8024   16.4969   18.6457 H   0  0  0  0  0  0  0  0  0  0  0  0
   10.6064   10.8936   23.6757 H   0  0  0  0  0  0  0  0  0  0  0  0
    9.6722   10.6780   22.1630 H   0  0  0  0  0  0  0  0  0  0  0  0
    8.9711   13.1141   25.2479 H   0  0  0  0  0  0  0  0  0  0  0  0
    7.6056   13.4928   24.1524 H   0  0  0  0  0  0  0  0  0  0  0  0
    8.8163   12.8695   22.2246 H   0  0  0  0  0  0  0  0  0  0  0  0
    9.7007   14.3493   20.4288 H   0  0  0  0  0  0  0  0  0  0  0  0
    9.6328   16.1208   20.5598 H   0  0  0  0  0  0  0  0  0  0  0  0
   10.2117   15.1544   21.9290 H   0  0  0  0  0  0  0  0  0  0  0  0
   13.2639   18.0869   17.4577 H   0  0  0  0  0  0  0  0  0  0  0  0
   12.1910   16.9521   16.6086 H   0  0  0  0  0  0  0  0  0  0  0  0
   13.9346   16.6377   16.6767 H   0  0  0  0  0  0  0  0  0  0  0  0
    7.5944   12.4290   27.1194 H   0  0  0  0  0  0  0  0  0  0  0  0
    6.5669   13.3890   26.0736 H   0  0  0  0  0  0  0  0  0  0  0  0
   12.8527   14.6096   22.9934 H   0  0  0  0  0  0  0  0  0  0  0  0
   13.5479   13.2476   22.0692 H   0  0  0  0  0  0  0  0  0  0  0  0
    6.8713   10.3357   25.9762 H   0  0  0  0  0  0  0  0  0  0  0  0
    5.8135   11.2625   24.8961 H   0  0  0  0  0  0  0  0  0  0  0  0
   14.9142   15.8889   18.6009 H   0  0  0  0  0  0  0  0  0  0  0  0
   11.2265   12.5979   21.4782 H   0  0  0  0  0  0  0  0  0  0  0  0
  1  2  2  0  0  0  0
  1  3  1  0  0  0  0
  2  4  1  0  0  0  0
  3  5  2  0  0  0  0
  4  6  2  0  0  0  0
  5  6  1  0  0  0  0
  6 19  1  0  0  0  0
  7  8  1  0  0  0  0
  7 10  2  0  0  0  0
  8  9  2  0  0  0  0
  8 17  1  0  0  0  0
  9 11  1  0  0  0  0
  9 20  1  0  0  0  0
 10 18  1  0  0  0  0
 10 22  1  0  0  0  0
 11 22  1  0  0  0  0
 11 25  2  0  0  0  0
 12 14  1  0  0  0  0
 12 23  1  0  0  0  0
 12 26  2  0  0  0  0
 13 16  1  0  0  0  0
 13 24  1  0  0  0  0
 13 27  2  0  0  0  0
 14 16  1  0  0  0  0
 15 16  1  0  0  0  0
 15 23  1  0  0  0  0
 19 21  1  0  0  0  0
 20 24  1  0  0  0  0
 21 23  1  0  0  0  0
  1 28  1  0  0  0  0
  2 29  1  0  0  0  0
  3 30  1  0  0  0  0
  4 31  1  0  0  0  0
  5 32  1  0  0  0  0
  7 33  1  0  0  0  0
 14 34  1  0  0  0  0
 14 35  1  0  0  0  0
 15 36  1  0  0  0  0
 15 37  1  0  0  0  0
 16 38  1  0  0  0  0
 17 39  1  0  0  0  0
 17 40  1  0  0  0  0
 17 41  1  0  0  0  0
 18 42  1  0  0  0  0
 18 43  1  0  0  0  0
 18 44  1  0  0  0  0
 19 45  1  0  0  0  0
 19 46  1  0  0  0  0
 20 47  1  0  0  0  0
 20 48  1  0  0  0  0
 21 49  1  0  0  0  0
 21 50  1  0  0  0  0
 22 51  1  0  0  0  0
 24 52  1  0  0  0  0
M  END
> <Catalog ID>
Z109714150

> <PlateID>
1041831-R-13

> <Well>
G04

> <MW (desalted)>
367.442

> <ClogP>
1.733

> <HBD>
2

> <TPSA>
78.510

> <RotBonds>
6

> <ROCS_ShapeQuery>
A71EV2A-x0451_0A_A71EV2A-x0310_0A_A71EV2A-x0416_0A_peptide

> <ROCS_TanimotoCombo>
0.512 

> <ROCS_ShapeTanimoto>
0.337 

> <ROCS_ColorTanimoto>
0.175 

> <ROCS_RefTversky>
0.307 

> <ROCS_RefColorTversky>
0.193 

> <ROCS_RefTverskyCombo>
0.500 

> <ROCS_FitTversky>
1.416 

> <ROCS_FitColorTversky>
0.643 

> <ROCS_FitTverskyCombo>
2.059 

> <ROCS_ColorScore>
-5.905

> <ROCS_Overlap>
2135.584

> <ROCS_Rank>
492                 

$$$$
untitled-dbase-2598_98
  -OEChem-11132311063D

 45 48  0     1  0  0  0  0  0999 V2000
   14.7970   16.4452   22.6184 C   0  0  0  0  0  0  0  0  0  0  0  0
   14.7584   15.1321   23.0814 C   0  0  0  0  0  0  0  0  0  0  0  0
   13.7124   16.9693   21.9167 C   0  0  0  0  0  0  0  0  0  0  0  0
   13.6312   14.3425   22.8521 C   0  0  0  0  0  0  0  0  0  0  0  0
   12.5821   16.1795   21.6710 C   0  0  0  0  0  0  0  0  0  0  0  0
   12.5261   14.8629   22.1631 C   0  0  0  0  0  0  0  0  0  0  0  0
   10.7671   13.3685   23.1207 C   0  0  0  0  0  0  0  0  0  0  0  0
   11.4043   16.7523   20.9284 C   0  0  0  0  0  0  0  0  0  0  0  0
    7.3244   10.1893   25.5152 C   0  0  0  0  0  0  0  0  0  0  0  0
    8.0559   11.4549   25.9864 C   0  0  0  0  0  0  0  0  0  0  0  0
    7.1357   11.8463   23.8316 C   0  0  0  0  0  0  0  0  0  0  0  0
   10.5332   15.6401   20.3601 C   0  0  0  0  0  0  0  0  0  0  0  0
   11.3128   14.0064   21.8877 C   0  0  1  0  0  0  0  0  0  0  0  0
    7.3273   10.3347   23.9834 C   0  0  1  0  0  0  0  0  0  0  0  0
    8.3755   12.1800   24.6665 C   0  0  2  0  0  0  0  0  0  0  0  0
    8.7464   10.1637   23.3875 C   0  0  1  0  0  0  0  0  0  0  0  0
    9.4965   11.3966   23.9451 C   0  0  1  0  0  0  0  0  0  0  0  0
    9.4347    8.8452   23.7077 C   0  0  0  0  0  0  0  0  0  0  0  0
   10.0991   12.1779   22.8941 N   0  0  0  0  0  0  0  0  0  0  0  0
   10.9364   13.9101   24.2068 O   0  0  0  0  0  0  0  0  0  0  0  0
   10.1800   14.7432   21.4114 O   0  0  0  0  0  0  0  0  0  0  0  0
    8.6393    7.7839   23.2084 O   0  0  0  0  0  0  0  0  0  0  0  0
   15.6735   17.0600   22.8012 H   0  0  0  0  0  0  0  0  0  0  0  0
   15.6069   14.7218   23.6213 H   0  0  0  0  0  0  0  0  0  0  0  0
   13.7543   17.9948   21.5590 H   0  0  0  0  0  0  0  0  0  0  0  0
   13.6221   13.3178   23.2148 H   0  0  0  0  0  0  0  0  0  0  0  0
   10.8216   17.3516   21.6383 H   0  0  0  0  0  0  0  0  0  0  0  0
   11.7397   17.4050   20.1149 H   0  0  0  0  0  0  0  0  0  0  0  0
    7.8023    9.2735   25.8715 H   0  0  0  0  0  0  0  0  0  0  0  0
    6.2964   10.1933   25.8967 H   0  0  0  0  0  0  0  0  0  0  0  0
    7.3932   12.0611   26.6143 H   0  0  0  0  0  0  0  0  0  0  0  0
    8.9536   11.2197   26.5667 H   0  0  0  0  0  0  0  0  0  0  0  0
    7.2013   12.1920   22.7949 H   0  0  0  0  0  0  0  0  0  0  0  0
    6.2043   12.2110   24.2780 H   0  0  0  0  0  0  0  0  0  0  0  0
    9.6107   16.0611   19.9481 H   0  0  0  0  0  0  0  0  0  0  0  0
   11.0382   15.0899   19.5564 H   0  0  0  0  0  0  0  0  0  0  0  0
   11.5587   13.2262   21.1587 H   0  0  0  0  0  0  0  0  0  0  0  0
    6.5715    9.7223   23.4864 H   0  0  0  0  0  0  0  0  0  0  0  0
    8.5837   13.2438   24.8032 H   0  0  0  0  0  0  0  0  0  0  0  0
    8.6606   10.2336   22.2938 H   0  0  0  0  0  0  0  0  0  0  0  0
   10.3045   11.1241   24.6329 H   0  0  0  0  0  0  0  0  0  0  0  0
    9.5457    8.7315   24.7875 H   0  0  0  0  0  0  0  0  0  0  0  0
   10.4175    8.8090   23.2344 H   0  0  0  0  0  0  0  0  0  0  0  0
   10.0298   11.8370   21.9381 H   0  0  0  0  0  0  0  0  0  0  0  0
    9.1007    6.9564   23.4259 H   0  0  0  0  0  0  0  0  0  0  0  0
  1  2  2  0  0  0  0
  1  3  1  0  0  0  0
  2  4  1  0  0  0  0
  3  5  2  0  0  0  0
  4  6  2  0  0  0  0
  5  6  1  0  0  0  0
  5  8  1  0  0  0  0
  6 13  1  0  0  0  0
  7 13  1  0  0  0  0
  7 19  1  0  0  0  0
  7 20  2  0  0  0  0
  8 12  1  0  0  0  0
  9 10  1  0  0  0  0
  9 14  1  0  0  0  0
 10 15  1  0  0  0  0
 11 14  1  0  0  0  0
 11 15  1  0  0  0  0
 12 21  1  0  0  0  0
 13 21  1  0  0  0  0
 14 16  1  0  0  0  0
 15 17  1  0  0  0  0
 16 17  1  0  0  0  0
 16 18  1  0  0  0  0
 17 19  1  0  0  0  0
 18 22  1  0  0  0  0
  1 23  1  0  0  0  0
  2 24  1  0  0  0  0
  3 25  1  0  0  0  0
  4 26  1  0  0  0  0
  8 27  1  0  0  0  0
  8 28  1  0  0  0  0
  9 29  1  0  0  0  0
  9 30  1  0  0  0  0
 10 31  1  0  0  0  0
 10 32  1  0  0  0  0
 11 33  1  0  0  0  0
 11 34  1  0  0  0  0
 12 35  1  0  0  0  0
 12 36  1  0  0  0  0
 13 37  1  0  0  0  0
 14 38  1  0  0  0  0
 15 39  1  0  0  0  0
 16 40  1  0  0  0  0
 17 41  1  0  0  0  0
 18 42  1  0  0  0  0
 18 43  1  0  0  0  0
 19 44  1  0  0  0  0
 22 45  1  0  0  0  0
M  END
> <Catalog ID>
Z1538566978

> <PlateID>
1041831-R-33

> <Well>
D09

> <MW (desalted)>
301.380

> <ClogP>
2.445

> <HBD>
2

> <TPSA>
58.560

> <RotBonds>
3

> <ROCS_ShapeQuery>
A71EV2A-x0451_0A_A71EV2A-x0310_0A_A71EV2A-x0416_0A_peptide

> <ROCS_TanimotoCombo>
0.512 

> <ROCS_ShapeTanimoto>
0.322 

> <ROCS_ColorTanimoto>
0.190 

> <ROCS_RefTversky>
0.289 

> <ROCS_RefColorTversky>
0.234 

> <ROCS_RefTverskyCombo>
0.523 

> <ROCS_FitTversky>
1.532 

> <ROCS_FitColorTversky>
0.506 

> <ROCS_FitTverskyCombo>
2.038 

> <ROCS_ColorScore>
-7.198

> <ROCS_Overlap>
2010.294

> <ROCS_Rank>
493                 

$$$$
untitled-dbase-2006_1595
  -OEChem-11132311063D

 50 52  0     0  0  0  0  0  0999 V2000
    4.6103   12.0981   26.5168 C   0  0  0  0  0  0  0  0  0  0  0  0
    6.3637   11.9442   28.1719 C   0  0  0  0  0  0  0  0  0  0  0  0
    3.6859   12.3806   27.5224 C   0  0  0  0  0  0  0  0  0  0  0  0
    5.4393   12.2268   29.1775 C   0  0  0  0  0  0  0  0  0  0  0  0
    5.9492   11.8798   26.8416 C   0  0  0  0  0  0  0  0  0  0  0  0
    4.1004   12.4450   28.8527 C   0  0  0  0  0  0  0  0  0  0  0  0
   11.5900   15.8361   22.2051 C   0  0  0  0  0  0  0  0  0  0  0  0
   10.8265   12.9588   23.5477 C   0  0  0  0  0  0  0  0  0  0  0  0
   11.0580   17.0073   21.4049 C   0  0  0  0  0  0  0  0  0  0  0  0
    8.0583   12.4692   23.8866 C   0  0  0  0  0  0  0  0  0  0  0  0
    9.1354   10.7857   25.4042 C   0  0  0  0  0  0  0  0  0  0  0  0
    6.6957   12.1275   24.4905 C   0  0  0  0  0  0  0  0  0  0  0  0
    7.7611   10.4475   25.9763 C   0  0  0  0  0  0  0  0  0  0  0  0
    9.8728   15.5554   19.9327 C   0  0  0  0  0  0  0  0  0  0  0  0
   10.2007   14.3302   20.7648 C   0  0  0  0  0  0  0  0  0  0  0  0
    9.0240   11.2857   23.9625 C   0  0  0  0  0  0  0  0  0  0  0  0
   11.0716   10.5724   22.7987 C   0  0  0  0  0  0  0  0  0  0  0  0
   11.7669   13.3825   22.4332 C   0  0  0  0  0  0  0  0  0  0  0  0
    9.7636   16.7173   20.8032 N   0  0  0  0  0  0  0  0  0  0  0  0
    6.8618   11.6009   25.8489 N   0  0  0  0  0  0  0  0  0  0  0  0
   11.2426   14.5629   21.7611 N   0  0  0  0  0  0  0  0  0  0  0  0
   10.3188   11.6501   23.4426 N   0  0  0  0  0  0  0  0  0  0  0  0
   12.3577   16.0532   23.1467 O   0  0  0  0  0  0  0  0  0  0  0  0
   10.5490   13.7324   24.4680 O   0  0  0  0  0  0  0  0  0  0  0  0
    3.2126   12.7163   29.8184 F   0  0  0  0  0  0  0  0  0  0  0  0
    4.2766   12.0506   25.4834 H   0  0  0  0  0  0  0  0  0  0  0  0
    7.4045   11.7756   28.4362 H   0  0  0  0  0  0  0  0  0  0  0  0
    2.6435   12.5508   27.2700 H   0  0  0  0  0  0  0  0  0  0  0  0
    5.7613   12.2767   30.2134 H   0  0  0  0  0  0  0  0  0  0  0  0
   11.0072   17.8864   22.0602 H   0  0  0  0  0  0  0  0  0  0  0  0
   11.7753   17.2253   20.6044 H   0  0  0  0  0  0  0  0  0  0  0  0
    7.9205   12.7491   22.8370 H   0  0  0  0  0  0  0  0  0  0  0  0
    8.4798   13.3436   24.3903 H   0  0  0  0  0  0  0  0  0  0  0  0
    9.6286   11.5287   26.0313 H   0  0  0  0  0  0  0  0  0  0  0  0
    9.7583    9.8890   25.4211 H   0  0  0  0  0  0  0  0  0  0  0  0
    6.0533   13.0169   24.5058 H   0  0  0  0  0  0  0  0  0  0  0  0
    6.2093   11.3810   23.8505 H   0  0  0  0  0  0  0  0  0  0  0  0
    7.3549    9.5882   25.4271 H   0  0  0  0  0  0  0  0  0  0  0  0
    7.8470   10.1527   27.0304 H   0  0  0  0  0  0  0  0  0  0  0  0
   10.6730   15.7210   19.1995 H   0  0  0  0  0  0  0  0  0  0  0  0
    8.9462   15.4052   19.3603 H   0  0  0  0  0  0  0  0  0  0  0  0
    9.3012   13.9838   21.2800 H   0  0  0  0  0  0  0  0  0  0  0  0
   10.5580   13.5236   20.1172 H   0  0  0  0  0  0  0  0  0  0  0  0
    8.6590   10.4769   23.3235 H   0  0  0  0  0  0  0  0  0  0  0  0
   11.6940   10.0608   23.5477 H   0  0  0  0  0  0  0  0  0  0  0  0
   10.3708    9.8525   22.3509 H   0  0  0  0  0  0  0  0  0  0  0  0
   11.7159   10.9940   22.0130 H   0  0  0  0  0  0  0  0  0  0  0  0
   12.7469   13.6426   22.8416 H   0  0  0  0  0  0  0  0  0  0  0  0
   11.8541   12.5895   21.6860 H   0  0  0  0  0  0  0  0  0  0  0  0
    9.0903   16.5205   21.5432 H   0  0  0  0  0  0  0  0  0  0  0  0
  1  3  1  0  0  0  0
  1  5  2  0  0  0  0
  2  4  2  0  0  0  0
  2  5  1  0  0  0  0
  3  6  2  0  0  0  0
  4  6  1  0  0  0  0
  5 20  1  0  0  0  0
  6 25  1  0  0  0  0
  7  9  1  0  0  0  0
  7 21  1  0  0  0  0
  7 23  2  0  0  0  0
  8 18  1  0  0  0  0
  8 22  1  0  0  0  0
  8 24  2  0  0  0  0
  9 19  1  0  0  0  0
 10 12  1  0  0  0  0
 10 16  1  0  0  0  0
 11 13  1  0  0  0  0
 11 16  1  0  0  0  0
 12 20  1  0  0  0  0
 13 20  1  0  0  0  0
 14 15  1  0  0  0  0
 14 19  1  0  0  0  0
 15 21  1  0  0  0  0
 16 22  1  0  0  0  0
 17 22  1  0  0  0  0
 18 21  1  0  0  0  0
  1 26  1  0  0  0  0
  2 27  1  0  0  0  0
  3 28  1  0  0  0  0
  4 29  1  0  0  0  0
  9 30  1  0  0  0  0
  9 31  1  0  0  0  0
 10 32  1  0  0  0  0
 10 33  1  0  0  0  0
 11 34  1  0  0  0  0
 11 35  1  0  0  0  0
 12 36  1  0  0  0  0
 12 37  1  0  0  0  0
 13 38  1  0  0  0  0
 13 39  1  0  0  0  0
 14 40  1  0  0  0  0
 14 41  1  0  0  0  0
 15 42  1  0  0  0  0
 15 43  1  0  0  0  0
 16 44  1  0  0  0  0
 17 45  1  0  0  0  0
 17 46  1  0  0  0  0
 17 47  1  0  0  0  0
 18 48  1  0  0  0  0
 18 49  1  0  0  0  0
 19 50  1  0  0  0  0
M  END
> <Catalog ID>
Z1459722805

> <PlateID>
1041831-R-26

> <Well>
A07

> <MW (desalted)>
348.415

> <ClogP>
1.801

> <HBD>
1

> <TPSA>
55.890

> <RotBonds>
4

> <ROCS_ShapeQuery>
A71EV2A-x0451_0A_A71EV2A-x0310_0A_A71EV2A-x0416_0A_peptide

> <ROCS_TanimotoCombo>
0.512 

> <ROCS_ShapeTanimoto>
0.303 

> <ROCS_ColorTanimoto>
0.209 

> <ROCS_RefTversky>
0.280 

> <ROCS_RefColorTversky>
0.219 

> <ROCS_RefTverskyCombo>
0.500 

> <ROCS_FitTversky>
1.369 

> <ROCS_FitColorTversky>
0.812 

> <ROCS_FitTverskyCombo>
2.181 

> <ROCS_ColorScore>
-6.688

> <ROCS_Overlap>
1948.659

> <ROCS_Rank>
494                 

$$$$
untitled-dbase-2096_1183
  -OEChem-11132311063D

 51 55  0     1  0  0  0  0  0999 V2000
    9.3718    9.9056   22.6543 C   0  0  0  0  0  0  0  0  0  0  0  0
   10.2277   11.0138   22.7816 C   0  0  0  0  0  0  0  0  0  0  0  0
    8.2188    9.8041   23.4363 C   0  0  0  0  0  0  0  0  0  0  0  0
   11.3462   15.0483   20.0009 C   0  0  0  0  0  0  0  0  0  0  0  0
   12.5368   15.7016   19.7862 C   0  0  0  0  0  0  0  0  0  0  0  0
    9.9401   12.0335   23.6922 C   0  0  0  0  0  0  0  0  0  0  0  0
    7.9578   10.8243   24.3278 C   0  0  0  0  0  0  0  0  0  0  0  0
    8.7955   11.9091   24.4524 C   0  0  0  0  0  0  0  0  0  0  0  0
   12.5389   14.6351   21.7147 C   0  0  0  0  0  0  0  0  0  0  0  0
   10.8354   13.1936   23.8262 C   0  0  0  0  0  0  0  0  0  0  0  0
   14.8744   10.7074   25.1343 C   0  0  0  0  0  0  0  0  0  0  0  0
   13.5634   12.5417   26.2587 C   0  0  0  0  0  0  0  0  0  0  0  0
   12.2940   10.7912   24.8194 C   0  0  0  0  0  0  0  0  0  0  0  0
   15.1939   10.1518   26.5221 C   0  0  0  0  0  0  0  0  0  0  0  0
   13.9385   11.9142   27.6023 C   0  0  0  0  0  0  0  0  0  0  0  0
    7.1480   12.1496   25.8344 C   0  0  0  0  0  0  0  0  0  0  0  0
   12.8934   11.7657   23.8412 C   0  0  2  0  0  0  0  0  0  0  0  0
   13.5855   11.4977   25.1639 C   0  0  0  0  0  0  0  0  0  0  0  0
   14.6344   15.8985   21.1324 C   0  0  0  0  0  0  0  0  0  0  0  0
   13.0534   14.1357   23.0338 C   0  0  0  0  0  0  0  0  0  0  0  0
   11.3537   14.3865   21.2032 N   0  0  0  0  0  0  0  0  0  0  0  0
   13.2905   15.4280   20.8927 N   0  0  0  0  0  0  0  0  0  0  0  0
   15.2250   11.2166   27.5284 N   0  0  0  0  0  0  0  0  0  0  0  0
   12.2210   13.0409   23.5732 N   0  0  0  0  0  0  0  0  0  0  0  0
   10.3043   14.2574   24.1430 O   0  0  0  0  0  0  0  0  0  0  0  0
    6.8895   10.8970   25.1677 O   0  0  0  0  0  0  0  0  0  0  0  0
    8.3563   12.7969   25.3856 O   0  0  0  0  0  0  0  0  0  0  0  0
    9.6103    9.1218   21.9403 H   0  0  0  0  0  0  0  0  0  0  0  0
   11.1188   11.0663   22.1603 H   0  0  0  0  0  0  0  0  0  0  0  0
    7.5563    8.9515   23.3397 H   0  0  0  0  0  0  0  0  0  0  0  0
   10.4839   15.0208   19.3508 H   0  0  0  0  0  0  0  0  0  0  0  0
   12.8983   16.3144   18.9722 H   0  0  0  0  0  0  0  0  0  0  0  0
   15.6874   11.3641   24.8001 H   0  0  0  0  0  0  0  0  0  0  0  0
   14.8177    9.8805   24.4163 H   0  0  0  0  0  0  0  0  0  0  0  0
   12.5767   13.0119   26.3455 H   0  0  0  0  0  0  0  0  0  0  0  0
   14.2765   13.3371   26.0070 H   0  0  0  0  0  0  0  0  0  0  0  0
   11.3907   11.0802   25.3444 H   0  0  0  0  0  0  0  0  0  0  0  0
   12.3320    9.7376   24.5675 H   0  0  0  0  0  0  0  0  0  0  0  0
   14.4554    9.3924   26.8074 H   0  0  0  0  0  0  0  0  0  0  0  0
   16.1715    9.6587   26.4962 H   0  0  0  0  0  0  0  0  0  0  0  0
   14.0048   12.7018   28.3606 H   0  0  0  0  0  0  0  0  0  0  0  0
   13.1559   11.2174   27.9271 H   0  0  0  0  0  0  0  0  0  0  0  0
    6.3021   12.8233   25.6554 H   0  0  0  0  0  0  0  0  0  0  0  0
    7.2283   11.9640   26.9117 H   0  0  0  0  0  0  0  0  0  0  0  0
   13.3246   11.3667   22.9464 H   0  0  0  0  0  0  0  0  0  0  0  0
   14.5683   16.8555   21.6567 H   0  0  0  0  0  0  0  0  0  0  0  0
   15.1736   15.1663   21.7398 H   0  0  0  0  0  0  0  0  0  0  0  0
   15.1506   16.0202   20.1761 H   0  0  0  0  0  0  0  0  0  0  0  0
   14.0779   13.7616   22.9320 H   0  0  0  0  0  0  0  0  0  0  0  0
   13.0729   14.9391   23.7776 H   0  0  0  0  0  0  0  0  0  0  0  0
   15.4372   10.8096   28.4389 H   0  0  0  0  0  0  0  0  0  0  0  0
  1  2  1  0  0  0  0
  1  3  2  0  0  0  0
  2  6  2  0  0  0  0
  3  7  1  0  0  0  0
  4  5  2  0  0  0  0
  4 21  1  0  0  0  0
  5 22  1  0  0  0  0
  6  8  1  0  0  0  0
  6 10  1  0  0  0  0
  7  8  2  0  0  0  0
  7 26  1  0  0  0  0
  8 27  1  0  0  0  0
  9 20  1  0  0  0  0
  9 21  2  0  0  0  0
  9 22  1  0  0  0  0
 10 24  1  0  0  0  0
 10 25  2  0  0  0  0
 11 14  1  0  0  0  0
 11 18  1  0  0  0  0
 12 15  1  0  0  0  0
 12 18  1  0  0  0  0
 13 17  1  0  0  0  0
 13 18  1  0  0  0  0
 14 23  1  0  0  0  0
 15 23  1  0  0  0  0
 16 26  1  0  0  0  0
 16 27  1  0  0  0  0
 17 18  1  0  0  0  0
 17 24  1  0  0  0  0
 19 22  1  0  0  0  0
 20 24  1  0  0  0  0
  1 28  1  0  0  0  0
  2 29  1  0  0  0  0
  3 30  1  0  0  0  0
  4 31  1  0  0  0  0
  5 32  1  0  0  0  0
 11 33  1  0  0  0  0
 11 34  1  0  0  0  0
 12 35  1  0  0  0  0
 12 36  1  0  0  0  0
 13 37  1  0  0  0  0
 13 38  1  0  0  0  0
 14 39  1  0  0  0  0
 14 40  1  0  0  0  0
 15 41  1  0  0  0  0
 15 42  1  0  0  0  0
 16 43  1  0  0  0  0
 16 44  1  0  0  0  0
 17 45  1  0  0  0  0
 19 46  1  0  0  0  0
 19 47  1  0  0  0  0
 19 48  1  0  0  0  0
 20 49  1  0  0  0  0
 20 50  1  0  0  0  0
 23 51  1  0  0  0  0
M  END
> <Catalog ID>
Z1762505299

> <PlateID>
1041831-R-27

> <Well>
B07

> <MW (desalted)>
368.430

> <ClogP>
1.001

> <HBD>
1

> <TPSA>
68.620

> <RotBonds>
4

> <ROCS_ShapeQuery>
A71EV2A-x0451_0A_A71EV2A-x0310_0A_A71EV2A-x0416_0A_peptide

> <ROCS_TanimotoCombo>
0.512 

> <ROCS_ShapeTanimoto>
0.362 

> <ROCS_ColorTanimoto>
0.150 

> <ROCS_RefTversky>
0.325 

> <ROCS_RefColorTversky>
0.182 

> <ROCS_RefTverskyCombo>
0.507 

> <ROCS_FitTversky>
1.455 

> <ROCS_FitColorTversky>
0.463 

> <ROCS_FitTverskyCombo>
1.918 

> <ROCS_ColorScore>
-5.587

> <ROCS_Overlap>
2260.931

> <ROCS_Rank>
495                 

$$$$
untitled-dbase-2944_2444
  -OEChem-11132311063D

 49 52  0     1  0  0  0  0  0999 V2000
   14.9959   14.7144   25.3697 C   0  0  0  0  0  0  0  0  0  0  0  0
   14.2157   15.7911   24.8850 C   0  0  0  0  0  0  0  0  0  0  0  0
   14.5740   13.5984   24.6852 C   0  0  0  0  0  0  0  0  0  0  0  0
   13.3727   15.2564   23.9386 C   0  0  0  0  0  0  0  0  0  0  0  0
   10.6732   13.9610   23.2372 C   0  0  0  0  0  0  0  0  0  0  0  0
    6.4443   12.1515   25.2461 C   0  0  0  0  0  0  0  0  0  0  0  0
    7.2876   12.4757   24.0138 C   0  0  0  0  0  0  0  0  0  0  0  0
   10.2251   14.8380   20.1957 C   0  0  0  0  0  0  0  0  0  0  0  0
   11.2047   15.9730   20.1655 C   0  0  0  0  0  0  0  0  0  0  0  0
    7.1940   11.0573   26.0144 C   0  0  0  0  0  0  0  0  0  0  0  0
    9.2696   10.6045   22.4392 C   0  0  0  0  0  0  0  0  0  0  0  0
    9.0408    9.3731   23.3090 C   0  0  0  0  0  0  0  0  0  0  0  0
    8.6928   11.9750   24.3733 C   0  0  1  0  0  0  0  0  0  0  0  0
   11.4900   14.7585   21.0059 C   0  0  0  0  0  0  0  0  0  0  0  0
    8.3956   10.6863   25.1483 C   0  0  2  0  0  0  0  0  0  0  0  0
   14.9751   12.1849   24.7209 C   0  0  0  0  0  0  0  0  0  0  0  0
   12.3090   15.8478   23.0595 C   0  0  0  0  0  0  0  0  0  0  0  0
    9.8446   12.9506   22.4636 C   0  0  0  0  0  0  0  0  0  0  0  0
    9.6335   11.7544   23.2724 N   0  0  2  0  0  0  0  0  0  0  0  0
   11.4603   14.8226   22.4651 N   0  0  0  0  0  0  0  0  0  0  0  0
   10.6339   13.9984   24.4699 O   0  0  0  0  0  0  0  0  0  0  0  0
   13.5848   13.9203   23.8108 O   0  0  0  0  0  0  0  0  0  0  0  0
    8.0117    9.6313   24.2624 O   0  0  0  0  0  0  0  0  0  0  0  0
   15.7689   14.7498   26.1240 H   0  0  0  0  0  0  0  0  0  0  0  0
   14.2644   16.8268   25.1895 H   0  0  0  0  0  0  0  0  0  0  0  0
    6.3286   13.0388   25.8789 H   0  0  0  0  0  0  0  0  0  0  0  0
    5.4402   11.8236   24.9574 H   0  0  0  0  0  0  0  0  0  0  0  0
    6.8732   11.9477   23.1477 H   0  0  0  0  0  0  0  0  0  0  0  0
    7.2725   13.5462   23.7858 H   0  0  0  0  0  0  0  0  0  0  0  0
    9.2879   14.9960   20.7152 H   0  0  0  0  0  0  0  0  0  0  0  0
   10.1504   14.2119   19.3150 H   0  0  0  0  0  0  0  0  0  0  0  0
   11.7897   16.1114   19.2646 H   0  0  0  0  0  0  0  0  0  0  0  0
   10.9248   16.8925   20.6648 H   0  0  0  0  0  0  0  0  0  0  0  0
    7.5334   11.4653   26.9737 H   0  0  0  0  0  0  0  0  0  0  0  0
    6.5424   10.2012   26.2178 H   0  0  0  0  0  0  0  0  0  0  0  0
   10.0731   10.3880   21.7257 H   0  0  0  0  0  0  0  0  0  0  0  0
    8.3619   10.8165   21.8614 H   0  0  0  0  0  0  0  0  0  0  0  0
    8.7141    8.5341   22.6860 H   0  0  0  0  0  0  0  0  0  0  0  0
    9.9569    9.0640   23.8270 H   0  0  0  0  0  0  0  0  0  0  0  0
    9.1428   12.6932   25.0732 H   0  0  0  0  0  0  0  0  0  0  0  0
   12.2589   14.0854   20.6424 H   0  0  0  0  0  0  0  0  0  0  0  0
    9.2401   10.3496   25.7610 H   0  0  0  0  0  0  0  0  0  0  0  0
   14.3825   11.6157   25.4591 H   0  0  0  0  0  0  0  0  0  0  0  0
   14.8480   11.6872   23.7417 H   0  0  0  0  0  0  0  0  0  0  0  0
   16.0414   12.0574   24.9851 H   0  0  0  0  0  0  0  0  0  0  0  0
   11.6675   16.5261   23.6326 H   0  0  0  0  0  0  0  0  0  0  0  0
   12.7516   16.4299   22.2444 H   0  0  0  0  0  0  0  0  0  0  0  0
    8.8622   13.3670   22.2266 H   0  0  0  0  0  0  0  0  0  0  0  0
   10.3681   12.6449   21.5541 H   0  0  0  0  0  0  0  0  0  0  0  0
  1  2  1  0  0  0  0
  1  3  2  0  0  0  0
  2  4  2  0  0  0  0
  3 16  1  0  0  0  0
  3 22  1  0  0  0  0
  4 17  1  0  0  0  0
  4 22  1  0  0  0  0
  5 18  1  0  0  0  0
  5 20  1  0  0  0  0
  5 21  2  0  0  0  0
  6  7  1  0  0  0  0
  6 10  1  0  0  0  0
  7 13  1  0  0  0  0
  8  9  1  0  0  0  0
  8 14  1  0  0  0  0
  9 14  1  0  0  0  0
 10 15  1  0  0  0  0
 11 12  1  0  0  0  0
 11 19  1  0  0  0  0
 12 23  1  0  0  0  0
 13 15  1  0  0  0  0
 13 19  1  0  0  0  0
 14 20  1  0  0  0  0
 15 23  1  0  0  0  0
 17 20  1  0  0  0  0
 18 19  1  0  0  0  0
  1 24  1  0  0  0  0
  2 25  1  0  0  0  0
  6 26  1  0  0  0  0
  6 27  1  0  0  0  0
  7 28  1  0  0  0  0
  7 29  1  0  0  0  0
  8 30  1  0  0  0  0
  8 31  1  0  0  0  0
  9 32  1  0  0  0  0
  9 33  1  0  0  0  0
 10 34  1  0  0  0  0
 10 35  1  0  0  0  0
 11 36  1  0  0  0  0
 11 37  1  0  0  0  0
 12 38  1  0  0  0  0
 12 39  1  0  0  0  0
 13 40  1  0  0  0  0
 14 41  1  0  0  0  0
 15 42  1  0  0  0  0
 16 43  1  0  0  0  0
 16 44  1  0  0  0  0
 16 45  1  0  0  0  0
 17 46  1  0  0  0  0
 17 47  1  0  0  0  0
 18 48  1  0  0  0  0
 18 49  1  0  0  0  0
M  END
> <Catalog ID>
Z1208025134

> <PlateID>
1041831-R-37

> <Well>
G05

> <MW (desalted)>
318.411

> <ClogP>
2.703

> <HBD>
0

> <TPSA>
45.920

> <RotBonds>
5

> <ROCS_ShapeQuery>
A71EV2A-x0451_0A_A71EV2A-x0310_0A_A71EV2A-x0416_0A_peptide

> <ROCS_TanimotoCombo>
0.512 

> <ROCS_ShapeTanimoto>
0.324 

> <ROCS_ColorTanimoto>
0.188 

> <ROCS_RefTversky>
0.292 

> <ROCS_RefColorTversky>
0.202 

> <ROCS_RefTverskyCombo>
0.493 

> <ROCS_FitTversky>
1.509 

> <ROCS_FitColorTversky>
0.742 

> <ROCS_FitTverskyCombo>
2.251 

> <ROCS_ColorScore>
-6.142

> <ROCS_Overlap>
2027.348

> <ROCS_Rank>
496                 

$$$$
untitled-dbase-240_55
  -OEChem-11132311063D

 50 54  0     1  0  0  0  0  0999 V2000
   12.6347   16.2101   21.5712 C   0  0  0  0  0  0  0  0  0  0  0  0
   12.0623   14.9570   21.3291 C   0  0  0  0  0  0  0  0  0  0  0  0
   11.8214   16.2196   23.8661 C   0  0  0  0  0  0  0  0  0  0  0  0
   12.5176   16.8320   22.8164 C   0  0  0  0  0  0  0  0  0  0  0  0
   11.2398   14.9606   23.6404 C   0  0  0  0  0  0  0  0  0  0  0  0
   11.3736   14.3660   22.3888 C   0  0  0  0  0  0  0  0  0  0  0  0
   10.2104   13.0947   23.7766 C   0  0  0  0  0  0  0  0  0  0  0  0
    6.1395   10.8924   25.4440 C   0  0  0  0  0  0  0  0  0  0  0  0
    9.0529    9.3945   24.0279 C   0  0  0  0  0  0  0  0  0  0  0  0
    9.8835   10.5896   23.5569 C   0  0  0  0  0  0  0  0  0  0  0  0
    5.0867   13.6287   28.6137 C   0  0  0  0  0  0  0  0  0  0  0  0
    5.8429   12.3472   28.9718 C   0  0  0  0  0  0  0  0  0  0  0  0
    5.4211   13.1732   26.1591 C   0  0  0  0  0  0  0  0  0  0  0  0
    7.5601    9.6513   23.8425 C   0  0  0  0  0  0  0  0  0  0  0  0
    7.8989   12.0892   24.0474 C   0  0  0  0  0  0  0  0  0  0  0  0
    9.4121   11.8870   24.2398 C   0  0  2  0  0  0  0  0  0  0  0  0
    6.2242   11.9290   26.5358 C   0  0  1  0  0  0  0  0  0  0  0  0
    4.4057   13.2440   27.3004 C   0  0  1  0  0  0  0  0  0  0  0  0
    5.5038   11.4386   27.7914 C   0  0  2  0  0  0  0  0  0  0  0  0
   13.1430   18.1704   23.0334 C   0  0  0  0  0  0  0  0  0  0  0  0
   10.5145   14.1562   24.4892 N   0  0  0  0  0  0  0  0  0  0  0  0
   10.7056   13.1739   22.5047 N   0  0  0  0  0  0  0  0  0  0  0  0
    7.1611   10.8997   24.4951 N   0  0  0  0  0  0  0  0  0  0  0  0
    5.1944   10.0995   25.4378 O   0  0  0  0  0  0  0  0  0  0  0  0
    4.1371   11.8420   27.5234 O   0  0  0  0  0  0  0  0  0  0  0  0
   13.1794   16.7014   20.7673 H   0  0  0  0  0  0  0  0  0  0  0  0
   12.1518   14.4718   20.3637 H   0  0  0  0  0  0  0  0  0  0  0  0
   11.7303   16.7032   24.8338 H   0  0  0  0  0  0  0  0  0  0  0  0
    9.3464    8.5001   23.4668 H   0  0  0  0  0  0  0  0  0  0  0  0
    9.2629    9.1932   25.0856 H   0  0  0  0  0  0  0  0  0  0  0  0
   10.9435   10.4087   23.7738 H   0  0  0  0  0  0  0  0  0  0  0  0
    9.7973   10.6830   22.4660 H   0  0  0  0  0  0  0  0  0  0  0  0
    4.3408   13.8404   29.3880 H   0  0  0  0  0  0  0  0  0  0  0  0
    5.7407   14.5003   28.5171 H   0  0  0  0  0  0  0  0  0  0  0  0
    6.9179   12.5040   29.0996 H   0  0  0  0  0  0  0  0  0  0  0  0
    5.4400   11.9343   29.9036 H   0  0  0  0  0  0  0  0  0  0  0  0
    6.0433   14.0719   26.1040 H   0  0  0  0  0  0  0  0  0  0  0  0
    4.9079   13.0516   25.1982 H   0  0  0  0  0  0  0  0  0  0  0  0
    7.3158    9.7452   22.7776 H   0  0  0  0  0  0  0  0  0  0  0  0
    6.9886    8.8046   24.2353 H   0  0  0  0  0  0  0  0  0  0  0  0
    7.5740   12.9907   24.5722 H   0  0  0  0  0  0  0  0  0  0  0  0
    7.6548   12.2375   22.9873 H   0  0  0  0  0  0  0  0  0  0  0  0
    9.6062   11.7882   25.3353 H   0  0  0  0  0  0  0  0  0  0  0  0
    7.2824   12.1384   26.7031 H   0  0  0  0  0  0  0  0  0  0  0  0
    3.5024   13.8136   27.0713 H   0  0  0  0  0  0  0  0  0  0  0  0
    5.5778   10.3686   28.0005 H   0  0  0  0  0  0  0  0  0  0  0  0
   12.4340   18.9670   22.7794 H   0  0  0  0  0  0  0  0  0  0  0  0
   13.4532   18.2988   24.0779 H   0  0  0  0  0  0  0  0  0  0  0  0
   14.0420   18.2929   22.4164 H   0  0  0  0  0  0  0  0  0  0  0  0
   10.5998   12.4787   21.7777 H   0  0  0  0  0  0  0  0  0  0  0  0
  1  2  1  0  0  0  0
  1  4  2  0  0  0  0
  2  6  2  0  0  0  0
  3  4  1  0  0  0  0
  3  5  2  0  0  0  0
  4 20  1  0  0  0  0
  5  6  1  0  0  0  0
  5 21  1  0  0  0  0
  6 22  1  0  0  0  0
  7 16  1  0  0  0  0
  7 21  2  0  0  0  0
  7 22  1  0  0  0  0
  8 17  1  0  0  0  0
  8 23  1  0  0  0  0
  8 24  2  0  0  0  0
  9 10  1  0  0  0  0
  9 14  1  0  0  0  0
 10 16  1  0  0  0  0
 11 12  1  0  0  0  0
 11 18  1  0  0  0  0
 12 19  1  0  0  0  0
 13 17  1  0  0  0  0
 13 18  1  0  0  0  0
 14 23  1  0  0  0  0
 15 16  1  0  0  0  0
 15 23  1  0  0  0  0
 17 19  1  0  0  0  0
 18 25  1  0  0  0  0
 19 25  1  0  0  0  0
  1 26  1  0  0  0  0
  2 27  1  0  0  0  0
  3 28  1  0  0  0  0
  9 29  1  0  0  0  0
  9 30  1  0  0  0  0
 10 31  1  0  0  0  0
 10 32  1  0  0  0  0
 11 33  1  0  0  0  0
 11 34  1  0  0  0  0
 12 35  1  0  0  0  0
 12 36  1  0  0  0  0
 13 37  1  0  0  0  0
 13 38  1  0  0  0  0
 14 39  1  0  0  0  0
 14 40  1  0  0  0  0
 15 41  1  0  0  0  0
 15 42  1  0  0  0  0
 16 43  1  0  0  0  0
 17 44  1  0  0  0  0
 18 45  1  0  0  0  0
 19 46  1  0  0  0  0
 20 47  1  0  0  0  0
 20 48  1  0  0  0  0
 20 49  1  0  0  0  0
 22 50  1  0  0  0  0
M  END
> <Catalog ID>
Z1199695523

> <PlateID>
1041831-R-03

> <Well>
H11

> <MW (desalted)>
339.431

> <ClogP>
1.979

> <HBD>
1

> <TPSA>
58.220

> <RotBonds>
2

> <ROCS_ShapeQuery>
A71EV2A-x0451_0A_A71EV2A-x0310_0A_A71EV2A-x0416_0A_peptide

> <ROCS_TanimotoCombo>
0.512 

> <ROCS_ShapeTanimoto>
0.340 

> <ROCS_ColorTanimoto>
0.172 

> <ROCS_RefTversky>
0.307 

> <ROCS_RefColorTversky>
0.219 

> <ROCS_RefTverskyCombo>
0.527 

> <ROCS_FitTversky>
1.455 

> <ROCS_FitColorTversky>
0.444 

> <ROCS_FitTverskyCombo>
1.898 

> <ROCS_ColorScore>
-6.766

> <ROCS_Overlap>
2137.210

> <ROCS_Rank>
497                 

$$$$
untitled-dbase-705_117
  -OEChem-11132311063D

 38 40  0     0  0  0  0  0  0999 V2000
    7.3213   11.8528   25.2415 C   0  0  0  0  0  0  0  0  0  0  0  0
    7.0405   10.4898   25.1418 C   0  0  0  0  0  0  0  0  0  0  0  0
    8.3231   12.4195   24.4555 C   0  0  0  0  0  0  0  0  0  0  0  0
    7.7665    9.6905   24.2510 C   0  0  0  0  0  0  0  0  0  0  0  0
    8.7690   10.2576   23.4643 C   0  0  0  0  0  0  0  0  0  0  0  0
    9.0481   11.6254   23.5665 C   0  0  0  0  0  0  0  0  0  0  0  0
   12.5203   17.2150   21.3317 C   0  0  0  0  0  0  0  0  0  0  0  0
   12.3330   17.1382   22.7248 C   0  0  0  0  0  0  0  0  0  0  0  0
   12.3266   15.9297   20.8878 C   0  0  0  0  0  0  0  0  0  0  0  0
    7.4681    8.2494   24.1473 C   0  0  0  0  0  0  0  0  0  0  0  0
    9.5375    9.4198   22.5240 C   0  0  0  0  0  0  0  0  0  0  0  0
   10.8019   13.3879   23.1664 C   0  0  0  0  0  0  0  0  0  0  0  0
   12.4230   18.2259   23.7159 C   0  0  0  0  0  0  0  0  0  0  0  0
   12.3802   15.3448   19.5338 C   0  0  0  0  0  0  0  0  0  0  0  0
   11.7632   13.7586   22.0522 C   0  0  0  0  0  0  0  0  0  0  0  0
   12.0425   15.9019   23.1386 N   0  0  0  0  0  0  0  0  0  0  0  0
   12.0456   15.1901   21.9988 N   0  0  0  0  0  0  0  0  0  0  0  0
    8.2209    7.5281   23.2499 N   0  0  0  0  0  0  0  0  0  0  0  0
    9.2061    8.0855   22.4768 N   0  0  0  0  0  0  0  0  0  0  0  0
   10.0365   12.2675   22.8131 N   0  0  0  0  0  0  0  0  0  0  0  0
    6.5875    7.7449   24.8385 O   0  0  0  0  0  0  0  0  0  0  0  0
   10.4289    9.8775   21.8147 O   0  0  0  0  0  0  0  0  0  0  0  0
   10.7433   14.0169   24.2178 O   0  0  0  0  0  0  0  0  0  0  0  0
   12.8996   18.5968   20.4309 Cl  0  0  0  0  0  0  0  0  0  0  0  0
    6.7584   12.4731   25.9331 H   0  0  0  0  0  0  0  0  0  0  0  0
    6.2552   10.0723   25.7659 H   0  0  0  0  0  0  0  0  0  0  0  0
    8.5284   13.4835   24.5466 H   0  0  0  0  0  0  0  0  0  0  0  0
   11.4455   18.7160   23.8603 H   0  0  0  0  0  0  0  0  0  0  0  0
   12.7630   17.8630   24.7016 H   0  0  0  0  0  0  0  0  0  0  0  0
   13.1453   19.0045   23.4139 H   0  0  0  0  0  0  0  0  0  0  0  0
   13.3969   14.9936   19.2926 H   0  0  0  0  0  0  0  0  0  0  0  0
   11.6950   14.4866   19.4262 H   0  0  0  0  0  0  0  0  0  0  0  0
   12.0834   16.0706   18.7574 H   0  0  0  0  0  0  0  0  0  0  0  0
   12.7137   13.2308   22.1912 H   0  0  0  0  0  0  0  0  0  0  0  0
   11.3442   13.4595   21.0846 H   0  0  0  0  0  0  0  0  0  0  0  0
    8.0731    6.5324   23.1225 H   0  0  0  0  0  0  0  0  0  0  0  0
    9.7162    7.4842   21.8381 H   0  0  0  0  0  0  0  0  0  0  0  0
   10.2274   11.8708   21.8875 H   0  0  0  0  0  0  0  0  0  0  0  0
  1  2  1  0  0  0  0
  1  3  2  0  0  0  0
  2  4  2  0  0  0  0
  3  6  1  0  0  0  0
  4  5  1  0  0  0  0
  4 10  1  0  0  0  0
  5  6  2  0  0  0  0
  5 11  1  0  0  0  0
  6 20  1  0  0  0  0
  7  8  1  0  0  0  0
  7  9  2  0  0  0  0
  7 24  1  0  0  0  0
  8 13  1  0  0  0  0
  8 16  2  0  0  0  0
  9 14  1  0  0  0  0
  9 17  1  0  0  0  0
 10 18  1  0  0  0  0
 10 21  2  0  0  0  0
 11 19  1  0  0  0  0
 11 22  2  0  0  0  0
 12 15  1  0  0  0  0
 12 20  1  0  0  0  0
 12 23  2  0  0  0  0
 15 17  1  0  0  0  0
 16 17  1  0  0  0  0
 18 19  1  0  0  0  0
  1 25  1  0  0  0  0
  2 26  1  0  0  0  0
  3 27  1  0  0  0  0
 13 28  1  0  0  0  0
 13 29  1  0  0  0  0
 13 30  1  0  0  0  0
 14 31  1  0  0  0  0
 14 32  1  0  0  0  0
 14 33  1  0  0  0  0
 15 34  1  0  0  0  0
 15 35  1  0  0  0  0
 18 36  1  0  0  0  0
 19 37  1  0  0  0  0
 20 38  1  0  0  0  0
M  END
> <Catalog ID>
Z1171890520

> <PlateID>
1041831-R-09

> <Well>
G06

> <MW (desalted)>
347.756

> <ClogP>
1.179

> <HBD>
3

> <TPSA>
105.120

> <RotBonds>
3

> <ROCS_ShapeQuery>
A71EV2A-x0451_0A_A71EV2A-x0310_0A_A71EV2A-x0416_0A_peptide

> <ROCS_TanimotoCombo>
0.512 

> <ROCS_ShapeTanimoto>
0.343 

> <ROCS_ColorTanimoto>
0.169 

> <ROCS_RefTversky>
0.307 

> <ROCS_RefColorTversky>
0.198 

> <ROCS_RefTverskyCombo>
0.506 

> <ROCS_FitTversky>
1.511 

> <ROCS_FitColorTversky>
0.534 

> <ROCS_FitTverskyCombo>
2.044 

> <ROCS_ColorScore>
-6.073

> <ROCS_Overlap>
2136.683

> <ROCS_Rank>
498                 

$$$$
untitled-dbase-2143_1330
  -OEChem-11132311063D

 52 56  0     1  0  0  0  0  0999 V2000
    6.0246   12.4460   28.2927 C   0  0  0  0  0  0  0  0  0  0  0  0
    4.6995   12.9102   28.3593 C   0  0  0  0  0  0  0  0  0  0  0  0
    5.9681   11.4300   27.3759 C   0  0  0  0  0  0  0  0  0  0  0  0
   11.4163   15.3316   22.3879 C   0  0  0  0  0  0  0  0  0  0  0  0
   10.9115   13.3268   23.0841 C   0  0  0  0  0  0  0  0  0  0  0  0
   11.9125   16.4307   21.5226 C   0  0  0  0  0  0  0  0  0  0  0  0
   13.3901   16.2766   21.1662 C   0  0  0  0  0  0  0  0  0  0  0  0
   13.6672   15.2113   20.1018 C   0  0  0  0  0  0  0  0  0  0  0  0
   13.4115   13.7694   20.5472 C   0  0  0  0  0  0  0  0  0  0  0  0
    8.0866   12.0344   23.5696 C   0  0  0  0  0  0  0  0  0  0  0  0
    9.3720   10.0276   24.4582 C   0  0  0  0  0  0  0  0  0  0  0  0
    9.9788   11.0496   22.1366 C   0  0  0  0  0  0  0  0  0  0  0  0
   11.9402   13.4517   20.8003 C   0  0  0  0  0  0  0  0  0  0  0  0
    7.4980   11.9771   24.9803 C   0  0  0  0  0  0  0  0  0  0  0  0
    7.9488    9.5636   24.7727 C   0  0  0  0  0  0  0  0  0  0  0  0
   10.7212   11.8312   23.1877 C   0  0  2  0  0  0  0  0  0  0  0  0
    9.3599   11.2091   23.5046 C   0  0  0  0  0  0  0  0  0  0  0  0
    4.1668   14.0014   29.1907 C   0  0  0  0  0  0  0  0  0  0  0  0
    6.9873   10.4863   26.8060 C   0  0  0  0  0  0  0  0  0  0  0  0
    3.8836   12.2338   27.5459 N   0  0  0  0  0  0  0  0  0  0  0  0
   10.8913   15.4386   23.5929 N   0  0  0  0  0  0  0  0  0  0  0  0
   10.5725   14.1704   24.0321 N   0  0  0  0  0  0  0  0  0  0  0  0
   11.4429   14.0108   22.0358 N   0  0  0  0  0  0  0  0  0  0  0  0
    7.0972   10.6118   25.3547 N   0  0  0  0  0  0  0  0  0  0  0  0
    4.6955   11.2936   26.9229 O   0  0  0  0  0  0  0  0  0  0  0  0
    6.8926   12.7970   28.8313 H   0  0  0  0  0  0  0  0  0  0  0  0
   11.3010   16.4999   20.6153 H   0  0  0  0  0  0  0  0  0  0  0  0
   11.7816   17.3777   22.0608 H   0  0  0  0  0  0  0  0  0  0  0  0
   13.7436   17.2374   20.7709 H   0  0  0  0  0  0  0  0  0  0  0  0
   13.9852   16.0691   22.0644 H   0  0  0  0  0  0  0  0  0  0  0  0
   13.0826   15.4290   19.1995 H   0  0  0  0  0  0  0  0  0  0  0  0
   14.7225   15.2917   19.8118 H   0  0  0  0  0  0  0  0  0  0  0  0
   13.7689   13.1073   19.7486 H   0  0  0  0  0  0  0  0  0  0  0  0
   14.0115   13.5433   21.4374 H   0  0  0  0  0  0  0  0  0  0  0  0
    7.3385   11.6746   22.8569 H   0  0  0  0  0  0  0  0  0  0  0  0
    8.3205   13.0701   23.3017 H   0  0  0  0  0  0  0  0  0  0  0  0
    9.8831   10.3250   25.3839 H   0  0  0  0  0  0  0  0  0  0  0  0
    9.9430    9.1893   24.0383 H   0  0  0  0  0  0  0  0  0  0  0  0
    9.5378   11.5860   21.3023 H   0  0  0  0  0  0  0  0  0  0  0  0
   10.3744   10.0780   21.8582 H   0  0  0  0  0  0  0  0  0  0  0  0
   11.3026   13.8249   19.9907 H   0  0  0  0  0  0  0  0  0  0  0  0
   11.8124   12.3648   20.8422 H   0  0  0  0  0  0  0  0  0  0  0  0
    8.2589   12.3477   25.6839 H   0  0  0  0  0  0  0  0  0  0  0  0
    6.6376   12.6630   25.0492 H   0  0  0  0  0  0  0  0  0  0  0  0
    7.4816    9.1588   23.8496 H   0  0  0  0  0  0  0  0  0  0  0  0
    8.0160    8.7084   25.4754 H   0  0  0  0  0  0  0  0  0  0  0  0
   11.5978   11.3089   23.6308 H   0  0  0  0  0  0  0  0  0  0  0  0
    4.2185   14.9700   28.6636 H   0  0  0  0  0  0  0  0  0  0  0  0
    3.1119   13.8344   29.4743 H   0  0  0  0  0  0  0  0  0  0  0  0
    4.7201   14.1113   30.1411 H   0  0  0  0  0  0  0  0  0  0  0  0
    7.9758   10.6794   27.2370 H   0  0  0  0  0  0  0  0  0  0  0  0
    6.7307    9.4464   27.0336 H   0  0  0  0  0  0  0  0  0  0  0  0
  1  2  1  0  0  0  0
  1  3  2  0  0  0  0
  2 18  1  0  0  0  0
  2 20  2  0  0  0  0
  3 19  1  0  0  0  0
  3 25  1  0  0  0  0
  4  6  1  0  0  0  0
  4 21  2  0  0  0  0
  4 23  1  0  0  0  0
  5 16  1  0  0  0  0
  5 22  2  0  0  0  0
  5 23  1  0  0  0  0
  6  7  1  0  0  0  0
  7  8  1  0  0  0  0
  8  9  1  0  0  0  0
  9 13  1  0  0  0  0
 10 14  1  0  0  0  0
 10 17  1  0  0  0  0
 11 15  1  0  0  0  0
 11 17  1  0  0  0  0
 12 16  1  0  0  0  0
 12 17  1  0  0  0  0
 13 23  1  0  0  0  0
 14 24  1  0  0  0  0
 15 24  1  0  0  0  0
 16 17  1  0  0  0  0
 19 24  1  0  0  0  0
 20 25  1  0  0  0  0
 21 22  1  0  0  0  0
  1 26  1  0  0  0  0
  6 27  1  0  0  0  0
  6 28  1  0  0  0  0
  7 29  1  0  0  0  0
  7 30  1  0  0  0  0
  8 31  1  0  0  0  0
  8 32  1  0  0  0  0
  9 33  1  0  0  0  0
  9 34  1  0  0  0  0
 10 35  1  0  0  0  0
 10 36  1  0  0  0  0
 11 37  1  0  0  0  0
 11 38  1  0  0  0  0
 12 39  1  0  0  0  0
 12 40  1  0  0  0  0
 13 41  1  0  0  0  0
 13 42  1  0  0  0  0
 14 43  1  0  0  0  0
 14 44  1  0  0  0  0
 15 45  1  0  0  0  0
 15 46  1  0  0  0  0
 16 47  1  0  0  0  0
 18 48  1  0  0  0  0
 18 49  1  0  0  0  0
 18 50  1  0  0  0  0
 19 51  1  0  0  0  0
 19 52  1  0  0  0  0
M  END
> <Catalog ID>
Z1170444775

> <PlateID>
1041831-R-27

> <Well>
G04

> <MW (desalted)>
341.451

> <ClogP>
1.088

> <HBD>
0

> <TPSA>
59.980

> <RotBonds>
3

> <ROCS_ShapeQuery>
A71EV2A-x0451_0A_A71EV2A-x0310_0A_A71EV2A-x0416_0A_peptide

> <ROCS_TanimotoCombo>
0.512 

> <ROCS_ShapeTanimoto>
0.338 

> <ROCS_ColorTanimoto>
0.174 

> <ROCS_RefTversky>
0.305 

> <ROCS_RefColorTversky>
0.195 

> <ROCS_RefTverskyCombo>
0.499 

> <ROCS_FitTversky>
1.467 

> <ROCS_FitColorTversky>
0.627 

> <ROCS_FitTverskyCombo>
2.094 

> <ROCS_ColorScore>
-5.942

> <ROCS_Overlap>
2119.222

> <ROCS_Rank>
499                 

$$$$
untitled-dbase-2714_1037
  -OEChem-11132311063D

 40 42  0     1  0  0  0  0  0999 V2000
   11.9707   16.4415   19.2381 C   0  0  0  0  0  0  0  0  0  0  0  0
   11.7915   15.7995   20.4634 C   0  0  0  0  0  0  0  0  0  0  0  0
   13.1224   16.2037   18.4880 C   0  0  0  0  0  0  0  0  0  0  0  0
   10.1433   10.9335   23.0062 C   0  0  0  0  0  0  0  0  0  0  0  0
   13.9158   14.6820   20.1885 C   0  0  0  0  0  0  0  0  0  0  0  0
    8.5733   12.1817   24.4192 C   0  0  0  0  0  0  0  0  0  0  0  0
    9.2287    9.9276   23.2793 C   0  0  0  0  0  0  0  0  0  0  0  0
    9.7516   12.1193   23.6364 C   0  0  0  0  0  0  0  0  0  0  0  0
   12.7640   14.9198   20.9386 C   0  0  0  0  0  0  0  0  0  0  0  0
   14.0950   15.3239   18.9632 C   0  0  0  0  0  0  0  0  0  0  0  0
    9.2931    8.6382   22.8279 C   0  0  0  0  0  0  0  0  0  0  0  0
    8.0439   10.0089   24.0725 C   0  0  0  0  0  0  0  0  0  0  0  0
   10.5713   13.3113   23.4841 C   0  0  0  0  0  0  0  0  0  0  0  0
   10.2510    7.9113   21.9772 C   0  0  0  0  0  0  0  0  0  0  0  0
   13.7409   13.3130   22.6286 C   0  0  0  0  0  0  0  0  0  0  0  0
   10.8736   12.9292   21.0258 C   0  0  0  0  0  0  0  0  0  0  0  0
   12.5694   14.2245   22.2688 C   0  0  2  0  0  0  0  0  0  0  0  0
    7.6795   11.1741   24.6783 N   0  0  0  0  0  0  0  0  0  0  0  0
    7.4091    8.8318   24.1100 N   0  0  0  0  0  0  0  0  0  0  0  0
    8.1856    8.0291   23.3521 N   0  0  0  0  0  0  0  0  0  0  0  0
   11.3114   13.4816   22.2999 N   0  0  0  0  0  0  0  0  0  0  0  0
   10.5577   14.1249   24.4172 O   0  0  0  0  0  0  0  0  0  0  0  0
   15.5163   15.0318   18.0378 Cl  0  0  0  0  0  0  0  0  0  0  0  0
   11.2132   17.1266   18.8685 H   0  0  0  0  0  0  0  0  0  0  0  0
   10.8910   15.9909   21.0412 H   0  0  0  0  0  0  0  0  0  0  0  0
   13.2489   16.7113   17.5349 H   0  0  0  0  0  0  0  0  0  0  0  0
   11.0323   10.8341   22.3993 H   0  0  0  0  0  0  0  0  0  0  0  0
   14.6708   13.9947   20.5632 H   0  0  0  0  0  0  0  0  0  0  0  0
    8.2995   13.1228   24.8951 H   0  0  0  0  0  0  0  0  0  0  0  0
   11.0511    7.4487   22.5801 H   0  0  0  0  0  0  0  0  0  0  0  0
    9.7657    7.1073   21.3959 H   0  0  0  0  0  0  0  0  0  0  0  0
   10.7337    8.5717   21.2347 H   0  0  0  0  0  0  0  0  0  0  0  0
   13.8812   12.5335   21.8717 H   0  0  0  0  0  0  0  0  0  0  0  0
   14.6697   13.8904   22.6973 H   0  0  0  0  0  0  0  0  0  0  0  0
   13.5954   12.8212   23.5970 H   0  0  0  0  0  0  0  0  0  0  0  0
   10.2422   13.6638   20.5046 H   0  0  0  0  0  0  0  0  0  0  0  0
   11.7520   12.6958   20.4062 H   0  0  0  0  0  0  0  0  0  0  0  0
   10.2959   12.0102   21.2039 H   0  0  0  0  0  0  0  0  0  0  0  0
   12.4799   14.9796   23.0595 H   0  0  0  0  0  0  0  0  0  0  0  0
    7.8972    7.0661   23.2332 H   0  0  0  0  0  0  0  0  0  0  0  0
  1  2  1  0  0  0  0
  1  3  2  0  0  0  0
  2  9  2  0  0  0  0
  3 10  1  0  0  0  0
  4  7  1  0  0  0  0
  4  8  2  0  0  0  0
  5  9  1  0  0  0  0
  5 10  2  0  0  0  0
  6  8  1  0  0  0  0
  6 18  2  0  0  0  0
  7 11  2  0  0  0  0
  7 12  1  0  0  0  0
  8 13  1  0  0  0  0
  9 17  1  0  0  0  0
 10 23  1  0  0  0  0
 11 14  1  0  0  0  0
 11 20  1  0  0  0  0
 12 18  1  0  0  0  0
 12 19  2  0  0  0  0
 13 21  1  0  0  0  0
 13 22  2  0  0  0  0
 15 17  1  0  0  0  0
 16 21  1  0  0  0  0
 17 21  1  0  0  0  0
 19 20  1  0  0  0  0
  1 24  1  0  0  0  0
  2 25  1  0  0  0  0
  3 26  1  0  0  0  0
  4 27  1  0  0  0  0
  5 28  1  0  0  0  0
  6 29  1  0  0  0  0
 14 30  1  0  0  0  0
 14 31  1  0  0  0  0
 14 32  1  0  0  0  0
 15 33  1  0  0  0  0
 15 34  1  0  0  0  0
 15 35  1  0  0  0  0
 16 36  1  0  0  0  0
 16 37  1  0  0  0  0
 16 38  1  0  0  0  0
 17 39  1  0  0  0  0
 20 40  1  0  0  0  0
M  END
> <Catalog ID>
Z763056416

> <PlateID>
1041831-R-34

> <Well>
H05

> <MW (desalted)>
328.796

> <ClogP>
3.187

> <HBD>
1

> <TPSA>
61.880

> <RotBonds>
3

> <ROCS_ShapeQuery>
A71EV2A-x0451_0A_A71EV2A-x0310_0A_A71EV2A-x0416_0A_peptide

> <ROCS_TanimotoCombo>
0.512 

> <ROCS_ShapeTanimoto>
0.335 

> <ROCS_ColorTanimoto>
0.177 

> <ROCS_RefTversky>
0.300 

> <ROCS_RefColorTversky>
0.191 

> <ROCS_RefTverskyCombo>
0.491 

> <ROCS_FitTversky>
1.536 

> <ROCS_FitColorTversky>
0.703 

> <ROCS_FitTverskyCombo>
2.240 

> <ROCS_ColorScore>
-5.817

> <ROCS_Overlap>
2085.589

> <ROCS_Rank>
500                 

$$$$
